#------------------------------------------------------------------------------
#$Date: 2017-03-10 01:59:00 +0200 (Fri, 10 Mar 2017) $
#$Revision: 194129 $
#$URL: file:///home/coder/svn-repositories/cod/cif/4/34/55/4345537.cif $
#------------------------------------------------------------------------------
#
# This file is available in the Crystallography Open Database (COD),
# http://www.crystallography.net/
#
# All data on this site have been placed in the public domain by the
# contributors.
#
data_4345537
loop_
_publ_author_name
'Wang, Yaxing'
'Wang, Yumin'
'Zhang, Linjuan'
'Chen, Lanhua'
'Liu, Zhiyong'
'Yin, Xuemiao'
'Sheng, Daopeng'
'Diwu, Juan'
'Wang, Jianqiang'
'Liu, Ning'
'Chai, Zhifang'
'Wang, Shuao'
_publ_section_title
;
 Substitutional Disorder of SeO32--/IO3-- in the Crystalline Solid Matrix:
 Insights into the Fate of Radionuclides 79Se and 129I in the Environment
;
_journal_name_full               'Inorganic Chemistry'
_journal_paper_doi               10.1021/acs.inorgchem.7b00236
_journal_year                    2017
_chemical_formula_sum            'I4 O18 Se2 Th2'
_chemical_formula_weight         1417.60
_chemical_melting_point          ?
_chemical_name_common            'thorium iodate-selenite'
_space_group_crystal_system      monoclinic
_space_group_IT_number           14
_space_group_name_Hall           '-P 2ybc'
_space_group_name_H-M_alt        'P 1 21/c 1'
_symmetry_space_group_name_Hall  '-P 2ybc'
_symmetry_space_group_name_H-M   'P 1 21/c 1'
_audit_creation_method           SHELXL-2014/7
_cell_angle_alpha                90
_cell_angle_beta                 99.001(4)
_cell_angle_gamma                90
_cell_formula_units_Z            2
_cell_length_a                   7.0984(10)
_cell_length_b                   8.6077(12)
_cell_length_c                   13.3505(18)
_cell_measurement_reflns_used    1867
_cell_measurement_temperature    123(2)
_cell_measurement_theta_max      27.544
_cell_measurement_theta_min      2.826
_cell_volume                     805.68(19)
_computing_cell_refinement       'Bruker SAINT'
_computing_data_collection       'Bruker APEX2'
_computing_data_reduction        'Bruker SAINT'
_computing_molecular_graphics    'Bruker SHELXTL'
_computing_publication_material  'Bruker SHELXTL'
_computing_structure_refinement  'SHELXL-2014/7 (Sheldrick, 2014)'
_diffrn_ambient_temperature      123(2)
_diffrn_measured_fraction_theta_full 1.000
_diffrn_measured_fraction_theta_max 0.998
_diffrn_measurement_device_type  'Bruker APEX-II'
_diffrn_measurement_method       '0.5 wide w/ exposures'
_diffrn_radiation_type           MoK\a
_diffrn_radiation_wavelength     0.71073
_diffrn_reflns_av_R_equivalents  0.0515
_diffrn_reflns_av_unetI/netI     0.0264
_diffrn_reflns_Laue_measured_fraction_full 1.000
_diffrn_reflns_Laue_measured_fraction_max 0.998
_diffrn_reflns_limit_h_max       9
_diffrn_reflns_limit_h_min       -9
_diffrn_reflns_limit_k_max       11
_diffrn_reflns_limit_k_min       -11
_diffrn_reflns_limit_l_max       17
_diffrn_reflns_limit_l_min       -16
_diffrn_reflns_number            18889
_diffrn_reflns_point_group_measured_fraction_full 1.000
_diffrn_reflns_point_group_measured_fraction_max 0.998
_diffrn_reflns_theta_full        25.242
_diffrn_reflns_theta_max         27.544
_diffrn_reflns_theta_min         2.826
_diffrn_source                   'Turbo X-ray Source'
_exptl_absorpt_coefficient_mu    30.713
_exptl_absorpt_correction_T_max  0.331
_exptl_absorpt_correction_T_min  0.001
_exptl_absorpt_correction_type   multi-scan
_exptl_absorpt_process_details   SHELTXPREP
_exptl_crystal_colour            colorless
_exptl_crystal_density_diffrn    5.843
_exptl_crystal_description       Prism
_exptl_crystal_F_000             1208
_exptl_crystal_size_max          0.264
_exptl_crystal_size_mid          0.196
_exptl_crystal_size_min          0.038
_refine_diff_density_max         3.658
_refine_diff_density_min         -2.924
_refine_diff_density_rms         0.423
_refine_ls_extinction_coef       0.0049(2)
_refine_ls_extinction_expression Fc^*^=kFc[1+0.001xFc^2^\l^3^/sin(2\q)]^-1/4^
_refine_ls_extinction_method     'SHELXL-2014/7 (Sheldrick 2014'
_refine_ls_goodness_of_fit_ref   1.195
_refine_ls_hydrogen_treatment    undef
_refine_ls_matrix_type           full
_refine_ls_number_parameters     122
_refine_ls_number_reflns         1867
_refine_ls_number_restraints     0
_refine_ls_restrained_S_all      1.195
_refine_ls_R_factor_all          0.0403
_refine_ls_R_factor_gt           0.0390
_refine_ls_shift/su_max          0.001
_refine_ls_shift/su_mean         0.000
_refine_ls_structure_factor_coef Fsqd
_refine_ls_weighting_details
'w=1/[\s^2^(Fo^2^)+(0.0082P)^2^+32.6705P] where P=(Fo^2^+2Fc^2^)/3'
_refine_ls_weighting_scheme      calc
_refine_ls_wR_factor_gt          0.0831
_refine_ls_wR_factor_ref         0.0836
_reflns_Friedel_coverage         0.000
_reflns_number_gt                1818
_reflns_number_total             1867
_reflns_threshold_expression     'I > 2\s(I)'
_cod_data_source_file            ic7b00236_si_001.cif
_cod_data_source_block           save
_cod_depositor_comments
;
The following automatic conversions were performed:

'_chemical_melting_point' value 'N/A' was changed to '?' - the value
is undefined or not given.

'_exptl_absorpt_correction_type' value 'Multi-scan' changed to
'multi-scan' according to
/home/data/users/saulius/crontab/automatic-downloads/rss-feeds/ACS/lib/dictionaries/cif_core.dic
dictionary named 'cif_core.dic' version 2.4.2 from 2011-04-26.

Automatic conversion script
Id: cif_fix_values 4973 2017-02-22 13:04:09Z antanas 
;
_cod_database_code               4345537
_shelx_shelxl_version_number     2014/7
_shelx_space_group_comment
;
The symmetry employed for this shelxl refinement is uniquely defined
by the following loop, which should always be used as a source of
symmetry information in preference to the above space-group names.
They are only intended as comments.
;
_shelx_res_file
;

    save.res created by SHELXL-2014/7


TITL save      P c          R =  New: P21/c
CELL  0.71073    7.0984    8.6077   13.3505    90.000    99.001    90.000
ZERR        2    0.0010    0.0012    0.0018     0.000     0.004     0.000
LATT   1
SYMM             - X ,    0.50000 + Y ,    0.50000 - Z
SFAC  I  O Th Se
UNIT    8   36   4 4
TEMP -150

L.S. 200
EXYZ I1 Se1
EADP I1 Se1
EXYZ I2 Se2
EADP I2 Se2
EXYZ I3 Se3
EADP I3 Se3
FMAP 2
PLAN 20
ACTA
WGHT    0.008200   32.670498
EXTI    0.004921
FVAR       0.06917   0.79542   0.74368   0.46038
TH1   3    1.174859   -0.248973    1.141723    11.00000    0.01634    0.01663 =
         0.02198    0.00020   -0.00133   -0.00148
I1    1    1.328678    0.040763    1.357201    21.00000    0.01991    0.02545 =
         0.02123   -0.00616    0.00159   -0.00456
SE1   4    1.328678    0.040763    1.357201   -21.00000    0.01991    0.02545 =
         0.02123   -0.00616    0.00159   -0.00456
I2    1    0.722521    0.014822    1.107340    31.00000    0.02082    0.02673 =
         0.01760    0.00607    0.00322    0.00621
SE2   4    0.722521    0.014822    1.107340   -31.00000    0.02082    0.02673 =
         0.01760    0.00607    0.00322    0.00621
I3    1    0.823498   -0.294260    0.888990    41.00000    0.03744    0.03581 =
         0.02539   -0.00714    0.00103   -0.00423
SE3   4    0.823498   -0.294260    0.888990   -41.00000    0.03744    0.03581 =
         0.02539   -0.00714    0.00103   -0.00423
O1    2    1.338302   -0.036062    1.233447    11.00000    0.02810    0.02262 =
         0.01940   -0.00570    0.00007   -0.00714
O2    2    1.321963   -0.089525    1.019084    11.00000    0.02630    0.04354 =
         0.01792    0.01081   -0.00103    0.00187
O3    2    1.239062   -0.304574    1.321078    11.00000    0.08143    0.02857 =
         0.01789    0.00451    0.00772   -0.01796
O4    2    1.022458   -0.328484    0.984062    11.00000    0.03645    0.03597 =
         0.02166   -0.00533   -0.00767   -0.00781
O5    2    0.863268   -0.323287    1.176492    11.00000    0.03915    0.06909 =
         0.03860    0.00350    0.01042   -0.02512
O6    2    0.967982   -0.030683    1.108866    11.00000    0.02147    0.03367 =
         0.03961    0.00615    0.00032    0.01209
O7    2    1.496250   -0.317557    1.146755    11.00000    0.04080    0.06286 =
         0.09054    0.05574    0.04302    0.03664
O8    2    1.174694   -0.532287    1.176947    11.00000    0.12642    0.02271 =
         0.06862   -0.02016   -0.03379    0.00499
O9    2    0.640549   -0.334123    0.961907    11.00000    0.05603    0.27334 =
         0.07918    0.04440    0.03870    0.01271

HKLF 4

REM  save      P c          R =  New: P21/c
REM R1 =  0.0390 for    1818 Fo > 4sig(Fo)  and  0.0403 for all    1867 data
REM    122 parameters refined using      0 restraints

END

WGHT      0.0082     32.6639

REM Highest difference peak  3.658,  deepest hole -2.924,  1-sigma level  0.423
Q1    1   0.9132 -0.3304  0.8772  11.00000  0.05    3.66
Q2    1   1.2728 -0.5144  1.1179  11.00000  0.05    2.88
Q3    1   1.1303 -0.2752  1.1860  11.00000  0.05    2.34
Q4    1   0.7868 -0.3514  0.9127  11.00000  0.05    1.50
Q5    1   1.0105 -0.6267  1.2035  11.00000  0.05    1.45
Q6    1   0.5675 -0.2347  0.9120  11.00000  0.05    1.22
Q7    1   1.0076 -0.2584  1.2221  11.00000  0.05    1.20
Q8    1   1.5058 -0.2419  1.0405  11.00000  0.05    1.16
Q9    1   0.9057 -0.2112  1.2396  11.00000  0.05    1.16
Q10   1   0.7081 -0.0441  1.0716  11.00000  0.05    1.13
Q11   1   0.8792 -0.2516  0.8162  11.00000  0.05    1.11
Q12   1   0.6722 -0.2455  0.9997  11.00000  0.05    1.10
Q13   1   0.8983 -0.4277  1.1689  11.00000  0.05    1.09
Q14   1   1.5021  0.0102  1.2727  11.00000  0.05    1.08
Q15   1   1.4944  0.0981  1.2434  11.00000  0.05    1.07
Q16   1   1.4236 -0.0196  1.3206  11.00000  0.05    1.05
Q17   1   1.1735 -0.3206  1.2667  11.00000  0.05    1.03
Q18   1   0.9753 -0.2513  1.2771  11.00000  0.05    1.03
Q19   1   0.8150 -0.3182  0.9364  11.00000  0.05    1.03
Q20   1   1.1365 -0.2032  1.3200  11.00000  0.05    1.02
;
_shelx_res_checksum              9018
_shelx_hkl_file
;
  -1   0   0   53.71    2.96
  -1   0   0   42.71    2.99
   1   0   0   47.06    2.99
   1   0   0   51.78    2.96
  -2   0   0  462.07   30.25
   2   0   0  442.95   30.00
   2   0   0  598.80   30.03
   3   0   0   60.82    3.89
  -3   0   0   58.93    3.87
  -3   0   0   57.93    3.77
  -3   0   0   57.28    3.70
  -3   0   0   65.81    3.76
  -3   0   0   67.22    4.08
   4   0   0   11.66    1.05
   4   0   0   11.55    0.87
  -4   0   0   10.40    1.11
  -4   0   0   12.09    0.81
  -4   0   0   10.50    0.83
  -4   0   0   10.21    0.74
  -4   0   0   10.55    0.97
   5   0   0   11.02    0.82
  -5   0   0    9.85    0.94
  -5   0   0    6.05    1.40
   5   0   0    8.18    1.05
  -5   0   0    8.96    0.63
   5   0   0    7.94    1.02
  -5   0   0    9.31    0.75
  -5   0   0    8.21    1.02
   5   0   0    7.49    1.63
  -6   0   0  385.59   22.24
   6   0   0  408.74   22.56
  -6   0   0  370.86   22.29
  -6   0   0  363.97   22.43
   6   0   0  400.47   23.05
  -6   0   0  340.07   22.16
  -6   0   0  328.96   22.56
   7   0   0   19.51    2.01
  -7   0   0   20.23    1.67
  -7   0   0   17.29    1.92
  -7   0   0   20.02    1.28
  -7   0   0   18.88    1.42
  -7   0   0   19.30    1.35
  -8   0   0  100.71    6.19
  -8   0   0   97.75    6.37
   8   0   0   99.37    6.79
   9   0   0   36.76    5.18
  -9   0   0   44.81    2.92
  -9   0   0   46.30    3.22
  -1  -1   0   70.54    4.23
   1  -1   0   64.02    4.21
  -1  -1   0   72.77    4.26
   1  -1   0   71.09    4.27
  -1  -1   0   71.52    4.22
  -1   1   0   76.70    4.24
  -1   1   0   70.97    4.27
   1   1   0   67.94    4.23
   1   1   0   67.75    4.21
   1   1   0   71.19    4.23
  -1   1   0   66.10    4.21
  -1   1   0   73.93    4.27
  -2  -1   0   83.94    4.84
   2  -1   0   67.87    4.95
   2  -1   0   78.68    4.86
  -2  -1   0   79.01    4.93
  -2  -1   0   78.22    4.88
  -2  -1   0   67.87    4.93
   2  -1   0   80.34    4.96
   2   1   0   82.28    4.89
  -2   1   0   83.26    4.96
   2   1   0   84.15    4.84
  -2   1   0   83.70    4.97
   2   1   0   80.71    4.96
  -2   1   0   91.55    4.89
   2   1   0   88.05    4.92
  -2   1   0   78.51    4.87
  -3  -1   0   12.95    0.96
  -3  -1   0   14.11    0.88
  -3  -1   0   13.47    0.84
   3  -1   0   10.46    1.03
   3  -1   0   13.01    0.89
   3  -1   0   13.98    1.09
   3  -1   0   13.02    1.04
  -3  -1   0   10.89    1.00
  -3  -1   0   12.74    0.91
  -3   1   0   14.13    1.07
   3   1   0   14.22    1.01
  -3   1   0   15.04    0.91
   3   1   0   12.38    1.05
  -3   1   0   11.85    0.89
  -3   1   0   12.70    1.04
  -4  -1   0   76.22    5.18
  -4  -1   0   87.08    5.12
   4  -1   0   79.86    5.14
   4  -1   0   87.67    5.16
  -4  -1   0   85.02    5.06
   4  -1   0   86.58    5.32
  -4  -1   0   89.72    5.15
  -4   1   0   88.83    5.12
  -4   1   0   73.94    5.33
  -4   1   0   78.91    5.28
   4   1   0   73.32    5.33
   4   1   0   88.41    5.30
  -4   1   0   82.69    5.13
   4   1   0   91.48    5.19
   5  -1   0   13.13    0.98
   5  -1   0   16.08    1.28
  -5  -1   0   12.87    0.84
   5  -1   0   13.68    0.98
  -5  -1   0   13.22    1.05
  -5  -1   0   13.02    0.95
  -5  -1   0    9.48    1.16
   5  -1   0   10.63    1.25
  -5  -1   0   12.44    0.98
   5   1   0   10.68    1.23
  -5   1   0   12.64    1.24
   5   1   0   12.56    1.01
  -5   1   0   11.20    1.14
  -5   1   0   11.41    0.93
  -5   1   0   13.03    0.91
   5   1   0   13.32    1.22
   5   1   0    9.74    1.87
  -5   1   0    9.50    1.76
   6  -1   0    3.42    1.34
  -6  -1   0    4.45    0.83
  -6  -1   0    5.26    0.58
  -6  -1   0    6.36    0.79
  -6  -1   0    6.84    0.50
   6  -1   0    6.46    0.98
   6  -1   0    6.43    1.08
  -6  -1   0    5.83    0.63
  -6   1   0    5.16    0.56
  -6   1   0    5.23    0.60
  -6   1   0    5.24    0.80
   6   1   0    5.58    0.92
  -6   1   0    5.88    0.96
  -6   1   0    5.07    0.47
  -7  -1   0   29.42    2.05
  -7  -1   0   32.14    2.13
   7  -1   0   27.15    2.59
  -7  -1   0   31.93    2.27
  -7  -1   0   32.18    1.98
  -7   1   0   30.72    1.98
  -7   1   0   32.14    2.13
  -7   1   0   32.61    2.57
   7   1   0   24.78    3.63
   7   1   0   32.99    2.66
  -7   1   0   29.72    2.39
  -7   1   0   34.71    2.05
  -8  -1   0   22.24    1.73
   8  -1   0   22.33    2.42
  -8  -1   0   23.32    1.96
   8   1   0   18.67    3.57
  -8   1   0   25.82    2.13
  -8   1   0   23.18    1.72
  -8   1   0   26.09    1.64
   8   1   0   26.10    2.42
  -9  -1   0    2.77    0.56
  -9  -1   0    1.76    0.87
   9  -1   0    1.80    1.92
  -9   1   0    2.97    1.00
   9   1   0    3.47    2.31
  -9   1   0    2.27    0.52
   0  -2   0   44.49    2.83
   0  -2   0   41.32    2.79
   0  -2   0   45.91    2.83
   0  -2   0   45.14    2.83
   0  -2   0   50.38    2.88
   0   2   0   45.45    2.82
   0   2   0   48.75    2.85
   0   2   0   44.49    2.83
   0   2   0   50.24    2.88
   0   2   0   50.00    2.80
  -1  -2   0  288.25   16.44
   1  -2   0  280.13   16.43
  -1  -2   0  277.02   16.50
   1  -2   0  284.39   16.45
   1  -2   0  269.93   16.45
  -1  -2   0  268.29   16.40
  -1   2   0  286.17   16.42
  -1   2   0  268.10   16.50
  -1   2   0  262.68   16.60
   1   2   0  258.55   16.42
   1   2   0  278.31   16.40
   2  -2   0    2.09    0.17
   2  -2   0    1.84    0.35
   2  -2   0    2.51    0.33
   2  -2   0    1.74    0.25
  -2  -2   0    2.03    0.21
   2   2   0    2.24    0.26
   2   2   0    2.42    0.23
  -2   2   0    2.65    0.25
  -2   2   0    1.87    0.49
   2   2   0    1.88    0.22
   2   2   0    1.90    0.18
   2   2   0    2.35    0.52
  -2   2   0    1.64    0.29
   2   2   0    1.99    0.27
   3  -2   0  997.31   54.73
  -3  -2   0  849.54   54.67
   3  -2   0  970.24   54.59
   3  -2   0  811.78   54.71
  -3   2   0  820.33   55.20
   3   2   0  887.55   54.67
  -3   2   0  985.52   54.70
   3   2   0  978.78   54.60
   3   2   0  892.53   55.03
   3   2   0  953.20   54.61
   4  -2   0   69.32    4.07
   4  -2   0   56.04    4.28
  -4  -2   0   59.37    4.08
  -4  -2   0   69.27    4.02
   4  -2   0   57.96    4.24
  -4  -2   0   67.97    4.12
   4  -2   0   67.87    4.12
  -4   2   0   63.30    4.25
  -4   2   0   72.20    4.29
   4   2   0   70.20    4.02
   4   2   0   68.59    4.20
  -4   2   0   73.69    4.10
   4   2   0   69.88    4.15
   4   2   0   53.59    4.69
   4   2   0   70.46    4.30
  -4   2   0   62.88    4.07
   5  -2   0  337.26   21.86
   5  -2   0  370.85   21.92
  -5  -2   0  363.12   21.89
   5  -2   0  360.01   22.13
  -5  -2   0  369.16   21.93
  -5  -2   0  361.65   21.86
  -5  -2   0  348.49   21.79
   5   2   0  309.44   22.79
   5   2   0  388.54   22.07
  -5   2   0  359.61   21.87
  -5   2   0  391.40   22.16
   5   2   0  346.84   22.13
  -5   2   0  368.76   22.10
   5   2   0  390.73   21.97
  -5   2   0  400.17   21.88
  -6  -2   0  110.16    7.11
  -6  -2   0  117.63    6.99
   6  -2   0  112.62    7.13
  -6  -2   0  109.34    7.14
  -6  -2   0  109.81    7.05
   6   2   0  127.66    7.35
   6   2   0  105.70    7.40
  -6   2   0  123.09    7.44
  -6   2   0  113.48    7.08
  -6   2   0  119.11    7.37
  -6   2   0  122.86    7.06
  -7  -2   0    1.17    0.53
   7  -2   0    1.39    0.71
  -7  -2   0    1.78    0.28
  -7  -2   0    2.34    0.41
   7  -2   0    1.25    1.31
   7  -2   0    2.30    0.53
  -7  -2   0    2.00    0.44
  -7  -2   0    1.25    0.75
   7   2   0    1.76    1.50
  -7   2   0    2.36    0.40
   7   2   0    1.25    0.71
  -7   2   0    1.62    0.74
  -7   2   0    1.47    0.38
   7   2   0    2.80    0.85
  -7   2   0    1.22    0.80
  -8  -2   0   33.54    2.31
   8  -2   0   31.15    2.98
  -8   2   0   33.29    2.19
  -8   2   0   32.43    2.71
  -8   2   0   33.80    2.29
   8   2   0   30.42    4.35
   8   2   0   38.35    2.99
   0  -3   0    1.02    0.21
   0  -3   0    1.13    0.17
   0  -3   0    0.97    0.13
   0  -3   0    0.97    0.17
   0   3   0    1.12    0.11
   0   3   0    1.16    0.16
   0   3   0    1.13    0.19
   0   3   0    1.31    0.17
  -1  -3   0  182.07   10.39
  -1  -3   0  159.33   10.32
   1  -3   0  164.82   10.38
   1  -3   0  168.68   10.38
  -1  -3   0  194.60   10.45
  -1  -3   0  166.33   10.36
  -1  -3   0  170.38   10.37
  -1   3   0  162.47   10.31
  -1   3   0  180.97   10.53
  -1   3   0  174.45   10.31
  -1   3   0  185.13   10.39
  -1   3   0  161.48   10.40
   1   3   0  173.94   10.34
   1   3   0  172.45   10.35
   1   3   0  175.74   10.37
  -1   3   0  170.15   10.41
   2  -3   0   61.40    3.72
  -2  -3   0   59.34    3.68
   2  -3   0   61.00    3.64
  -2  -3   0   62.70    3.75
   2  -3   0   61.64    3.78
  -2  -3   0   58.89    3.68
   2   3   0   64.49    3.70
   2   3   0   63.84    3.70
   2   3   0   61.96    3.90
  -2   3   0   49.99    3.76
  -2   3   0   62.52    3.75
  -2   3   0   67.28    3.73
   2   3   0   59.89    3.73
   2   3   0   55.40    3.70
  -2   3   0   54.98    4.06
  -2   3   0   61.29    3.65
   3  -3   0    0.73    0.30
   3  -3   0    0.34    0.44
  -3  -3   0    0.29    0.30
  -3  -3   0    0.87    0.17
  -3  -3   0    0.37    0.17
  -3  -3   0    0.39    0.14
   3  -3   0    0.56    0.20
   3  -3   0    0.80    0.12
   3   3   0    0.49    0.16
  -3   3   0    0.83    0.15
   3   3   0    0.24    0.23
   3   3   0    0.19    0.16
  -3   3   0    0.44    0.17
  -3   3   0    0.28    0.27
   3   3   0    0.48    0.31
   3   3   0    0.70    0.19
  -3   3   0    0.42    0.18
   4  -3   0   44.57    2.95
  -4  -3   0   40.66    2.69
   4  -3   0   45.30    2.70
  -4  -3   0   46.94    2.77
  -4  -3   0   42.29    2.75
   4  -3   0   36.60    2.94
   4  -3   0   45.40    2.80
  -4  -3   0   38.89    2.88
   4   3   0   45.78    2.83
  -4   3   0   39.67    2.72
   4   3   0   49.06    2.83
   4   3   0   41.28    3.31
   4   3   0   48.94    2.93
  -4   3   0   43.78    2.94
   4   3   0   45.92    2.69
  -4   3   0   40.93    3.62
   5  -3   0  103.94    6.06
   5  -3   0   90.68    6.34
   5  -3   0  103.91    6.16
   5  -3   0   85.08    6.37
  -5  -3   0  104.74    6.13
  -5  -3   0   96.36    6.02
  -5  -3   0   96.19    6.10
   5   3   0   92.28    6.96
   5   3   0  110.06    6.03
  -5   3   0   90.58    6.31
  -5   3   0  112.00    6.11
   5   3   0  108.53    6.26
  -5   3   0   92.37    6.07
  -6  -3   0    7.19    0.77
  -6  -3   0    7.85    1.12
   6  -3   0    6.72    1.23
   6  -3   0    8.92    0.94
  -6  -3   0    8.85    0.83
  -6  -3   0    7.63    0.86
  -6  -3   0    8.18    0.66
  -6   3   0    9.27    1.16
   6   3   0   10.77    1.19
   6   3   0    6.82    1.74
   6   3   0    8.12    1.11
  -6   3   0    7.42    1.12
  -6   3   0    9.10    0.77
  -6   3   0    9.14    0.77
  -7  -3   0  103.38    6.30
  -7  -3   0   96.55    6.32
  -7  -3   0  101.67    6.16
   7  -3   0  106.69    6.39
  -7   3   0  102.55    6.22
   7   3   0  103.29    6.70
   7   3   0  106.52    6.59
  -7   3   0   98.16    6.63
   7   3   0   97.17    7.88
  -7   3   0   96.36    6.65
  -7   3   0  100.50    6.27
   8  -3   0    6.08    0.85
  -8  -3   0    5.43    0.86
   8  -3   0    5.20    1.35
  -8  -3   0    5.03    0.69
  -8   3   0    5.43    1.17
  -8   3   0    4.99    0.74
   8   3   0    5.29    2.25
   0  -4   0  817.55   47.40
   0   4   0  741.47   47.39
   0   4   0  822.88   47.37
  -1  -4   0   32.50    2.00
  -1  -4   0   28.36    1.99
  -1  -4   0   31.10    2.03
  -1  -4   0   36.28    2.07
  -1  -4   0   33.50    2.01
   1  -4   0   31.31    2.02
   1  -4   0   31.79    2.03
   1  -4   0   29.72    2.01
  -1  -4   0   31.93    1.93
   1   4   0   30.41    1.97
  -1   4   0   31.26    2.12
   1   4   0   32.68    1.95
   1   4   0   29.95    1.99
   1   4   0   29.40    2.00
  -1   4   0   31.22    2.05
  -1   4   0   29.90    1.91
  -1   4   0   33.39    2.01
  -1   4   0   32.77    1.92
  -2  -4   0  353.00   22.17
  -2  -4   0  354.74   22.21
   2  -4   0  381.95   22.25
  -2  -4   0  359.46   22.25
  -2  -4   0  375.22   22.27
  -2  -4   0  312.51   22.36
   2  -4   0  373.46   22.30
   2  -4   0  393.71   22.30
  -2   4   0  326.35   22.30
   2   4   0  369.89   22.23
  -2   4   0  397.24   22.60
  -2   4   0  423.66   22.26
  -2   4   0  365.32   22.15
  -2   4   0  382.79   22.34
   2   4   0  392.81   22.21
  -2   4   0  367.21   22.15
   2   4   0  382.44   22.20
  -3  -4   0   81.01    5.24
   3  -4   0   81.71    5.38
   3  -4   0   80.40    5.18
   3  -4   0   86.82    5.43
  -3  -4   0   82.21    5.24
   3  -4   0   82.25    5.30
   3   4   0   82.94    5.31
  -3   4   0   83.27    5.21
  -3   4   0   92.39    5.35
   3   4   0   88.95    5.29
  -3   4   0   84.14    5.88
   3   4   0   88.06    5.23
   3   4   0   98.01    5.54
  -3   4   0   96.47    5.32
  -3   4   0   82.70    5.40
   3   4   0   86.08    5.27
   4  -4   0    2.90    0.42
  -4  -4   0    2.35    0.33
   4  -4   0    2.20    0.26
   4  -4   0    1.96    0.49
  -4  -4   0    2.02    0.41
  -4  -4   0    1.29    0.58
   4  -4   0    1.75    0.46
   4   4   0    2.31    0.60
   4   4   0    2.21    0.30
  -4   4   0    2.17    0.41
  -4   4   0    1.68    0.49
   4   4   0    2.83    0.48
  -4   4   0    1.28    0.85
   4   4   0    1.79    0.41
   4   4   0    1.30    0.34
  -4   4   0    1.70    0.26
   4   4   0    1.58    0.32
   5  -4   0   16.60    1.35
   5  -4   0   18.26    1.19
   5  -4   0   15.10    1.60
  -5  -4   0   16.42    1.21
  -5  -4   0   15.06    1.47
  -5  -4   0   16.34    1.26
   5   4   0   18.75    1.45
  -5   4   0   19.24    1.48
  -5   4   0   16.14    1.23
   5   4   0   18.35    1.52
   5   4   0   19.25    1.20
   5   4   0   16.50    1.92
  -5   4   0   21.25    1.33
  -5   4   0   16.88    1.57
   5   4   0   19.75    1.49
  -6  -4   0  117.36    7.65
  -6  -4   0  126.75    7.64
  -6  -4   0  122.67    7.56
   6  -4   0  120.48    7.74
  -6   4   0  112.51    7.94
   6   4   0  113.09    7.85
   6   4   0  131.54    7.86
   6   4   0  129.55    7.93
   6   4   0  131.92    8.76
  -6   4   0  136.86    7.94
  -6   4   0  117.73    7.62
  -6   4   0  134.11    7.65
  -7  -4   0   17.79    1.19
   7  -4   0   16.22    1.96
   7  -4   0   17.27    1.57
  -7  -4   0   16.48    1.33
   7   4   0   14.97    1.82
   7   4   0   17.25    1.73
  -7   4   0   15.91    1.29
   7   4   0   16.90    2.85
  -7   4   0   15.37    1.84
   8  -4   0   58.30    3.68
  -8  -4   0   49.62    3.39
  -8   4   0   50.44    3.96
  -8   4   0   48.37    3.34
   8   4   0   53.84    5.34
   8   4   0   49.86    4.00
   0  -5   0    1.18    0.35
   0  -5   0    1.66    0.23
   0  -5   0    1.24    0.25
   0  -5   0    1.41    0.26
   0  -5   0    1.50    0.16
   0  -5   0    0.84    0.22
   0   5   0    1.68    0.30
   0   5   0    1.61    0.17
  -1  -5   0   86.61    5.27
  -1  -5   0   90.09    5.31
   1  -5   0   82.14    5.28
  -1  -5   0   88.87    5.30
   1  -5   0   83.58    5.28
  -1  -5   0   87.92    5.29
  -1  -5   0   87.84    5.26
  -1  -5   0   87.09    5.18
   1  -5   0   78.88    5.17
   1  -5   0   82.02    5.30
  -1   5   0   94.52    5.39
   1   5   0   88.04    5.24
  -1   5   0   84.16    5.32
   1   5   0   87.68    5.20
   1   5   0   83.01    5.27
  -1   5   0   88.72    5.29
  -1   5   0   86.67    5.26
  -1   5   0   79.24    5.19
   2  -5   0  210.82   12.20
   2  -5   0  209.36   12.21
  -2  -5   0  197.00   12.06
   2  -5   0  189.11   12.15
  -2  -5   0  195.23   12.13
  -2  -5   0  206.22   12.18
  -2  -5   0  175.83   12.26
  -2  -5   0  205.98   12.19
  -2   5   0  211.95   12.17
   2   5   0  188.14   12.13
   2   5   0  202.17   12.14
  -2   5   0  220.05   12.45
   2   5   0  207.23   12.10
  -2   5   0  191.00   12.23
   2   5   0  210.66   12.10
  -2   5   0  203.97   12.03
  -2   5   0  194.92   12.03
  -3  -5   0   15.21    1.15
  -3  -5   0   17.47    1.11
  -3  -5   0   17.50    1.25
   3  -5   0   16.76    1.32
   3  -5   0   14.53    1.20
  -3   5   0   19.07    1.22
  -3   5   0   16.81    1.35
   3   5   0   15.57    1.15
   3   5   0   13.61    1.16
   3   5   0   17.05    1.17
   3   5   0   17.41    1.20
  -3   5   0   15.47    1.05
   3   5   0   15.08    1.10
  -3   5   0   17.94    1.23
  -3   5   0   17.60    1.72
  -3   5   0   15.71    1.06
  -4  -5   0  183.31   11.56
   4  -5   0  175.95   11.79
  -4  -5   0  181.21   11.72
   4  -5   0  192.61   11.48
   4  -5   0  183.45   11.64
  -4  -5   0  186.51   11.55
  -4   5   0  190.74   11.79
  -4   5   0  200.19   12.51
   4   5   0  180.16   11.63
  -4   5   0  193.32   11.52
   4   5   0  189.49   11.60
  -4   5   0  224.69   11.65
  -4   5   0  201.75   11.70
   4   5   0  188.94   11.66
   4   5   0  199.31   11.53
   5  -5   0   10.70    0.76
  -5  -5   0    8.13    1.08
  -5  -5   0    9.95    0.84
   5  -5   0    9.36    1.23
  -5  -5   0    8.77    1.03
   5  -5   0   10.79    1.04
   5   5   0    9.38    1.08
  -5   5   0   10.09    0.84
   5   5   0   11.68    1.07
  -5   5   0   10.16    1.07
   5   5   0   12.09    1.10
  -5   5   0   10.31    1.30
   5   5   0   13.46    1.53
   5   5   0   11.18    0.82
  -5   5   0   11.98    0.98
   6  -5   0    2.75    0.62
  -6  -5   0    3.07    0.48
   6  -5   0    1.64    1.25
   6  -5   0    2.51    0.85
  -6  -5   0    2.01    0.76
  -6  -5   0    3.76    0.52
  -6   5   0    1.54    0.58
  -6   5   0    2.72    0.46
   6   5   0    1.06    0.77
   6   5   0    3.33    0.75
  -6   5   0    1.65    0.79
   6   5   0    1.91    0.99
   6   5   0    3.59    0.49
   6   5   0    2.50    0.62
   7  -5   0    7.81    1.06
   7  -5   0    6.20    1.21
  -7  -5   0    6.53    0.74
  -7  -5   0    7.08    0.83
  -7   5   0    6.37    0.78
   7   5   0    6.92    1.20
   7   5   0    7.40    1.88
  -7   5   0    6.01    1.32
   7   5   0    9.28    1.29
  -8  -5   0   41.22    2.88
  -8   5   0   40.73    3.62
  -8   5   0   41.43    2.83
   8   5   0   47.92    4.84
   0  -6   0   21.07    1.37
   0  -6   0   21.26    1.50
   0  -6   0   18.82    1.69
   0  -6   0   21.07    1.52
   0  -6   0   22.27    1.47
   0  -6   0   19.43    1.50
   0   6   0   25.06    1.39
   0   6   0   24.00    1.55
   0   6   0   24.31    1.48
  -1  -6   0   40.14    2.33
   1  -6   0   34.23    2.29
  -1  -6   0   35.72    2.33
  -1  -6   0   32.57    2.12
  -1  -6   0   35.43    2.29
  -1  -6   0   33.69    2.25
  -1  -6   0   34.76    2.26
   1  -6   0   32.06    2.12
   1  -6   0   34.44    2.26
  -1  -6   0   33.93    2.23
   1  -6   0   32.28    2.26
  -1   6   0   36.31    2.33
   1   6   0   28.74    2.23
   1   6   0   33.38    2.20
  -1   6   0   36.03    2.27
  -1   6   0   35.63    2.12
  -1   6   0   34.89    2.23
  -1   6   0   33.79    2.32
   1   6   0   36.55    2.16
  -2  -6   0   13.04    0.95
  -2  -6   0   12.48    0.95
  -2  -6   0   11.48    0.93
   2  -6   0   11.86    1.03
   2  -6   0   12.12    1.00
   2  -6   0   10.56    0.96
  -2  -6   0   11.47    1.00
  -2  -6   0   11.99    0.82
  -2   6   0   12.18    0.79
   2   6   0   10.55    0.93
  -2   6   0   13.10    1.15
  -2   6   0   11.58    0.79
  -2   6   0   12.75    0.96
  -2   6   0   12.88    0.96
  -2   6   0   11.33    1.07
   2   6   0   13.17    0.89
   2   6   0   12.34    0.93
   2   6   0   11.78    0.88
  -3  -6   0  178.62   10.76
   3  -6   0  169.48   10.73
  -3  -6   0  171.02   10.60
  -3  -6   0  168.19   10.68
   3  -6   0  175.94   10.81
  -3   6   0  183.04   10.74
   3   6   0  177.29   10.63
   3   6   0  169.06   10.69
  -3   6   0  173.43   10.85
   3   6   0  173.01   10.66
  -3   6   0  186.39   11.17
   3   6   0  170.32   10.68
  -3   6   0  182.92   10.55
  -3   6   0  169.29   10.56
   3   6   0  181.70   10.66
  -3   6   0  186.47   10.73
   4  -6   0   40.43    2.74
  -4  -6   0   39.02    2.58
   4  -6   0   36.88    2.86
  -4  -6   0   38.16    2.63
  -4  -6   0   39.66    2.79
   4   6   0   43.06    2.72
   4   6   0   39.93    2.65
  -4   6   0   41.24    2.51
  -4   6   0   45.31    2.76
   4   6   0   38.36    2.68
  -4   6   0   38.21    3.41
  -4   6   0   40.94    2.54
   4   6   0   44.15    2.60
  -5  -6   0   76.00    5.07
  -5  -6   0   76.29    5.32
   5  -6   0   75.28    5.21
  -5  -6   0   80.30    5.07
   5  -6   0   71.30    5.39
   5   6   0   88.63    5.25
  -5   6   0   82.15    5.03
   5   6   0   83.81    5.19
  -5   6   0   83.86    5.44
  -5   6   0   82.47    5.24
  -5   6   0   82.47    4.98
   5   6   0   93.70    5.15
   5   6   0   84.80    5.19
   6  -6   0   73.58    4.98
  -6  -6   0   79.05    4.80
   6  -6   0   67.47    5.27
  -6  -6   0   77.71    4.82
   6   6   0   83.32    5.03
  -6   6   0   75.04    4.78
  -6   6   0   79.56    5.28
  -7  -6   0    3.06    0.53
   7  -6   0    2.01    1.78
   7  -6   0    2.40    0.85
  -7  -6   0    2.80    0.56
   7  -6   0    1.87    1.27
   7   6   0    2.25    1.23
  -7   6   0    2.77    1.13
  -7   6   0    1.85    0.49
   7   6   0    1.98    1.26
   0  -7   0    0.56    0.44
   0  -7   0    0.74    0.14
   0  -7   0    0.67    0.25
   0  -7   0    0.73    0.23
   0  -7   0    0.30    0.29
   0  -7   0    0.71    0.35
   0  -7   0    1.22    0.34
   0   7   0    0.69    0.16
   0   7   0    0.72    0.34
  -1  -7   0  176.71   10.86
  -1  -7   0  205.22   10.99
  -1  -7   0  176.68   10.89
   1  -7   0  178.22   10.86
  -1  -7   0  170.86   10.88
   1  -7   0  185.93   11.06
   1  -7   0  175.34   10.90
   1  -7   0  163.72   10.89
  -1  -7   0  174.94   10.92
  -1  -7   0  174.16   11.01
  -1  -7   0  178.58   10.74
  -1   7   0  169.33   10.72
   1   7   0  175.81   10.77
   1   7   0  177.23   10.89
  -1   7   0  180.10   10.73
  -1   7   0  183.07   10.97
  -1   7   0  196.83   10.96
  -2  -7   0   55.00    3.60
  -2  -7   0   53.66    3.76
  -2  -7   0   61.27    3.77
   2  -7   0   55.99    3.79
   2  -7   0   57.50    3.79
  -2  -7   0   59.85    3.82
  -2  -7   0   52.79    3.88
  -2  -7   0   59.36    3.77
  -2  -7   0   60.46    3.76
  -2   7   0   62.21    3.59
   2   7   0   60.77    3.68
  -2   7   0   64.06    3.94
  -2   7   0   64.87    3.80
  -2   7   0   58.67    3.92
  -2   7   0   62.74    3.58
   2   7   0   53.21    3.73
  -3  -7   0    0.57    0.51
  -3  -7   0    1.33    0.37
   3  -7   0    1.08    0.43
   3  -7   0    0.81    0.80
  -3  -7   0    1.18    0.38
   3  -7   0    1.30    0.42
  -3  -7   0    1.09    0.31
  -3  -7   0    1.39    0.25
   3   7   0    1.16    0.34
  -3   7   0    1.17    0.21
   3   7   0    1.24    0.35
   3   7   0    0.99    0.38
  -3   7   0    1.49    0.58
  -3   7   0    1.62    0.20
  -3   7   0    1.12    0.33
  -3   7   0    1.78    0.60
  -4  -7   0   56.88    3.59
   4  -7   0   57.02    3.92
  -4  -7   0   56.56    3.70
   4  -7   0   52.33    3.77
  -4  -7   0   59.34    3.85
   4   7   0   59.13    3.74
  -4   7   0   64.56    3.81
  -4   7   0   57.91    3.51
  -4   7   0   56.90    3.97
   4   7   0   55.60    3.71
   4   7   0   55.18    3.69
  -4   7   0   57.17    3.56
   5  -7   0  140.04    8.61
  -5  -7   0  133.32    8.40
  -5  -7   0  118.43    8.85
   5  -7   0  130.11    8.79
  -5   7   0  133.74    8.35
   5   7   0  138.96    8.53
  -5   7   0  135.38    8.78
   5   7   0  159.27    8.62
   5   7   0  158.69    8.98
  -5   7   0  130.20    8.33
  -6  -7   0   10.76    1.01
   6  -7   0   11.23    1.66
  -6  -7   0    9.62    1.07
   6  -7   0   11.74    1.45
   6   7   0    9.28    1.24
  -6   7   0   11.11    0.98
  -6   7   0   12.82    1.79
  -7  -7   0  100.11    6.36
   7  -7   0  101.46    6.63
  -7   7   0  109.74    6.64
  -7   7   0   93.23    6.93
   0  -8   0   61.43    3.93
   0  -8   0   59.14    3.73
   0  -8   0   57.57    3.93
   0  -8   0   64.86    3.90
   0   8   0   63.13    3.99
   0   8   0   61.20    3.76
  -1  -8   0   15.46    1.26
  -1  -8   0   12.73    1.20
   1  -8   0   14.27    1.10
   1  -8   0   14.07    1.16
  -1  -8   0   14.08    1.13
   1  -8   0   14.07    1.22
  -1  -8   0   12.48    1.38
  -1  -8   0   13.52    1.16
  -1  -8   0   13.83    0.95
   1   8   0   15.07    1.03
  -1   8   0   14.82    0.94
   1   8   0   15.47    1.21
  -1   8   0   15.08    0.97
  -1   8   0   15.00    1.46
   2  -8   0   37.92    2.64
  -2  -8   0   37.81    2.67
  -2  -8   0   35.49    2.59
  -2  -8   0   34.49    2.73
  -2  -8   0   38.84    2.59
  -2  -8   0   38.56    2.40
  -2  -8   0   38.12    2.60
   2  -8   0   40.62    2.66
  -2   8   0   37.74    2.37
  -2   8   0   38.82    2.38
  -2   8   0   35.50    2.76
  -2   8   0   42.15    2.74
  -2   8   0   39.44    2.63
   2   8   0   41.87    2.62
  -3  -8   0   52.70    3.63
  -3  -8   0   52.69    3.61
  -3  -8   0   54.93    3.60
  -3  -8   0   56.65    3.68
   3  -8   0   53.12    3.72
   3  -8   0   52.74    3.68
  -3   8   0   58.63    3.86
   3   8   0   57.15    3.62
  -3   8   0   57.96    3.41
  -3   8   0   56.66    3.39
   4  -8   0    0.49    0.59
  -4  -8   0    1.13    0.48
  -4  -8   0    0.41    0.24
   4  -8   0   -0.69    0.47
   4  -8   0    1.15    1.18
  -4  -8   0    0.74    0.37
  -4   8   0    0.50    0.23
   4   8   0   -0.25    0.48
  -4   8   0   -0.84    0.63
   4   8   0    0.19    0.38
  -5  -8   0   15.78    1.18
  -5  -8   0   14.10    1.36
   5  -8   0   12.84    1.68
   5  -8   0   15.76    1.62
   5   8   0   15.15    1.51
  -5   8   0   19.01    1.95
  -5   8   0   14.01    1.13
  -6  -8   0   11.90    1.16
   6  -8   0   12.86    1.76
  -6  -8   0   13.23    1.31
  -6   8   0   16.06    2.14
   0  -9   0    0.39    0.31
   0  -9   0    0.55    0.81
   0  -9   0   -0.14    0.38
   0  -9   0    0.05    0.35
   0  -9   0    0.13    0.16
   0   9   0    0.46    0.25
   0   9   0    0.21    0.51
  -1  -9   0   91.11    5.53
   1  -9   0   89.64    5.58
  -1  -9   0   86.16    5.58
  -1  -9   0   87.18    5.32
  -1  -9   0   90.58    5.57
  -1  -9   0   75.25    5.81
   1  -9   0   85.75    5.60
   1  -9   0   84.87    5.49
  -1   9   0   88.89    5.34
   1   9   0   90.26    5.61
  -1   9   0   92.71    5.71
  -1   9   0   89.47    5.31
  -2  -9   0   96.43    6.15
  -2  -9   0   99.73    5.84
   2  -9   0   88.40    5.85
   2  -9   0   91.77    5.86
  -2  -9   0   96.06    5.85
   2  -9   0   80.07    5.73
  -2  -9   0   90.27    5.65
  -2  -9   0   85.80    5.94
  -2   9   0   85.89    5.99
  -2   9   0   99.41    5.56
  -2   9   0   93.80    5.89
  -3  -9   0    9.67    0.80
  -3  -9   0    8.62    1.14
   3  -9   0   11.26    1.27
  -3  -9   0   11.81    1.18
   3  -9   0    8.80    1.21
   3   9   0   11.11    1.68
  -3   9   0   11.19    1.53
  -3   9   0   10.92    0.79
   4  -9   0   83.47    5.72
  -4  -9   0   87.26    5.55
   4  -9   0   82.68    5.60
  -4  -9   0   87.71    5.29
  -4  -9   0   81.55    5.49
  -4   9   0   86.84    5.82
  -4   9   0   88.93    5.29
   5  -9   0    8.40    1.28
  -5  -9   0    8.10    1.18
  -5  -9   0    7.65    0.84
  -5   9   0    6.70    1.46
   0 -10   0   45.62    3.01
   0 -10   0   36.90    3.02
   0 -10   0   45.16    2.71
   0  10   0   43.83    3.17
   1 -10   0    3.87    0.79
   1 -10   0    3.28    0.67
  -1 -10   0    5.00    0.87
  -1 -10   0    3.81    0.53
   1 -10   0    1.92    1.35
  -1 -10   0    4.16    0.81
  -1  10   0    4.76    0.43
  -1  10   0    1.85    0.87
   1  10   0    3.56    0.83
   2 -10   0    9.09    1.22
  -2 -10   0    9.63    1.11
   2 -10   0    6.52    1.05
  -2 -10   0    7.59    1.05
  -2 -10   0    8.19    0.72
  -2  10   0    8.93    0.71
   2  10   0   11.69    1.31
  -2  10   0   10.89    1.43
   3 -10   0   15.89    1.78
  -3 -10   0   17.78    1.69
   3 -10   0   16.56    1.75
  -3 -10   0   15.59    1.21
  -3  10   0   18.95    2.06
   3  10   0   18.07    1.70
  -4 -10   0   11.71    1.53
   4 -10   0   13.11    1.72
  -4 -10   0   12.05    1.03
  -4  10   0   15.55    2.05
   4  10   0   13.04    1.77
   0 -11   0    0.17    0.69
   0  11   0   -0.13    0.87
  -1 -11   0   34.19    2.11
   1 -11   0   30.23    2.55
  -1 -11   0   31.52    2.62
   1  11   0   36.01    2.74
  -1  11   0   28.51    2.89
  -9   0   1    0.36    0.41
   9   0  -1   -0.68    1.92
  -9   0   1   -0.08    0.78
  -8   0   1    0.68    0.28
   8   0  -1    0.99    0.83
  -8   0   1   -0.02    0.33
   8   0  -1   -0.19    1.66
  -8   0   1    0.90    0.65
  -7   0   1    0.09    0.27
  -7   0   1    0.20    0.69
  -7   0   1    0.06    0.19
  -7   0   1   -0.04    0.31
   7   0  -1    0.38    0.60
   7   0  -1   -0.47    0.89
   7   0  -1    0.53    1.20
  -7   0   1    0.25    0.47
  -6   0   1    1.49    0.55
   6   0  -1    0.65    0.54
  -6   0   1    1.16    0.33
  -6   0   1    1.10    0.23
  -6   0   1    0.73    0.44
   6   0  -1    1.03    0.55
  -6   0   1    1.69    0.34
   6   0  -1    0.97    1.00
  -5   0   1    0.16    0.14
   5   0  -1    0.25    0.22
  -5   0   1    0.26    0.21
  -5   0   1    0.58    0.66
  -5   0   1    0.16    0.34
   5   0  -1   -0.21    0.73
   5   0  -1    0.30    0.41
   5   0  -1   -0.28    0.31
  -5   0   1    0.40    0.39
  -5   0   1    0.19    0.21
  -4   0   1    1.08    0.19
  -4   0   1    1.19    0.28
   4   0  -1    0.72    0.37
   4   0  -1   -0.02    0.37
   4   0  -1    0.89    0.22
  -4   0   1    0.99    0.38
   4   0  -1    1.04    0.64
  -4   0   1    1.36    0.35
  -4   0   1    1.72    0.28
  -4   0   1    0.51    0.49
   3   0  -1    0.35    0.25
   3   0  -1    0.25    0.19
  -3   0   1    0.15    0.23
   3   0  -1    0.19    0.18
  -3   0   1    0.21    0.13
  -3   0   1    0.16    0.15
   3   0  -1    0.12    0.11
  -3   0   1    0.25    0.21
   3   0  -1   -0.16    0.40
  -3   0   1   -0.03    0.28
  -2   0   1    0.06    0.13
  -2   0   1    0.19    0.13
   2   0  -1   -0.01    0.11
  -2   0   1    0.05    0.16
   2   0  -1    0.17    0.15
   2   0  -1    0.07    0.11
   2   0  -1   -0.11    0.22
  -2   0   1    0.36    0.11
  -2   0   1    0.20    0.11
   1   0  -1    0.07    0.04
   1   0  -1    0.00    0.05
   1   0  -1    0.01    0.05
  -1   0   1    0.06    0.09
   1   0  -1    0.18    0.11
  -1   0   1    0.00    0.03
  -1   0   1    0.00    0.02
  -1   0   1    0.09    0.07
  -1   0   1    0.08    0.06
  -1   0  -1   -0.01    0.07
  -1   0  -1    0.31    0.15
  -1   0  -1    0.12    0.04
   1   0   1    0.20    0.10
   1   0   1    0.13    0.04
   1   0   1    0.03    0.09
   1   0   1    0.04    0.06
  -2   0  -1    0.46    0.17
  -2   0  -1    0.60    0.15
  -2   0  -1    0.63    0.25
   2   0   1    0.64    0.10
  -2   0  -1    0.17    0.23
   2   0   1    0.64    0.21
   2   0   1    0.45    0.33
  -2   0  -1    0.67    0.10
   2   0   1    0.48    0.16
   2   0   1    0.93    0.15
   3   0   1    0.28    0.22
   3   0   1    0.00    0.31
   3   0   1    0.50    0.16
  -3   0  -1    0.37    0.21
  -3   0  -1    0.15    0.06
   3   0   1    0.31    0.27
  -3   0  -1    0.26    0.14
  -3   0  -1    0.26    0.23
  -3   0  -1    0.29    0.10
  -3   0  -1   -0.01    0.37
  -4   0  -1    0.06    0.32
  -4   0  -1    0.41    0.56
   4   0   1    0.18    0.27
   4   0   1    1.57    0.45
   4   0   1    1.20    0.28
  -4   0  -1    0.58    0.12
  -4   0  -1    0.71    0.15
  -4   0  -1    1.14    0.35
   4   0   1    0.43    0.56
  -4   0  -1    0.80    0.21
  -5   0  -1    0.18    0.33
  -5   0  -1    0.20    0.71
  -5   0  -1    0.02    0.12
  -5   0  -1    0.07    0.15
  -5   0  -1    0.25    0.20
   5   0   1    0.99    0.48
  -5   0  -1   -0.08    0.38
   5   0   1    0.19    0.42
   5   0   1   -0.43    0.57
   5   0   1   -0.31    0.24
  -6   0  -1    0.89    0.51
  -6   0  -1    0.55    0.27
  -6   0  -1   -0.11    0.41
  -6   0  -1    0.58    0.17
   6   0   1    0.30    0.66
   6   0   1    0.58    0.93
  -6   0  -1    0.40    0.24
   6   0   1    1.21    0.59
   7   0   1   -0.63    1.15
  -7   0  -1   -0.19    0.52
   7   0   1    0.20    0.66
  -7   0  -1    0.32    0.21
  -7   0  -1    0.10    0.29
  -7   0  -1   -0.50    0.69
  -7   0  -1   -0.08    0.17
   8   0   1   -0.39    1.17
  -8   0  -1    1.27    0.75
   8   0   1    0.62    1.50
  -8   0  -1    0.80    0.39
   9   0   1    0.20    2.12
  -9   0  -1    0.55    0.85
  -9   0  -1   -0.02    0.44
  -9  -1   1   21.20    1.85
   9  -1  -1   16.04    3.96
  -9  -1   1   19.50    1.53
   9   1  -1   18.19    4.12
  -9   1   1   17.27    1.99
  -9   1   1   18.35    1.51
  -8  -1   1    7.43    0.87
  -8  -1   1    9.41    1.14
  -8  -1   1    7.26    0.70
   8  -1  -1    4.36    2.17
   8  -1  -1    8.23    1.60
   8   1  -1    8.08    2.38
  -8   1   1    9.08    0.89
  -8   1   1    8.17    0.71
   8   1  -1   11.26    1.62
  -8   1   1    7.96    1.14
  -7  -1   1   69.43    4.35
  -7  -1   1   56.02    4.59
   7  -1  -1   61.96    4.71
  -7  -1   1   63.61    4.21
  -7  -1   1   72.39    4.14
  -7  -1   1   71.96    4.28
  -7   1   1   67.53    4.26
  -7   1   1   70.05    4.49
  -7   1   1   66.33    4.65
   7   1  -1   67.99    4.74
  -7   1   1   66.68    4.14
   7   1  -1   77.46    4.57
   7   1  -1   58.60    5.78
  -7   1   1   69.73    4.22
  -6  -1   1   20.29    1.45
  -6  -1   1   21.43    1.55
  -6  -1   1   21.42    1.45
   6  -1  -1   16.98    1.79
  -6  -1   1   20.38    1.33
   6  -1  -1   20.03    1.81
  -6  -1   1   17.42    1.75
  -6   1   1   18.68    1.43
   6   1  -1   18.82    1.82
  -6   1   1   20.13    1.68
   6   1  -1   15.80    2.69
  -6   1   1   20.90    1.34
   6   1  -1   23.67    1.75
  -6   1   1   22.98    1.44
  -6   1   1   20.89    1.83
  -5  -1   1   96.02    5.91
  -5  -1   1  100.42    5.98
   5  -1  -1  102.96    5.97
  -5  -1   1   98.79    5.93
   5  -1  -1   91.14    6.09
  -5  -1   1   78.15    6.10
   5  -1  -1   93.01    5.93
  -5  -1   1  104.50    5.84
   5   1  -1  105.25    6.08
  -5   1   1   92.71    5.92
  -5   1   1  101.23    5.93
   5   1  -1   89.56    6.19
   5   1  -1   80.85    6.87
  -5   1   1   95.75    6.18
  -5   1   1   98.25    6.09
   5   1  -1  109.55    6.01
   4  -1  -1  128.21    7.37
  -4  -1   1  126.32    7.25
  -4  -1   1  100.43    7.46
   4  -1  -1  119.96    7.31
  -4  -1   1  136.30    7.35
   4  -1  -1  108.24    7.43
  -4  -1   1  122.22    7.36
  -4   1   1  121.50    7.31
  -4   1   1  124.89    7.45
  -4   1   1  124.23    7.53
   4   1  -1  109.68    7.51
   3  -1  -1   42.77    2.43
  -3  -1   1   41.82    2.38
  -3  -1   1   36.56    2.38
   3  -1  -1   32.59    2.50
  -3  -1   1   33.81    2.43
   3  -1  -1   39.63    2.36
  -3  -1   1   31.02    2.46
  -3  -1   1   39.27    2.33
   3  -1  -1   32.33    2.51
   3   1  -1   41.06    2.41
  -3   1   1   41.08    2.46
  -3   1   1   37.01    2.35
   3   1  -1   39.26    2.44
   3   1  -1   36.00    2.52
   3   1  -1   31.97    2.81
  -3   1   1   41.49    2.53
  -3   1   1   42.24    2.41
   2  -1  -1  133.40    7.36
   2  -1  -1  106.56    7.39
  -2  -1   1  108.38    7.33
  -2  -1   1  122.26    7.30
  -2  -1   1  122.30    7.31
   2  -1  -1  124.26    7.30
   2  -1  -1  133.07    7.37
  -2   1   1  129.44    7.41
  -2   1   1  139.14    7.37
   2   1  -1  110.51    7.39
   2   1  -1  116.55    7.34
   2   1  -1  128.15    7.35
  -2   1   1  123.17    7.30
   2   1  -1  120.72    7.30
   2   1  -1  106.52    7.57
   1  -1  -1    0.18    0.06
   1  -1  -1    0.15    0.08
   1  -1  -1    0.29    0.04
  -1  -1   1    0.13    0.08
   1  -1  -1    0.02    0.17
  -1  -1   1    0.12    0.08
  -1   1   1    0.14    0.06
   1   1  -1    0.07    0.03
  -1   1   1    0.03    0.13
   1   1  -1    0.27    0.07
   1   1  -1    0.18    0.05
   1   1  -1    0.09    0.03
  -1   1   1    0.06    0.07
  -1   1   1    0.13    0.04
   1   1  -1    0.18    0.10
  -1   1   1    0.20    0.06
   0  -1   1    0.24    0.06
   0  -1   1    0.13    0.05
   0  -1  -1    0.17    0.05
   0  -1   1    0.21    0.04
   0   1   1    0.19    0.05
   0   1  -1    0.15    0.03
   0   1   1    0.16    0.04
   1  -1   1    3.74    0.26
   1  -1   1    3.05    0.31
   1  -1   1    2.93    0.46
  -1  -1  -1    3.78    0.29
  -1  -1  -1    4.41    0.29
  -1  -1  -1    3.92    0.30
   1   1   1    3.79    0.25
   1   1   1    3.92    0.30
  -1   1  -1    4.03    0.32
  -1   1  -1    4.36    0.45
  -1   1  -1    4.15    0.27
   1   1   1    3.99    0.27
  -2  -1  -1   15.47    1.01
   2  -1   1   14.99    1.02
   2  -1   1   13.40    1.13
  -2  -1  -1   13.98    1.08
   2  -1   1   16.77    1.00
   2  -1   1   14.19    1.12
  -2   1  -1   17.92    1.00
  -2   1  -1   15.16    1.02
   2   1   1   17.83    1.09
  -2   1  -1   13.82    1.15
  -2   1  -1   15.64    1.11
   2   1   1   17.07    0.97
  -2   1  -1   15.38    1.40
   2   1   1   16.66    1.11
   2   1   1   16.02    1.02
  -3  -1  -1   12.84    0.81
   3  -1   1   12.54    1.06
  -3  -1  -1   12.08    0.85
  -3  -1  -1   12.85    0.77
   3  -1   1   13.82    0.85
   3  -1   1   12.99    0.87
   3  -1   1    9.94    0.99
  -3  -1  -1   10.46    0.96
  -3  -1  -1   13.23    0.94
  -3   1  -1   11.21    0.99
  -3   1  -1   11.30    0.85
  -3   1  -1   10.70    1.01
   3   1   1   12.39    0.87
   3   1   1   10.75    0.98
  -3   1  -1   14.01    0.82
  -4  -1  -1    8.57    0.59
   4  -1   1    8.93    0.97
  -4  -1  -1    9.04    0.64
   4  -1   1    8.90    0.71
   4  -1   1    6.14    1.06
   4  -1   1    9.59    0.72
  -4  -1  -1    8.26    0.79
  -4  -1  -1    7.32    0.67
  -4   1  -1    9.84    0.93
   4   1   1   10.31    0.76
  -4   1  -1    7.08    1.35
   4   1   1    7.77    0.90
   4   1   1    6.01    1.33
  -4   1  -1    8.85    0.69
  -4   1  -1   10.05    0.65
   4   1   1    8.35    0.88
  -4   1  -1    9.92    0.96
  -5  -1  -1   20.62    1.86
  -5  -1  -1   25.50    1.58
   5  -1   1   25.77    1.96
  -5  -1  -1   23.91    1.63
   5  -1   1   25.32    1.63
  -5  -1  -1   22.19    1.75
  -5  -1  -1   25.45    1.52
   5  -1   1   26.23    1.69
  -5   1  -1   25.77    1.89
   5   1   1   25.72    1.93
  -5   1  -1   23.85    1.56
  -5   1  -1   24.68    1.63
   5   1   1   18.28    2.51
   5   1   1   22.77    1.97
   5   1   1   24.47    1.70
  -5   1  -1   24.75    1.94
  -6  -1  -1   57.63    3.47
  -6  -1  -1   46.54    3.87
  -6  -1  -1   56.10    3.61
  -6  -1  -1   54.41    3.73
  -6  -1  -1   57.57    3.54
  -6   1  -1   57.98    3.97
  -6   1  -1   63.79    3.53
  -6   1  -1   60.55    3.61
  -6   1  -1   55.92    3.84
  -6   1  -1   56.77    3.48
   6   1   1   64.68    3.99
   6   1   1   50.94    3.97
  -7  -1  -1   -0.28    0.69
  -7  -1  -1    0.05    0.18
   7  -1   1    1.01    0.73
  -7  -1  -1   -0.04    0.24
  -7  -1  -1    0.26    0.28
  -7  -1  -1    0.46    0.52
   7  -1   1   -0.04    1.11
   7   1   1   -0.11    0.63
  -7   1  -1   -0.24    0.22
  -7   1  -1    0.24    0.19
  -7   1  -1    0.54    0.31
  -7   1  -1    0.48    0.61
  -7   1  -1    0.83    0.65
   7   1   1    0.95    1.28
  -8  -1  -1   46.94    3.25
  -8  -1  -1   47.99    3.03
  -8   1  -1   45.65    3.34
   8   1   1   37.22    4.84
  -8   1  -1   47.93    3.02
  -9  -2   1    0.59    0.51
   9  -2  -1   -0.87    3.11
  -9   2   1    0.96    0.95
   9   2  -1   -0.23    1.95
  -9   2   1    0.57    0.44
   8  -2  -1    1.16    0.87
  -8  -2   1   -0.01    0.37
  -8  -2   1   -0.29    0.53
  -8  -2   1   -0.13    0.26
   8  -2  -1   -0.35    1.41
   8   2  -1    0.40    0.77
   8   2  -1    0.14    1.65
  -8   2   1    0.27    0.35
  -8   2   1    0.33    0.79
  -8   2   1    0.25    0.28
  -7  -2   1    3.50    0.62
   7  -2  -1    2.12    0.73
   7  -2  -1    2.41    1.39
  -7  -2   1    4.37    0.46
  -7  -2   1    3.95    0.55
  -7  -2   1    1.97    0.84
   7  -2  -1    4.21    0.69
  -7  -2   1    3.83    0.56
   7   2  -1    3.24    0.81
  -7   2   1    4.03    0.52
   7   2  -1    2.46    1.43
   7   2  -1    4.57    0.99
  -7   2   1    3.12    0.50
  -7   2   1    4.28    1.06
   6  -2  -1    1.37    0.66
  -6  -2   1    0.62    0.36
  -6  -2   1    1.00    0.28
   6  -2  -1    1.24    0.40
  -6  -2   1    0.88    0.34
  -6  -2   1    0.99    0.23
   6  -2  -1    0.95    1.01
  -6  -2   1    0.28    0.51
   6  -2  -1    0.66    0.59
  -6   2   1    0.80    0.30
   6   2  -1    0.43    1.00
  -6   2   1    1.27    0.52
  -6   2   1    0.78    0.31
   6   2  -1    0.57    0.52
  -6   2   1    0.10    0.51
   6   2  -1    0.62    0.52
  -5  -2   1   57.79    3.55
  -5  -2   1   53.14    3.89
  -5  -2   1   59.68    3.47
   5  -2  -1   50.36    3.51
  -5  -2   1   58.28    3.56
   5  -2  -1   52.59    3.72
   5  -2  -1   59.19    3.62
  -5  -2   1   50.70    3.53
  -5   2   1   51.47    3.70
   5   2  -1   62.28    3.70
   5   2  -1   59.49    3.63
   5   2  -1   53.55    3.79
  -5   2   1   52.95    3.52
  -5   2   1   62.25    3.57
  -5   2   1   58.04    3.78
   4  -2  -1    2.38    0.31
  -4  -2   1    2.44    0.35
  -4  -2   1    2.20    0.42
  -4  -2   1    2.78    0.31
   4  -2  -1    2.92    0.51
  -4  -2   1    2.81    0.38
   4  -2  -1    2.01    0.48
   4  -2  -1    2.37    0.40
   4   2  -1    2.71    0.29
   4   2  -1    3.66    0.51
   4   2  -1    2.89    0.42
  -4   2   1    3.03    0.41
  -4   2   1    2.27    0.32
   4   2  -1    2.11    0.48
  -4   2   1    2.20    0.46
  -4   2   1    3.04    0.53
  -4   2   1    1.86    0.81
   4   2  -1    1.90    0.70
  -3  -2   1    2.28    0.40
   3  -2  -1    2.95    0.48
  -3  -2   1    2.90    0.32
  -3  -2   1    2.76    0.34
  -3  -2   1    3.46    0.64
   3  -2  -1    2.74    0.40
  -3  -2   1    3.28    0.31
   3  -2  -1    3.28    0.29
  -3   2   1    3.07    0.30
  -3   2   1    4.37    0.42
  -3   2   1    4.06    0.44
   3   2  -1    3.47    0.70
  -3   2   1    3.29    0.48
   3   2  -1    2.85    0.36
   3   2  -1    3.83    0.30
   3   2  -1    3.12    0.38
   3   2  -1    3.19    0.45
   2  -2  -1   10.52    0.79
   2  -2  -1   11.91    0.70
   2  -2  -1    9.74    0.89
  -2  -2   1    9.05    0.90
  -2  -2   1   11.05    0.79
  -2  -2   1   11.04    0.73
  -2  -2   1    9.88    0.74
   2  -2  -1   10.87    0.78
   2   2  -1   10.59    0.76
  -2   2   1   12.31    0.79
  -2   2   1   12.20    0.79
  -2   2   1    9.45    0.78
   2   2  -1   11.97    0.79
   2   2  -1   10.20    0.91
   2   2  -1   10.87    0.74
   2   2  -1   11.28    0.72
   2   2  -1   11.64    0.72
  -2   2   1   10.42    0.70
  -1  -2   1   47.50    2.87
   1  -2  -1   44.92    2.90
  -1  -2   1   46.21    2.86
   1  -2  -1   48.42    2.90
  -1  -2   1   52.69    2.99
   1  -2  -1   42.03    2.93
  -1  -2   1   45.46    2.89
  -1   2   1   52.43    2.91
  -1   2   1   44.11    2.90
   1   2  -1   46.40    2.87
  -1   2   1   51.40    2.90
  -1   2   1   47.95    2.85
  -1   2   1   46.17    2.84
   1   2  -1   47.35    2.87
   1   2  -1   45.97    2.86
   0  -2  -1    9.21    0.61
   0  -2  -1    8.86    0.59
   0  -2   1    8.92    0.58
   0  -2  -1    8.59    0.55
   0  -2   1    8.25    0.58
   0  -2   1    8.54    0.54
   0  -2  -1    9.07    0.60
   0  -2   1    7.74    0.57
   0  -2   1    9.07    0.65
   0   2  -1    8.31    0.57
   0   2   1    9.42    0.57
   0   2   1    9.00    0.60
   0   2  -1    8.49    0.54
   0   2   1    8.45    0.58
   0   2  -1    9.47    0.62
   0   2  -1    8.75    0.58
   0   2  -1    8.33    0.60
   0   2   1    8.96    0.55
   1  -2   1  197.75   12.76
  -1  -2  -1  199.93   12.76
  -1  -2  -1  204.58   12.77
   1  -2   1  232.22   12.81
  -1  -2  -1  204.09   12.74
  -1  -2  -1  218.50   12.82
   1  -2   1  219.58   12.83
   1   2   1  209.73   12.75
  -1   2  -1  221.69   12.84
   1   2   1  206.76   12.80
  -1   2  -1  216.35   12.94
   1   2   1  218.40   12.81
   1   2   1  211.78   12.75
  -1   2  -1  214.97   12.76
  -1   2  -1  225.39   12.80
  -2  -2  -1    0.24    0.08
  -2  -2  -1    0.21    0.08
   2  -2   1    0.38    0.13
  -2  -2  -1    0.32    0.12
   2  -2   1    0.35    0.07
   2  -2   1    0.14    0.15
  -2  -2  -1    0.21    0.12
  -2  -2  -1    0.19    0.21
   2  -2   1    0.18    0.19
   2   2   1    0.20    0.24
  -2   2  -1    0.47    0.19
   2   2   1    0.29    0.12
  -2   2  -1    0.47    0.11
  -2   2  -1    0.13    0.08
  -2   2  -1    0.14    0.20
   2   2   1    0.18    0.09
   2   2   1    0.33    0.11
   2   2   1    0.26    0.07
   3  -2   1   39.05    2.75
   3  -2   1   39.03    2.90
   3  -2   1   37.64    2.91
  -3  -2  -1   39.49    2.84
  -3  -2  -1   47.34    2.80
   3  -2   1   45.52    2.75
  -3  -2  -1   44.53    2.75
   3   2   1   47.90    2.88
   3   2   1   49.45    2.78
  -3   2  -1   40.14    3.34
  -3   2  -1   50.47    2.75
  -3   2  -1   42.02    2.93
  -3   2  -1   40.12    2.73
  -3   2  -1   48.35    2.89
   3   2   1   45.83    2.69
   3   2   1   48.32    2.83
   4  -2   1    0.28    0.31
   4  -2   1    0.37    0.16
  -4  -2  -1    0.24    0.48
  -4  -2  -1    0.25    0.24
   4  -2   1   -0.21    0.37
  -4  -2  -1    0.38    0.28
   4  -2   1    0.54    0.21
   4  -2   1    0.25    0.49
  -4  -2  -1    0.40    0.13
  -4  -2  -1    0.23    0.14
   4   2   1    0.36    0.56
   4   2   1    0.51    0.31
   4   2   1    0.39    0.19
   4   2   1    0.24    0.27
   4   2   1    0.21    0.10
  -4   2  -1    0.35    0.28
  -4   2  -1    0.32    0.67
  -4   2  -1   -0.13    0.36
  -4   2  -1    0.19    0.16
   5  -2   1    0.64    0.46
  -5  -2  -1    1.26    0.42
   5  -2   1    0.52    0.69
   5  -2   1    1.41    0.32
  -5  -2  -1    1.79    0.28
   5  -2   1    1.30    0.56
  -5  -2  -1    1.21    0.38
  -5  -2  -1    2.48    0.84
  -5  -2  -1    0.78    0.24
  -5  -2  -1    0.86    0.18
   5  -2   1    1.17    0.30
   5   2   1    0.66    0.35
  -5   2  -1    1.11    0.24
   5   2   1    0.44    0.82
  -5   2  -1    1.00    0.85
   5   2   1    0.54    0.43
  -5   2  -1    0.77    0.24
  -5   2  -1    1.05    0.45
  -5   2  -1    1.60    0.50
   5   2   1    1.36    0.49
  -6  -2  -1    0.79    0.54
  -6  -2  -1    0.79    0.48
   6  -2   1    1.19    0.50
  -6  -2  -1    0.88    0.44
   6  -2   1    0.57    0.56
  -6  -2  -1    1.26    0.23
   6  -2   1    1.47    0.39
  -6  -2  -1    1.83    0.31
   6   2   1    0.70    0.55
  -6   2  -1    1.46    0.31
  -6   2  -1    1.78    0.29
   6   2   1    1.47    0.69
  -6   2  -1    1.19    0.57
  -6   2  -1    1.26    0.61
   6   2   1    1.10    1.20
  -7  -2  -1    4.79    0.76
   7  -2   1    2.05    1.33
  -7  -2  -1    5.51    0.45
   7  -2   1    4.12    0.96
  -7  -2  -1    2.59    0.85
  -7  -2  -1    4.47    0.63
  -7   2  -1    4.89    0.68
  -7   2  -1    4.29    0.45
   7   2   1    3.03    1.67
   7   2   1    4.14    0.88
  -7   2  -1    3.92    0.90
  -7   2  -1    4.70    0.95
  -7   2  -1    3.15    0.50
   8  -2   1   -0.61    1.29
  -8  -2  -1    0.27    0.35
  -8  -2  -1   -0.55    0.62
  -8   2  -1   -0.17    0.81
  -8   2  -1    0.16    0.35
   8   2   1    0.70    1.77
  -8  -3   1   11.90    0.96
   8  -3  -1    8.74    2.55
   8  -3  -1    7.52    1.44
   8  -3  -1   12.50    1.36
  -8  -3   1   11.54    1.19
  -8  -3   1   11.60    1.07
  -8   3   1    9.67    1.41
  -8   3   1    9.77    1.03
   8   3  -1    9.95    2.53
   8   3  -1   10.92    1.68
  -7  -3   1   64.59    4.06
  -7  -3   1   62.31    3.91
   7  -3  -1   68.13    4.19
  -7  -3   1   55.52    4.02
  -7  -3   1   63.33    4.04
   7   3  -1   63.12    5.57
  -7   3   1   61.56    4.02
  -7   3   1   65.53    4.41
   7   3  -1   65.62    4.46
  -7   3   1   63.43    4.00
  -6  -3   1    2.11    0.43
  -6  -3   1    0.94    0.56
   6  -3  -1    1.32    0.50
  -6  -3   1    1.77    0.30
   6  -3  -1    0.88    0.99
  -6  -3   1    1.91    0.40
   6  -3  -1    0.90    0.55
  -6  -3   1    1.65    0.39
   6   3  -1    1.75    0.58
  -6   3   1    2.05    0.39
  -6   3   1    1.75    0.59
  -6   3   1    0.93    0.59
   6   3  -1    2.72    0.66
  -6   3   1    1.63    0.37
   6   3  -1    0.90    0.89
   5  -3  -1   35.56    2.62
  -5  -3   1   33.35    2.35
   5  -3  -1   36.36    2.51
   5  -3  -1   38.94    2.38
  -5  -3   1   37.93    2.41
   5  -3  -1   31.37    2.69
  -5  -3   1   34.71    2.42
  -5   3   1   43.38    2.67
   5   3  -1   38.93    2.36
  -5   3   1   34.38    2.61
   5   3  -1   39.00    2.66
   5   3  -1   37.72    2.55
  -5   3   1   36.32    2.40
  -5   3   1   43.68    2.47
   5   3  -1   36.36    3.20
  -4  -3   1   13.42    1.24
  -4  -3   1   15.50    1.07
   4  -3  -1   14.44    1.32
  -4  -3   1   15.51    1.12
   4  -3  -1   14.70    1.18
   4  -3  -1   15.61    1.27
   4  -3  -1   16.07    1.06
   4   3  -1   15.38    1.20
   4   3  -1   18.09    1.65
   4   3  -1   16.17    1.26
  -4   3   1   12.40    1.86
  -4   3   1   16.02    1.08
   4   3  -1   16.80    1.07
  -4   3   1   17.58    1.17
  -4   3   1   16.62    1.28
   4   3  -1   16.33    1.19
  -4   3   1   17.64    1.26
  -3  -3   1    0.24    0.28
   3  -3  -1    1.10    0.27
  -3  -3   1    0.91    0.34
   3  -3  -1    1.23    0.16
  -3  -3   1    0.58    0.16
   3  -3  -1    0.57    0.23
  -3  -3   1    0.53    0.15
   3  -3  -1    0.72    0.35
   3  -3  -1    0.48    0.42
   3   3  -1    0.55    0.21
   3   3  -1    0.76    0.17
   3   3  -1    0.72    0.24
  -3   3   1    0.80    0.15
  -3   3   1    0.63    0.27
  -3   3   1    0.02    0.48
  -3   3   1    0.64    0.20
   3   3  -1    0.99    0.23
  -3   3   1    0.42    0.20
   3   3  -1    0.84    0.16
   3   3  -1    0.77    0.34
   2  -3  -1   32.70    2.14
   2  -3  -1   36.02    2.18
  -2  -3   1   31.09    2.07
   2  -3  -1   29.61    2.12
  -2  -3   1   31.03    2.08
  -2  -3   1   30.57    2.27
   2  -3  -1   34.18    2.04
   2   3  -1   34.13    2.07
   2   3  -1   35.15    2.07
   2   3  -1   33.11    2.08
  -2   3   1   31.70    2.15
  -2   3   1   36.41    2.14
  -2   3   1   33.80    2.04
  -2   3   1   39.35    2.15
   2   3  -1   34.07    2.12
   2   3  -1   32.11    2.10
   1  -3  -1   49.50    3.15
   1  -3  -1   47.87    3.20
  -1  -3   1   49.83    3.08
  -1  -3   1   50.49    3.12
  -1  -3   1   51.84    3.13
  -1  -3   1   55.33    3.13
   1   3  -1   52.24    3.10
  -1   3   1   56.61    3.15
   1   3  -1   49.90    3.13
   1   3  -1   50.00    3.12
  -1   3   1   51.60    3.16
  -1   3   1   51.99    3.08
  -1   3   1   48.01    3.07
  -1   3   1   49.65    3.29
   0  -3  -1  116.48    7.14
   0  -3  -1  125.44    7.17
   0  -3   1  105.55    7.08
   0  -3   1  117.06    7.13
   0  -3  -1  114.50    7.09
   0  -3  -1  107.59    7.12
   0  -3   1  112.49    7.13
   0  -3   1  119.78    7.14
   0  -3   1  118.29    7.31
   0  -3   1  118.44    7.14
   0  -3  -1  114.11    7.15
   0   3   1  127.52    7.13
   0   3   1  124.39    7.14
   0   3  -1  113.78    7.15
   0   3  -1  129.36    7.20
   0   3  -1  129.31    7.09
   0   3  -1  112.64    7.14
   0   3   1  114.55    7.16
   0   3  -1  120.66    7.13
   0   3   1  128.14    7.10
  -1  -3  -1    2.36    0.23
   1  -3   1    2.66    0.27
   1  -3   1    2.06    0.25
  -1  -3  -1    3.09    0.31
  -1  -3  -1    2.18    0.20
  -1  -3  -1    2.01    0.27
  -1  -3  -1    2.35    0.25
   1  -3   1    2.11    0.46
   1   3   1    2.15    0.21
   1   3   1    2.08    0.22
  -1   3  -1    2.42    0.24
  -1   3  -1    2.34    0.25
  -1   3  -1    2.49    0.17
  -1   3  -1    2.53    0.17
   1   3   1    2.28    0.29
  -1   3  -1    2.40    0.35
   1   3   1    2.58    0.21
  -1   3  -1    2.32    0.36
   2  -3   1    1.39    0.28
   2  -3   1    1.63    0.23
   2  -3   1    1.89    0.34
  -2  -3  -1    1.08    0.30
  -2  -3  -1    1.74    0.22
   2  -3   1    1.50    0.50
   2  -3   1    1.39    0.13
  -2   3  -1    1.19    0.30
   2   3   1    1.43    0.20
   2   3   1    1.52    0.21
  -2   3  -1    1.05    0.42
   2   3   1    1.14    0.26
   2   3   1    1.17    0.28
   2   3   1    1.41    0.24
   2   3   1    1.44    0.17
  -2   3  -1    1.60    0.23
  -2   3  -1    1.33    0.15
  -2   3  -1    1.56    0.25
   3  -3   1   29.34    2.00
  -3  -3  -1   30.33    1.98
  -3  -3  -1   29.05    1.96
   3  -3   1   31.20    2.21
   3   3   1   30.50    2.12
  -3   3  -1   28.79    1.96
   3   3   1   29.80    2.35
  -3   3  -1   34.28    2.11
   3   3   1   34.09    2.05
   3   3   1   29.63    1.94
  -3   3  -1   35.61    2.02
  -3   3  -1   34.12    2.65
   3   3   1   31.88    2.01
   3   3   1   34.30    2.09
  -3   3  -1   28.04    2.17
   4  -3   1   34.31    2.19
   4  -3   1   30.04    2.41
  -4  -3  -1   35.29    2.21
  -4  -3  -1   35.37    2.17
  -4  -3  -1   29.93    2.30
   4  -3   1   33.71    2.11
  -4  -3  -1   31.47    2.10
   4  -3   1   28.98    2.40
  -4   3  -1   30.91    2.14
   4   3   1   35.70    2.22
   4   3   1   35.42    2.09
  -4   3  -1   38.00    2.17
  -4   3  -1   31.37    2.38
   4   3   1   31.29    2.79
   4   3   1   36.82    2.28
  -4   3  -1   36.45    2.34
   4   3   1   32.58    2.34
  -4   3  -1   37.41    3.11
  -5  -3  -1   35.69    2.51
   5  -3   1   40.85    3.27
   5  -3   1   36.98    2.56
   5  -3   1   41.29    2.65
  -5  -3  -1   37.39    2.60
  -5  -3  -1   39.34    2.66
  -5   3  -1   44.31    2.86
   5   3   1   45.99    2.53
  -5   3  -1   41.14    2.59
   5   3   1   43.90    2.82
   5   3   1   38.14    2.81
  -5   3  -1   44.19    2.59
   5   3   1   38.06    3.56
  -5   3  -1   39.00    2.90
  -6  -3  -1   20.45    1.62
  -6  -3  -1   21.61    1.41
  -6  -3  -1   17.55    1.80
   6  -3   1   17.55    1.95
  -6  -3  -1   23.06    1.52
  -6  -3  -1   21.44    1.54
   6  -3   1   23.20    1.63
   6  -3   1   22.75    1.54
  -6   3  -1   24.85    1.92
   6   3   1   19.53    1.87
  -6   3  -1   22.77    1.52
   6   3   1   18.18    2.81
   6   3   1   22.87    1.89
  -6   3  -1   22.98    1.48
   7  -3   1    0.38    0.78
   7  -3   1   -0.34    1.25
  -7  -3  -1    0.05    0.48
  -7  -3  -1    0.41    0.24
   7  -3   1    0.26    0.48
  -7  -3  -1    0.29    0.29
   7   3   1    0.47    0.58
   7   3   1    0.42    1.38
  -7   3  -1   -0.11    0.74
  -7   3  -1    0.26    0.78
  -7   3  -1    0.41    0.31
  -8  -3  -1   20.69    1.86
  -8  -3  -1   22.78    1.65
   8  -3   1   15.63    3.40
  -8   3  -1   24.07    1.61
  -8   3  -1   20.83    2.28
   8   3   1   20.72    3.92
   8  -4  -1   14.42    2.22
  -8  -4   1   14.79    1.26
   8  -4  -1   15.38    2.24
   8  -4  -1   10.09    2.82
  -8   4   1   11.53    1.69
  -8   4   1   14.34    1.23
   8   4  -1   15.02    3.26
  -7  -4   1    0.32    0.34
   7  -4  -1    0.40    0.80
  -7  -4   1    0.84    0.29
   7  -4  -1   -0.07    1.19
   7  -4  -1    0.58    0.62
  -7   4   1    0.06    0.35
   7   4  -1    0.50    1.25
  -7   4   1    1.22    0.84
   7   4  -1    0.90    0.81
   7   4  -1    0.36    0.54
  -6  -4   1    2.12    0.34
  -6  -4   1    1.35    0.41
  -6  -4   1    2.49    0.45
   6  -4  -1    2.31    0.56
  -6  -4   1    1.52    0.60
   6  -4  -1    0.24    0.98
   6  -4  -1    1.58    0.65
  -6   4   1    1.62    0.69
   6   4  -1    2.74    0.67
  -6   4   1    2.20    0.44
   6   4  -1    2.86    1.02
   6   4  -1    2.09    0.67
  -6   4   1    1.91    0.54
  -6   4   1    1.63    0.37
   6   4  -1    2.10    0.61
   5  -4  -1    0.73    0.94
  -5  -4   1    0.38    0.21
   5  -4  -1    1.08    0.48
  -5  -4   1    0.55    0.24
   5  -4  -1    1.05    0.23
  -5  -4   1    0.64    0.43
  -5  -4   1    0.20    0.60
   5  -4  -1    0.84    0.40
   5   4  -1    0.31    0.40
  -5   4   1    0.48    0.22
   5   4  -1    0.31    0.20
  -5   4   1    1.12    0.34
   5   4  -1    1.18    0.69
   5   4  -1    1.28    0.44
  -5   4   1    0.38    0.36
   5   4  -1    0.91    0.39
  -5   4   1    0.12    0.42
  -4  -4   1   38.72    2.57
   4  -4  -1   39.87    2.50
  -4  -4   1   37.38    2.72
   4  -4  -1   38.00    2.64
  -4  -4   1   39.65    2.55
   4  -4  -1   36.93    2.72
   4  -4  -1   37.06    2.79
  -4   4   1   35.82    3.44
  -4   4   1   45.32    2.65
   4   4  -1   43.98    3.02
   4   4  -1   42.37    2.69
   4   4  -1   40.14    2.59
   4   4  -1   41.15    2.65
   4   4  -1   38.03    2.61
   4   4  -1   42.84    2.53
  -4   4   1   40.43    2.74
  -4   4   1   47.24    2.72
  -4   4   1   39.86    2.53
   3  -4  -1    0.85    0.13
   3  -4  -1    0.70    0.28
  -3  -4   1    1.01    0.28
   3  -4  -1    0.49    0.52
   3  -4  -1    1.17    0.28
  -3  -4   1    0.71    0.20
  -3  -4   1    0.68    0.16
  -3  -4   1    0.97    0.40
  -3   4   1    0.73    0.15
  -3   4   1    0.83    0.34
  -3   4   1    1.15    0.27
   3   4  -1    0.76    0.17
   3   4  -1    0.66    0.21
   3   4  -1    0.98    0.34
   3   4  -1    0.80    0.19
   3   4  -1    1.15    0.24
   3   4  -1    0.76    0.22
  -3   4   1    1.12    0.26
  -3   4   1    1.07    0.64
  -2  -4   1  222.29   13.72
   2  -4  -1  213.46   13.56
  -2  -4   1  230.30   13.54
   2  -4  -1  219.09   13.57
  -2  -4   1  210.35   13.47
  -2  -4   1  224.79   13.51
   2   4  -1  236.29   13.50
  -2   4   1  209.16   13.44
   2   4  -1  230.72   13.51
   2   4  -1  210.47   13.50
  -2   4   1  245.60   13.56
   2   4  -1  217.02   13.53
  -2   4   1  223.58   13.90
  -2   4   1  229.74   13.60
  -2   4   1  252.17   13.56
  -2   4   1  225.24   13.45
  -1  -4   1    1.81    0.30
   1  -4  -1    1.23    0.14
   1  -4  -1    0.72    0.19
   1  -4  -1    0.90    0.18
  -1  -4   1    1.52    0.20
   1  -4  -1    1.20    0.23
  -1  -4   1    1.21    0.21
   1  -4  -1    0.57    0.39
  -1  -4   1    1.14    0.19
  -1  -4   1    1.48    0.23
  -1  -4   1    1.28    0.14
  -1  -4   1    1.47    0.25
   1   4  -1    1.45    0.21
   1   4  -1    1.13    0.21
   1   4  -1    1.35    0.17
  -1   4   1    1.11    0.22
  -1   4   1    1.53    0.27
   1   4  -1    1.07    0.20
  -1   4   1    1.29    0.20
  -1   4   1    1.08    0.14
  -1   4   1    1.24    0.30
   0  -4   1   62.90    3.65
   0  -4   1   54.89    3.70
   0  -4   1   60.37    3.63
   0  -4  -1   55.77    3.65
   0  -4  -1   56.88    3.64
   0  -4  -1   49.81    3.78
   0  -4   1   58.13    3.63
   0  -4   1   61.66    3.78
   0  -4  -1   58.49    3.57
   0  -4  -1   65.06    3.68
   0  -4  -1   59.07    3.62
   0   4  -1   56.42    3.65
   0   4  -1   67.58    3.70
   0   4   1   58.58    3.66
   0   4  -1   60.61    3.56
   0   4   1   54.12    3.60
   0   4   1   62.33    3.62
   0   4  -1   61.14    3.62
   1  -4   1    7.15    0.61
  -1  -4  -1    7.22    0.58
  -1  -4  -1    7.85    0.55
   1  -4   1    6.60    0.84
   1  -4   1    7.26    0.60
  -1  -4  -1    7.28    0.51
   1  -4   1    7.44    0.58
  -1  -4  -1    7.60    0.59
  -1  -4  -1    8.33    0.64
  -1  -4  -1    7.63    0.56
   1   4   1    7.01    0.54
  -1   4  -1    7.25    0.48
   1   4   1    7.42    0.52
  -1   4  -1    7.93    0.58
  -1   4  -1    7.87    0.73
  -1   4  -1    8.00    0.70
  -1   4  -1    7.57    0.48
  -1   4  -1    8.18    0.60
   1   4   1    7.61    0.61
   2  -4   1    4.57    0.89
  -2  -4  -1    5.09    0.43
   2  -4   1    5.98    0.60
  -2  -4  -1    5.42    0.48
   2  -4   1    6.30    0.69
   2  -4   1    5.91    0.52
   2   4   1    5.39    0.54
  -2   4  -1    5.97    0.41
  -2   4  -1    6.19    0.51
  -2   4  -1    5.66    0.39
   2   4   1    6.18    0.47
   2   4   1    5.77    0.45
  -2   4  -1    6.20    0.77
  -2   4  -1    6.57    0.54
   2   4   1    6.44    0.59
   2   4   1    5.48    0.50
   3  -4   1   20.59    1.48
   3  -4   1   20.88    1.37
   3  -4   1   23.43    1.64
  -3  -4  -1   22.10    1.43
   3  -4   1   22.57    1.65
  -3  -4  -1   19.92    1.43
   3   4   1   22.51    1.41
   3   4   1   23.35    1.52
   3   4   1   22.62    1.57
  -3   4  -1   20.33    1.63
  -3   4  -1   20.59    1.40
   3   4   1   22.56    1.50
  -3   4  -1   22.24    1.48
  -3   4  -1   22.34    2.01
   3   4   1   23.30    1.69
   3   4   1   23.50    1.48
   4  -4   1   83.87    5.94
  -4  -4  -1  107.22    6.09
   4  -4   1   89.62    5.63
   4  -4   1   90.06    5.74
   4  -4   1   83.59    5.91
  -4  -4  -1   88.14    5.67
  -4  -4  -1   91.83    5.70
   4   4   1   95.37    5.65
  -4   4  -1   96.87    6.63
   4   4   1   93.53    5.86
   4   4   1   92.53    6.17
  -4   4  -1   86.80    5.67
  -4   4  -1  101.93    5.74
  -4   4  -1   91.56    5.95
   4   4   1   86.45    5.74
   4   4   1   96.93    5.78
  -4   4  -1  102.34    5.86
   4   4   1   97.83    5.83
  -5  -4  -1    5.04    0.51
  -5  -4  -1    3.86    1.06
  -5  -4  -1    4.83    0.85
   5  -4   1    4.99    0.48
  -5  -4  -1    5.72    0.58
   5  -4   1    5.86    0.70
   5  -4   1    5.07    0.95
   5  -4   1    2.89    1.21
   5   4   1    5.39    0.76
   5   4   1    5.64    0.48
   5   4   1    5.33    1.20
  -5   4  -1    6.03    0.79
  -5   4  -1    5.35    0.56
  -5   4  -1    5.86    0.60
   5   4   1    6.31    0.87
  -5   4  -1    6.06    0.97
   5   4   1    5.57    0.84
   6  -4   1   32.16    2.13
  -6  -4  -1   30.38    2.15
   6  -4   1   27.75    2.64
   6  -4   1   32.95    2.28
  -6  -4  -1   34.67    2.10
  -6  -4  -1   31.86    2.19
   6   4   1   33.42    2.50
  -6   4  -1   35.50    2.16
   6   4   1   35.08    2.50
   6   4   1   29.96    2.51
   6   4   1   30.23    3.27
  -6   4  -1   33.48    2.15
  -6   4  -1   31.88    2.61
   7  -4   1    0.28    1.35
   7  -4   1    0.61    0.91
   7  -4   1    1.01    0.58
  -7  -4  -1    0.71    0.36
  -7  -4  -1    0.39    0.28
   7   4   1    0.48    0.82
  -7   4  -1   -0.64    0.82
   7   4   1   -0.03    1.30
  -7   4  -1    0.65    0.33
   7   4   1    0.72    0.68
   8  -4   1    0.42    1.77
  -8  -4  -1    0.93    0.45
  -8   4  -1    1.58    0.44
   8   4   1    1.35    1.82
   8   4   1    1.65    1.20
  -8   4  -1   -0.07    1.06
   8  -5  -1    1.46    0.93
  -8  -5   1    1.30    0.50
   8  -5  -1   -0.49    1.66
  -8   5   1    1.57    0.49
   8   5  -1   -0.03    1.64
  -8   5   1    0.89    1.17
   7  -5  -1    7.09    2.26
  -7  -5   1    9.12    0.98
  -7  -5   1    8.45    0.86
   7  -5  -1    7.24    1.32
   7  -5  -1    9.53    1.37
   7   5  -1   11.60    1.36
  -7   5   1   10.16    0.97
   7   5  -1   13.89    2.48
   7   5  -1    9.16    1.26
  -7   5   1    8.78    1.41
   6  -5  -1   11.58    1.23
  -6  -5   1   11.12    0.92
  -6  -5   1   10.38    0.99
   6  -5  -1    9.22    1.52
   6   5  -1   11.10    0.92
  -6   5   1   10.16    1.45
   6   5  -1    9.46    1.23
   6   5  -1   11.63    1.24
   6   5  -1   14.68    1.33
   6   5  -1   14.23    1.95
  -6   5   1   10.54    0.93
   5  -5  -1   35.09    2.28
  -5  -5   1   36.21    2.42
  -5  -5   1   29.56    2.56
  -5  -5   1   32.80    2.35
   5  -5  -1   35.72    2.52
   5   5  -1   33.58    2.45
  -5   5   1   39.92    2.57
  -5   5   1   35.54    2.34
   5   5  -1   37.19    2.47
   5   5  -1   36.40    2.53
  -5   5   1   40.78    2.60
   5   5  -1   43.49    3.03
   5   5  -1   38.53    2.35
   4  -5  -1   32.71    2.36
  -4  -5   1   33.49    2.26
   4  -5  -1   37.58    2.17
  -4  -5   1   33.35    2.24
   4  -5  -1   32.64    2.49
  -4  -5   1   30.82    2.39
  -4   5   1   33.98    2.20
   4   5  -1   33.69    2.28
  -4   5   1   35.13    3.20
  -4   5   1   36.97    2.37
   4   5  -1   35.56    2.36
   4   5  -1   33.12    2.34
   4   5  -1   36.64    2.24
  -4   5   1   35.25    2.48
   4   5  -1   36.41    2.27
  -4   5   1   39.39    2.37
  -4   5   1   35.63    2.19
   3  -5  -1   76.35    4.90
  -3  -5   1   76.94    4.85
  -3  -5   1   75.04    4.76
   3  -5  -1   79.13    4.84
  -3  -5   1   69.35    4.70
   3   5  -1   72.22    4.74
   3   5  -1   76.82    4.73
  -3   5   1   81.55    5.38
  -3   5   1   83.65    4.83
   3   5  -1   79.73    4.79
  -3   5   1   83.92    4.84
  -3   5   1   78.69    4.67
  -3   5   1   64.82    4.87
   3   5  -1   81.64    4.74
   3   5  -1   81.96    4.81
  -3   5   1   73.24    4.68
   2  -5  -1   19.92    1.49
  -2  -5   1   19.24    1.41
  -2  -5   1   20.21    1.34
  -2  -5   1   21.91    1.45
   2  -5  -1   19.83    1.46
  -2  -5   1   19.80    1.58
   2  -5  -1   21.61    1.48
  -2  -5   1   20.98    1.44
   2   5  -1   22.58    1.43
  -2   5   1   21.32    1.52
  -2   5   1   23.05    1.46
  -2   5   1   19.12    1.32
   2   5  -1   21.61    1.39
  -2   5   1   24.10    1.47
  -2   5   1   22.37    1.71
   2   5  -1   21.58    1.39
   2   5  -1   19.18    1.40
  -2   5   1   21.50    1.32
  -1  -5   1   69.13    4.26
  -1  -5   1   64.28    4.25
  -1  -5   1   65.52    4.27
   1  -5  -1   63.86    4.17
   1  -5  -1   67.83    4.27
  -1  -5   1   71.64    4.33
  -1  -5   1   65.06    4.25
   1  -5  -1   65.96    4.29
  -1  -5   1   76.80    4.53
   1  -5  -1   70.69    4.31
  -1  -5   1   68.15    4.17
  -1   5   1   71.00    4.17
  -1   5   1   73.89    4.29
  -1   5   1   66.81    4.30
  -1   5   1   73.70    4.36
  -1   5   1   74.00    4.28
   1   5  -1   68.07    4.23
   1   5  -1   65.02    4.25
   1   5  -1   70.58    4.20
   0  -5   1    5.76    0.52
   0  -5   1    5.69    0.68
   0  -5  -1    5.69    0.55
   0  -5   1    5.88    0.55
   0  -5  -1    6.14    0.49
   0  -5  -1    6.79    0.55
   0  -5   1    6.19    0.54
   0  -5   1    5.96    0.49
   0  -5  -1    5.97    0.42
   0  -5  -1    5.17    0.70
   0  -5   1    5.74    0.40
   0  -5  -1    6.61    0.58
   0   5   1    5.98    0.56
   0   5   1    5.48    0.50
   0   5  -1    5.65    0.50
   0   5  -1    5.93    0.57
   0   5   1    6.71    0.44
   0   5  -1    6.47    0.42
  -1  -5  -1   21.74    1.36
  -1  -5  -1   23.42    1.47
  -1  -5  -1   21.28    1.43
  -1  -5  -1   19.56    1.44
   1  -5   1   22.42    1.48
   1  -5   1   20.68    1.45
   1  -5   1   18.79    1.75
  -1  -5  -1   22.38    1.51
   1  -5   1   21.23    1.48
  -1  -5  -1   21.37    1.46
  -1  -5  -1   22.93    1.46
  -1   5  -1   20.95    1.53
   1   5   1   22.56    1.38
   1   5   1   21.68    1.41
  -1   5  -1   21.91    1.48
  -1   5  -1   20.61    1.33
   1   5   1   19.21    1.46
  -1   5  -1   24.74    1.59
  -1   5  -1   22.82    1.44
  -1   5  -1   21.24    1.33
   2  -5   1    2.01    0.38
  -2  -5  -1    1.40    0.26
  -2  -5  -1    1.44    0.37
   2  -5   1    1.94    0.33
  -2  -5  -1    1.20    0.31
   2  -5   1    1.44    0.61
  -2  -5  -1    2.36    0.32
   2   5   1    2.46    0.29
  -2   5  -1    1.96    0.17
   2   5   1    1.84    0.29
  -2   5  -1    2.08    0.49
  -2   5  -1    2.64    0.36
   2   5   1    2.04    0.27
  -2   5  -1    2.58    0.48
  -2   5  -1    1.80    0.20
  -2   5  -1    1.91    0.34
   2   5   1    1.81    0.32
  -3  -5  -1    0.42    0.15
   3  -5   1    0.51    0.25
   3  -5   1    0.29    0.55
  -3  -5  -1    0.67    0.68
   3  -5   1    0.82    0.41
   3  -5   1    0.55    0.34
  -3  -5  -1    0.38    0.21
  -3   5  -1    0.65    0.26
  -3   5  -1    0.54    0.12
   3   5   1    0.45    0.21
   3   5   1    0.71    0.18
   3   5   1    0.15    0.28
  -3   5  -1    0.59    0.36
   3   5   1    0.96    0.33
   3   5   1    0.53    0.23
  -3   5  -1    0.50    0.14
  -3   5  -1    0.81    0.53
   4  -5   1    9.76    0.69
  -4  -5  -1    8.83    0.81
  -4  -5  -1    9.27    0.98
   4  -5   1    8.43    0.88
   4  -5   1    8.35    1.07
  -4  -5  -1    9.59    0.79
  -4   5  -1   10.32    1.14
   4   5   1   10.28    1.00
   4   5   1   10.64    0.91
   4   5   1   10.64    0.92
  -4   5  -1   10.24    1.74
  -4   5  -1   11.44    0.90
  -4   5  -1   10.29    0.76
   4   5   1   11.72    0.77
  -4   5  -1   11.36    0.96
   4   5   1   12.28    1.19
  -5  -5  -1    1.80    0.85
  -5  -5  -1    2.59    0.58
  -5  -5  -1    2.82    0.40
   5  -5   1    2.51    0.33
   5  -5   1    3.50    0.56
  -5  -5  -1    3.40    0.48
   5  -5   1    1.72    0.61
   5  -5   1    1.82    1.82
  -5   5  -1    3.25    0.61
   5   5   1    3.49    0.41
  -5   5  -1    2.81    0.79
   5   5   1    2.90    0.53
   5   5   1    3.06    0.66
  -5   5  -1    2.40    0.37
   5   5   1    4.03    0.95
   5   5   1    1.96    0.53
  -5   5  -1    2.69    0.46
   6  -5   1   25.38    2.57
   6  -5   1   29.11    1.99
  -6  -5  -1   27.81    2.00
   6  -5   1   30.38    2.21
  -6  -5  -1   29.95    2.08
   6   5   1   32.38    2.46
  -6   5  -1   30.07    2.03
  -6   5  -1   25.85    2.53
  -6   5  -1   31.74    2.34
   6   5   1   31.83    2.43
   6   5   1   33.02    1.99
   6   5   1   34.49    2.38
   6   5   1   32.33    3.00
  -7  -5  -1    5.69    0.85
   7  -5   1    6.74    1.43
   7  -5   1    6.60    0.95
  -7  -5  -1    6.67    0.74
   7   5   1    5.64    1.24
   7   5   1    7.73    1.91
  -7   5  -1    7.85    1.40
  -7   5  -1    5.74    0.77
  -8   5  -1   16.72    1.39
  -8   5  -1   18.11    2.36
   8   5   1   18.88    3.52
   7  -6  -1    6.36    1.11
  -7  -6   1    7.56    0.84
   7  -6  -1    3.29    1.89
  -7  -6   1    6.17    0.86
   7  -6  -1    6.53    1.48
  -7   6   1    7.18    0.89
   7   6  -1    9.26    2.16
  -7   6   1    7.05    1.41
  -6  -6   1    2.14    0.44
   6  -6  -1    1.21    1.36
   6  -6  -1    1.97    0.65
   6  -6  -1    1.51    0.83
  -6  -6   1    1.87    0.41
   6   6  -1    2.75    0.94
  -6   6   1    1.94    0.41
   6   6  -1    1.77    0.63
   6   6  -1    2.42    0.58
  -6   6   1    1.45    0.79
   5  -6  -1   55.30    3.69
  -5  -6   1   55.29    3.50
  -5  -6   1   52.41    3.51
  -5  -6   1   47.82    3.72
   5   6  -1   50.06    3.55
  -5   6   1   58.09    3.46
   5   6  -1   60.08    3.68
  -5   6   1   59.17    3.86
   5   6  -1   55.50    3.58
  -5   6   1   57.48    3.42
  -4  -6   1    3.79    0.56
  -4  -6   1    3.88    0.71
  -4  -6   1    4.71    0.48
   4  -6  -1    4.51    0.82
   4  -6  -1    4.49    0.65
   4  -6  -1    3.04    1.13
   4   6  -1    3.55    0.56
   4   6  -1    3.83    0.55
  -4   6   1    4.71    1.29
  -4   6   1    4.50    0.67
  -4   6   1    4.24    0.40
   4   6  -1    4.36    0.60
   4   6  -1    3.80    0.55
   4   6  -1    5.63    0.90
  -4   6   1    4.90    0.45
  -3  -6   1   16.05    1.28
  -3  -6   1   16.14    1.11
   3  -6  -1   15.12    1.29
  -3  -6   1   16.78    1.22
   3  -6  -1   17.73    1.36
  -3   6   1   17.28    1.37
   3   6  -1   16.47    1.21
   3   6  -1   14.25    1.18
   3   6  -1   17.38    1.17
  -3   6   1   16.59    1.41
  -3   6   1   15.85    1.06
  -3   6   1   16.91    1.08
   3   6  -1   16.74    1.22
   3   6  -1   15.40    1.15
  -3   6   1   17.35    1.26
  -3   6   1   17.94    1.70
  -2  -6   1   11.62    0.81
   2  -6  -1   11.46    1.04
  -2  -6   1   11.73    1.09
  -2  -6   1   11.83    0.96
  -2  -6   1   10.18    0.92
   2  -6  -1   11.62    0.98
  -2  -6   1   12.77    0.98
  -2  -6   1   12.17    0.96
   2  -6  -1   11.02    0.98
  -2  -6   1   11.36    0.93
   2   6  -1   12.57    0.89
  -2   6   1   13.84    1.17
  -2   6   1   13.74    0.97
  -2   6   1   12.42    0.80
  -2   6   1   12.57    0.99
  -2   6   1   11.67    0.79
  -2   6   1   12.47    1.06
   2   6  -1   11.55    0.92
   2   6  -1   11.73    0.92
   2   6  -1   12.88    0.90
   1  -6  -1   31.60    2.15
  -1  -6   1   31.18    1.97
   1  -6  -1   30.73    2.11
  -1  -6   1   32.53    2.12
  -1  -6   1   34.58    2.13
   1  -6  -1   29.19    2.13
  -1  -6   1   32.80    2.09
  -1  -6   1   29.32    2.09
  -1  -6   1   33.76    2.21
   1  -6  -1   30.92    1.98
  -1   6   1   33.64    2.10
  -1   6   1   31.63    2.11
  -1   6   1   28.58    2.14
  -1   6   1   33.45    1.98
   1   6  -1   33.70    2.02
   1   6  -1   32.35    2.06
   1   6  -1   30.97    2.10
  -1   6   1   35.43    2.17
   0  -6   1    9.09    0.82
   0  -6  -1   10.47    0.77
   0  -6  -1    9.88    0.68
   0  -6   1    9.82    0.66
   0  -6   1   10.90    0.82
   0  -6  -1    8.32    1.02
   0  -6   1   10.22    1.03
   0  -6  -1   10.99    0.87
   0  -6  -1   10.49    0.82
   0  -6  -1   10.06    0.84
   0  -6   1    9.99    0.77
   0  -6   1   10.62    0.83
   0   6  -1   10.31    0.87
   0   6   1   10.29    0.69
   0   6  -1   10.40    0.68
   0   6   1   10.41    0.79
   0   6   1   10.73    0.84
   0   6  -1    8.84    0.76
  -1  -6  -1  221.89   12.94
   1  -6   1  204.54   12.91
   1  -6   1  215.35   12.95
  -1  -6  -1  208.47   12.80
   1  -6   1  200.58   12.92
   1  -6   1  184.29   13.27
  -1  -6  -1  209.25   12.98
  -1  -6  -1  228.43   12.98
  -1  -6  -1  197.10   12.91
  -1  -6  -1  214.06   12.93
  -1   6  -1  204.76   12.77
  -1   6  -1  215.80   12.78
   1   6   1  219.44   12.87
   1   6   1  217.94   12.83
  -1   6  -1  226.82   12.95
   1   6   1  206.20   12.92
  -1   6  -1  218.07   13.01
  -1   6  -1  227.21   12.90
  -1   6  -1  240.82   13.05
  -2  -6  -1    5.48    0.55
   2  -6   1    5.05    0.63
   2  -6   1    6.02    0.62
  -2  -6  -1    4.07    0.65
  -2  -6  -1    5.52    0.52
   2  -6   1    4.27    0.66
  -2  -6  -1    5.78    0.58
  -2  -6  -1    5.86    0.70
   2  -6   1    4.12    1.05
  -2  -6  -1    5.08    0.43
  -2   6  -1    5.54    0.78
  -2   6  -1    5.73    0.39
  -2   6  -1    5.35    0.57
   2   6   1    6.05    0.50
  -2   6  -1    5.48    0.74
   2   6   1    5.72    0.50
  -2   6  -1    5.22    0.39
   2   6   1    5.59    0.61
  -2   6  -1    5.91    0.60
   3  -6   1   93.75    6.73
  -3  -6  -1  109.43    6.70
  -3  -6  -1  102.18    6.62
  -3  -6  -1  108.21    6.55
   3  -6   1  106.61    6.66
   3   6   1  113.97    6.64
   3   6   1  104.39    6.61
   3   6   1  106.72    6.64
  -3   6  -1  102.15    6.50
  -3   6  -1  115.11    6.66
  -3   6  -1  110.55    6.48
  -3   6  -1  117.87    6.70
  -3   6  -1  114.48    7.09
   3   6   1  111.88    6.57
  -3   6  -1  101.08    6.80
   3   6   1  106.85    6.66
   4  -6   1    0.53    0.76
  -4  -6  -1    0.93    0.24
  -4  -6  -1    0.26    0.60
  -4  -6  -1    0.79    0.37
   4  -6   1    1.02    0.37
   4  -6   1    1.42    0.48
  -4  -6  -1    0.92    0.31
  -4   6  -1    0.57    0.23
   4   6   1    1.06    0.43
  -4   6  -1    1.33    0.59
   4   6   1    1.29    0.48
  -4   6  -1    1.04    0.18
   4   6   1    0.80    0.33
   4   6   1    0.79    0.25
   4   6   1    1.13    0.38
  -4   6  -1    0.87    0.34
  -5  -6  -1    2.83    0.64
  -5  -6  -1    3.49    0.52
   5  -6   1    3.45    0.78
  -5  -6  -1    3.80    0.55
   5  -6   1    4.00    0.67
   5   6   1    4.78    0.76
  -5   6  -1    4.44    0.44
  -5   6  -1    4.29    0.70
   5   6   1    4.07    0.49
  -5   6  -1    3.38    0.84
  -5   6  -1    4.11    0.52
   5   6   1    4.61    0.75
   5   6   1    4.16    0.69
   6  -6   1    1.01    1.25
  -6  -6  -1    2.11    0.46
  -6  -6  -1    1.70    0.43
   6  -6   1    2.03    0.90
  -6   6  -1    2.43    0.45
   6   6   1    1.90    0.64
  -6   6  -1    1.70    0.95
   6   6   1    2.69    0.94
   6   6   1    2.93    0.81
   7  -6   1   12.37    1.42
   7  -6   1    3.90    1.97
  -7  -6  -1    6.18    0.95
  -7   6  -1    7.87    1.51
   7   6   1   11.24    2.35
  -7   6  -1    8.59    0.88
   7  -7  -1    4.97    1.14
  -7  -7   1    5.04    0.76
  -7  -7   1    4.59    0.72
   7   7  -1    8.39    1.74
  -7   7   1    6.37    1.49
  -7   7   1    6.56    0.94
   6  -7  -1   11.82    1.53
  -6  -7   1   13.00    1.16
   6  -7  -1   12.00    1.79
  -6  -7   1   14.01    1.23
  -6   7   1   15.16    1.88
   6   7  -1   14.18    1.43
   6   7  -1   16.54    1.47
  -6   7   1   11.85    1.22
  -5  -7   1    6.50    0.83
   5  -7  -1    6.99    1.23
  -5  -7   1    6.05    0.71
   5  -7  -1    5.56    0.94
   5   7  -1    7.10    0.87
  -5   7   1    6.78    1.14
   5   7  -1    7.55    0.93
  -5   7   1    6.97    0.65
   4  -7  -1    5.04    0.93
   4  -7  -1    6.08    0.91
  -4  -7   1    3.68    0.95
  -4  -7   1    5.56    0.73
  -4  -7   1    6.19    0.92
   4   7  -1    5.91    0.71
  -4   7   1    6.09    0.48
  -4   7   1    5.74    0.52
   4   7  -1    5.39    0.73
  -4   7   1    5.09    0.88
   4   7  -1    4.81    0.74
   3  -7  -1    2.10    0.50
   3  -7  -1    2.65    0.67
  -3  -7   1    2.04    0.29
  -3  -7   1    1.95    0.42
  -3  -7   1    1.68    0.40
  -3  -7   1    1.75    0.61
  -3  -7   1    2.19    0.44
   3  -7  -1    1.46    0.91
  -3   7   1    2.21    0.29
  -3   7   1    1.94    0.41
  -3   7   1    1.92    0.27
   3   7  -1    1.62    0.34
  -3   7   1    1.09    0.59
  -3   7   1    2.02    0.64
   3   7  -1    2.10    0.40
   3   7  -1    2.50    0.45
  -2  -7   1    2.39    0.45
  -2  -7   1    2.98    0.49
  -2  -7   1    2.94    0.46
   2  -7  -1    2.77    0.53
  -2  -7   1    2.52    0.54
  -2  -7   1    2.69    0.48
   2  -7  -1    2.24    0.48
  -2  -7   1    2.34    0.28
  -2  -7   1    1.98    0.39
   2  -7  -1    1.16    0.80
  -2   7   1    2.35    0.58
   2   7  -1    2.60    0.42
  -2   7   1    2.62    0.44
  -2   7   1    2.75    0.28
   2   7  -1    2.36    0.36
  -2   7   1    2.43    0.53
  -2   7   1    2.36    0.27
   1  -7  -1    2.14    0.25
  -1  -7   1    2.07    0.50
  -1  -7   1    1.77    0.36
   1  -7  -1    1.34    0.39
  -1  -7   1    2.75    0.53
  -1  -7   1    2.64    0.45
  -1  -7   1    2.21    0.42
   1  -7  -1    1.92    0.36
  -1  -7   1    1.98    0.34
   1  -7  -1    2.15    0.36
   1  -7  -1    1.20    0.63
  -1  -7   1    1.78    0.24
  -1   7   1    2.00    0.44
   1   7  -1    2.09    0.28
  -1   7   1    2.32    0.26
  -1   7   1    2.36    0.41
   1   7  -1    2.50    0.45
   0  -7  -1   35.88    2.40
   0  -7   1   36.16    2.43
   0  -7  -1   34.73    2.25
   0  -7   1   36.31    2.37
   0  -7   1   35.40    2.71
   0  -7   1   36.44    2.41
   0  -7  -1   34.64    2.43
   0  -7  -1   35.56    2.47
   0  -7   1   35.07    2.23
   0  -7   1   37.40    2.41
   0   7   1   40.26    2.28
   0   7  -1   39.68    2.49
   0   7  -1   37.15    2.26
   0   7   1   34.89    2.43
  -1  -7  -1    4.13    0.38
  -1  -7  -1    5.19    0.60
   1  -7   1    4.58    0.60
   1  -7   1    4.06    0.55
   1  -7   1    4.91    0.73
  -1  -7  -1    4.42    0.56
  -1  -7  -1    5.43    0.53
  -1  -7  -1    4.11    0.59
   1  -7   1    3.79    0.91
  -1  -7  -1    4.34    0.74
   1  -7   1    4.45    0.49
  -1  -7  -1    4.68    0.66
   1   7   1    4.55    0.62
   1   7   1    4.80    0.44
  -1   7  -1    4.59    0.66
  -1   7  -1    5.15    0.62
  -1   7  -1    4.41    0.37
  -1   7  -1    4.69    0.35
   2  -7   1   64.43    4.09
  -2  -7  -1   64.83    4.02
   2  -7   1   61.02    4.05
  -2  -7  -1   60.70    4.03
  -2  -7  -1   61.06    4.04
  -2  -7  -1   62.14    3.89
  -2  -7  -1   62.49    4.02
  -2  -7  -1   62.02    4.12
  -2   7  -1   69.51    4.24
  -2   7  -1   63.58    4.23
  -2   7  -1   61.21    3.84
  -2   7  -1   66.76    3.85
   2   7   1   64.06    3.95
  -2   7  -1   69.46    4.08
   2   7   1   58.33    4.03
  -3  -7  -1    3.71    0.40
   3  -7   1    3.44    0.61
  -3  -7  -1    4.05    0.56
   3  -7   1    2.05    1.04
  -3  -7  -1    3.50    0.63
   3  -7   1    3.22    0.54
  -3  -7  -1    3.40    0.49
  -3  -7  -1    2.39    0.80
   3   7   1    3.60    0.56
   3   7   1    4.72    0.64
  -3   7  -1    3.66    0.32
  -3   7  -1    4.13    0.84
  -3   7  -1    3.95    0.60
   3   7   1    4.30    0.61
  -3   7  -1    3.97    0.37
  -4  -7  -1   26.92    1.98
   4  -7   1   27.55    2.23
  -4  -7  -1   27.99    1.86
   4  -7   1   26.75    2.08
  -4  -7  -1   27.75    2.12
   4   7   1   26.42    2.02
   4   7   1   26.95    2.05
  -4   7  -1   29.12    1.77
  -4   7  -1   29.59    2.35
   4   7   1   30.56    2.03
  -4   7  -1   29.12    2.06
  -4   7  -1   28.70    1.83
   5  -7   1   -0.37    1.10
  -5  -7  -1    0.36    0.30
  -5  -7  -1    0.75    0.39
   5  -7   1    0.66    0.64
   5  -7   1   -0.11    0.54
   5   7   1    0.81    0.46
  -5   7  -1    0.39    0.78
  -5   7  -1    0.28    0.30
   5   7   1    1.14    0.61
   5   7   1    0.19    0.55
  -5   7  -1    1.57    0.89
  -6  -7  -1    5.44    0.75
   6  -7   1    2.66    1.76
   6  -7   1    4.07    0.92
   6   7   1    5.00    0.99
   6   7   1    5.13    1.16
  -6   7  -1    4.31    1.14
  -6   7  -1    4.53    0.60
   7  -7   1    0.69    2.00
  -7   7  -1    3.68    2.13
  -6  -8   1   -0.58    0.54
   6  -8  -1    0.84    1.81
   6  -8  -1    0.28    0.88
   6  -8  -1    1.53    0.92
  -6  -8   1    0.89    0.44
  -6   8   1   -0.12    1.06
  -6   8   1    0.06    0.40
   5  -8  -1    1.92    1.48
   5  -8  -1    1.86    0.76
   5  -8  -1   -0.41    0.66
  -5  -8   1    0.92    0.38
  -5  -8   1    0.39    0.51
   5   8  -1    1.69    0.81
   5   8  -1    1.81    0.65
  -5   8   1    0.32    0.85
  -5   8   1    0.83    0.31
   5   8  -1    1.07    0.46
  -4  -8   1   15.59    1.11
   4  -8  -1   14.07    1.45
  -4  -8   1   13.97    1.32
   4  -8  -1   13.58    1.53
  -4  -8   1   15.18    1.28
  -4   8   1   17.49    1.69
  -4   8   1   14.13    1.07
   4   8  -1   14.06    1.32
   4   8  -1   16.28    1.32
  -4   8   1   15.67    1.07
   3  -8  -1    0.55    1.01
  -3  -8   1    1.41    0.46
  -3  -8   1    0.90    0.66
  -3  -8   1    1.61    0.49
  -3  -8   1    1.17    0.41
  -3  -8   1    0.92    0.22
   3  -8  -1    1.46    0.52
   3  -8  -1    1.48    0.58
  -3  -8   1    0.99    0.40
   3   8  -1    0.90    0.38
  -3   8   1    1.00    0.21
  -3   8   1    0.97    0.56
   3   8  -1    1.71    0.44
  -3   8   1    2.50    0.72
  -3   8   1    1.43    0.24
  -2  -8   1   66.78    4.39
  -2  -8   1   66.55    4.61
   2  -8  -1   71.93    4.63
  -2  -8   1   71.68    4.78
  -2  -8   1   72.08    4.59
   2  -8  -1   64.80    4.63
  -2  -8   1   70.64    4.60
  -2  -8   1   71.66    4.60
  -2  -8   1   75.01    4.71
  -2   8   1   74.48    4.74
  -2   8   1   73.97    4.39
   2   8  -1   72.70    4.50
  -2   8   1   74.55    4.40
   2   8  -1   72.45    4.59
  -2   8   1   82.04    4.72
  -1  -8   1    3.26    0.53
  -1  -8   1    2.97    0.58
  -1  -8   1    3.25    0.31
   1  -8  -1    2.49    0.45
  -1  -8   1    4.13    0.72
   1  -8  -1    3.22    0.60
  -1  -8   1    2.78    0.49
   1  -8  -1    1.65    0.81
   1  -8  -1    2.98    0.58
  -1  -8   1    3.21    0.80
  -1   8   1    2.82    0.35
  -1   8   1    2.98    0.87
   1   8  -1    3.35    0.44
   1   8  -1    3.72    0.58
  -1   8   1    3.18    0.31
   0  -8   1   36.14    2.42
   0  -8   1   33.96    2.42
   0  -8  -1   36.89    2.42
   0  -8   1   31.79    2.78
   0  -8  -1   31.85    2.45
   0  -8  -1   33.95    2.22
   0  -8   1   33.98    2.21
   0  -8  -1   37.20    2.37
   0  -8   1   37.68    2.38
   0   8  -1   39.40    2.55
   0   8   1   38.02    2.26
   0   8   1   36.64    2.48
   0   8  -1   37.13    2.25
   1  -8   1   12.33    1.04
  -1  -8  -1   10.74    1.07
  -1  -8  -1   10.26    1.27
  -1  -8  -1   11.39    1.02
   1  -8   1   11.37    1.05
   1  -8   1   12.19    0.96
   1  -8   1    8.69    1.57
  -1  -8  -1   11.61    1.04
  -1  -8  -1   12.02    0.98
  -1  -8  -1   11.38    0.81
  -1   8  -1   12.82    0.82
   1   8   1   11.86    0.88
   1   8   1   12.71    1.10
  -1   8  -1   14.56    1.36
  -1   8  -1   11.71    0.78
   2  -8   1    0.28    0.79
  -2  -8  -1    0.77    0.44
  -2  -8  -1    0.19    0.17
  -2  -8  -1    0.03    0.34
   2  -8   1    0.68    0.41
  -2  -8  -1    0.01    0.41
  -2  -8  -1    0.80    0.34
   2  -8   1   -0.03    0.35
  -2  -8  -1    0.28    0.31
  -2   8  -1    0.93    0.45
  -2   8  -1    0.44    0.16
  -2   8  -1    1.01    0.64
   2   8   1    0.49    0.40
  -2   8  -1    0.79    0.16
  -2   8  -1    0.85    0.37
   3  -8   1    7.74    2.00
  -3  -8  -1   10.24    1.07
  -3  -8  -1   12.02    1.13
   3  -8   1   11.58    1.17
  -3  -8  -1   12.54    1.15
   3  -8   1   12.10    1.21
  -3  -8  -1   11.22    1.02
  -3  -8  -1   11.51    0.86
  -3   8  -1   11.94    1.42
  -3   8  -1   11.61    0.78
  -3   8  -1   10.61    1.07
   3   8   1   12.41    1.14
  -3   8  -1   12.21    0.82
  -4  -8  -1   19.51    1.45
  -4  -8  -1   20.91    1.56
   4  -8   1   20.82    1.79
  -4  -8  -1   19.84    1.64
   4  -8   1   22.51    1.92
  -4   8  -1   22.29    2.06
   4   8   1   23.42    1.70
   4   8   1   19.19    1.72
  -4   8  -1   21.50    1.43
  -5  -8  -1    4.53    0.71
   5  -8   1    4.97    0.94
   5  -8   1    3.94    0.92
   5  -8   1    2.13    1.57
  -5  -8  -1    4.47    0.64
  -5   8  -1    4.71    0.68
  -5   8  -1    4.47    1.11
  -6  -8  -1   15.60    1.32
  -6  -8  -1   14.67    1.47
   6  -8   1   18.59    1.96
  -6   8  -1   17.07    2.27
  -5  -9   1    4.39    0.80
   5  -9  -1    3.42    1.00
   5  -9  -1    4.70    1.14
   5  -9  -1    3.21    2.01
  -5  -9   1    3.62    0.54
  -5   9   1    5.67    1.32
   4  -9  -1    2.62    0.76
   4  -9  -1    2.77    1.63
  -4  -9   1    2.64    0.69
  -4  -9   1    2.22    0.39
  -4  -9   1    2.70    0.69
   4  -9  -1    2.74    0.85
  -4   9   1    2.90    0.41
  -4   9   1    4.79    1.06
   4   9  -1    2.44    0.74
   3  -9  -1   27.25    2.24
  -3  -9   1   27.95    2.10
  -3  -9   1   27.33    1.83
   3  -9  -1   28.06    2.22
  -3  -9   1   28.18    2.20
  -3  -9   1   28.09    2.11
  -3   9   1   27.25    2.42
  -3   9   1   30.15    1.83
   3   9  -1   29.65    2.14
   2  -9  -1    1.53    0.53
  -2  -9   1    2.04    0.50
  -2  -9   1    1.70    0.26
   2  -9  -1    0.66    0.54
  -2  -9   1    1.22    0.48
  -2  -9   1    1.76    0.66
   2  -9  -1    0.09    1.04
   2   9  -1    2.21    0.59
  -2   9   1    2.05    0.27
  -2   9   1    1.69    0.73
  -2   9   1    0.95    0.26
  -1  -9   1   27.34    2.10
  -1  -9   1   28.51    1.82
  -1  -9   1   30.82    2.22
   1  -9  -1   26.78    2.13
  -1  -9   1   30.36    2.09
  -1  -9   1   26.98    2.44
   1  -9  -1   30.12    2.10
  -1   9   1   28.29    1.81
   1   9  -1   26.15    1.92
  -1   9   1   32.02    2.25
  -1   9   1   29.18    1.86
   0  -9  -1    9.39    1.11
   0  -9   1    9.78    0.70
   0  -9   1   10.53    1.04
   0  -9  -1   10.33    1.01
   0  -9  -1    9.83    0.73
   0  -9   1    9.47    1.59
   0  -9  -1    9.91    0.92
   0  -9   1    9.37    0.99
   0  -9   1    9.94    0.98
   0   9   1    8.05    1.12
   0   9  -1    9.20    1.22
   0   9  -1   10.20    0.80
   1  -9   1    6.59    1.47
  -1  -9  -1    8.46    1.04
  -1  -9  -1    9.05    0.97
  -1  -9  -1    8.98    0.96
   1  -9   1    9.53    0.97
   1  -9   1    6.77    1.00
  -1  -9  -1    8.32    0.67
  -1   9  -1    9.38    0.63
   1   9   1   10.12    1.05
  -1   9  -1    7.83    1.10
  -2  -9  -1   11.76    1.15
  -2  -9  -1   11.23    1.22
   2  -9   1   10.23    1.19
  -2  -9  -1   11.42    0.87
   2  -9   1   11.82    1.23
  -2   9  -1   12.57    0.83
   2   9   1   12.71    1.23
  -2   9  -1   13.57    1.58
   3  -9   1    1.48    0.63
  -3  -9  -1    3.06    0.64
  -3  -9  -1    3.02    0.40
   3  -9   1    2.55    1.34
  -3  -9  -1    2.58    0.65
   3  -9   1    2.38    0.66
  -3   9  -1    2.83    0.42
  -3   9  -1    2.10    0.85
   3   9   1    2.91    0.67
   4  -9   1    8.19    1.50
  -4  -9  -1    8.00    0.76
  -4  -9  -1    7.68    1.03
   4  -9   1    8.92    1.19
  -4  -9  -1    7.11    1.11
  -4   9  -1    8.44    1.32
   4   9   1    8.44    1.09
  -5  -9  -1   11.82    1.08
   5  -9   1   12.67    1.75
  -5  -9  -1   12.20    1.41
  -5   9  -1   15.57    2.10
   5   9   1   12.99    1.71
  -4 -10   1    1.87    0.40
   4 -10  -1    2.75    1.97
   4 -10  -1    3.06    0.95
  -4 -10   1    2.91    0.83
  -4  10   1    3.02    1.22
   3 -10  -1    1.56    0.71
  -3 -10   1    1.13    0.63
   3 -10  -1    1.93    0.84
  -3 -10   1    0.66    0.30
  -3  10   1    1.98    1.02
  -3  10   1    1.88    0.49
   3  10  -1    1.23    0.80
  -2 -10   1    4.12    0.71
  -2 -10   1    2.88    0.72
   2 -10  -1    3.55    0.86
  -2 -10   1    4.32    0.47
   2 -10  -1    4.23    0.88
   2 -10  -1    1.34    1.50
  -2  10   1    4.41    0.48
  -2  10   1    4.72    1.03
   2  10  -1    3.67    0.88
   1 -10  -1    4.56    0.88
   1 -10  -1    4.70    0.91
  -1 -10   1    6.18    0.88
  -1 -10   1    5.25    0.91
  -1 -10   1    4.86    0.49
  -1  10   1    5.46    0.49
   1  10  -1    4.00    0.86
  -1  10   1    5.03    0.95
   0 -10  -1    2.00    0.64
   0 -10   1    1.76    0.29
   0 -10   1    2.72    1.20
   0 -10   1    2.85    0.70
   0 -10  -1    3.22    0.65
   0 -10   1    2.15    0.58
   0  10  -1    2.48    0.83
   0  10   1    1.29    0.71
  -1 -10  -1   21.32    1.98
  -1 -10  -1   23.89    1.61
  -1 -10  -1   24.20    1.98
   1 -10   1   25.59    1.94
   1 -10   1   18.94    1.94
   1  10   1   28.88    2.07
  -1  10  -1   23.44    2.28
  -1  10  -1   26.30    1.57
  -2 -10  -1    1.38    0.54
   2 -10   1    1.22    0.66
   2 -10   1    1.70    0.66
  -2 -10  -1    1.58    0.31
  -2 -10  -1    0.65    0.62
   2  10   1    1.66    0.66
  -2  10  -1    0.86    0.84
  -3 -10  -1   15.55    1.69
  -3 -10  -1   19.94    1.64
  -3 -10  -1   16.51    1.25
   3 -10   1   16.66    1.78
   3  10   1   17.08    1.75
  -3  10  -1   17.70    2.20
   1 -11  -1   15.18    1.75
  -1 -11   1   14.24    1.67
   1 -11  -1   16.70    1.61
  -1  11   1   15.22    2.00
   1  11  -1   17.27    2.04
   0 -11  -1    6.04    0.63
   0 -11  -1    6.74    1.11
   0 -11  -1    4.54    0.97
   0 -11   1    5.58    0.98
   0  11  -1    4.58    1.23
   0  11   1    4.32    1.04
  -1 -11  -1    2.65    0.40
  -1 -11  -1    2.49    0.84
  -1 -11  -1    2.51    0.73
   1 -11   1    1.76    0.84
   1  11   1    3.09    0.93
  -1  11  -1    4.48    1.26
   9   0  -2   14.34    3.41
  -9   0   2   12.64    1.22
  -9   0   2   14.26    1.61
   8   0  -2   31.34    2.91
  -8   0   2   34.00    2.13
   8   0  -2   28.03    4.24
  -8   0   2   33.00    2.27
  -8   0   2   34.86    2.46
  -7   0   2  101.19    6.17
   7   0  -2   95.78    6.71
  -7   0   2   97.73    6.28
   7   0  -2  108.34    6.53
  -7   0   2  104.92    6.41
  -7   0   2  100.55    6.28
  -6   0   2   42.93    2.79
  -6   0   2   41.73    2.79
  -6   0   2   45.40    2.70
   6   0  -2   49.54    3.02
  -6   0   2   45.63    3.15
   6   0  -2   34.85    3.97
   6   0  -2   39.63    3.14
  -6   0   2   41.77    2.89
  -5   0   2  159.31    9.83
  -5   0   2  169.72    9.92
  -5   0   2  161.00    9.75
  -5   0   2  181.05    9.87
   5   0  -2  139.22   10.06
  -5   0   2  164.01   10.10
   5   0  -2  157.85    9.93
   4   0  -2  507.59   36.19
  -4   0   2  618.23   35.68
  -4   0   2  622.30   35.39
  -4   0   2  603.04   35.45
   4   0  -2  610.93   35.46
   3   0  -2   81.56    4.83
  -3   0   2   76.70    4.94
  -3   0   2   90.24    4.83
   3   0  -2   81.23    4.79
   3   0  -2   65.08    4.89
   3   0  -2   67.02    5.25
  -3   0   2   83.66    4.77
  -2   0   2  595.82   34.48
  -2   0   2  555.95   34.63
  -1   0   2   26.52    1.76
  -1   0   2   26.77    1.84
   1   0  -2   27.83    1.69
  -1   0   2   24.84    1.74
  -1   0   2   28.70    1.70
   1   0  -2   30.41    1.70
   1   0  -2   30.47    1.84
   0   0   2    7.46    0.53
   0   0   2    8.30    0.53
   0   0  -2    7.58    0.52
   0   0   2    8.54    0.49
   0   0  -2    8.12    0.53
   0   0  -2    7.98    0.49
   1   0   2   22.99    1.70
   1   0   2   25.19    1.51
  -1   0  -2   26.61    1.63
   1   0   2   23.54    1.53
   1   0   2   26.22    1.63
  -1   0  -2   27.17    1.53
   1   0   2   22.31    1.60
   1   0   2   26.23    1.53
  -1   0  -2   26.98    1.69
  -2   0  -2  579.91   34.72
   3   0   2    1.56    0.61
  -3   0  -2    2.34    0.43
   3   0   2    2.92    0.31
   3   0   2    2.16    0.43
  -3   0  -2    2.49    0.19
  -3   0  -2    1.71    0.60
  -3   0  -2    2.76    0.18
   3   0   2    2.22    0.44
  -3   0  -2    2.28    0.42
  -3   0  -2    2.44    0.28
   4   0   2  949.07   54.90
  -4   0  -2  920.21   54.80
   4   0   2  970.03   54.68
  -4   0  -2  853.48   55.40
  -4   0  -2  883.16   54.62
   5   0   2  132.28    7.38
   5   0   2  133.26    7.11
  -5   0  -2   95.57    7.82
  -5   0  -2  100.98    7.26
  -5   0  -2  108.97    7.01
  -5   0  -2  115.72    6.91
  -5   0  -2  119.04    7.22
  -6   0  -2  136.30    9.69
  -6   0  -2  162.29    9.62
  -6   0  -2  160.18    9.40
  -6   0  -2  165.49    9.26
  -6   0  -2  152.56    9.26
   6   0   2  148.29    9.81
  -7   0  -2   61.56    3.83
  -7   0  -2   62.87    4.10
  -7   0  -2   54.33    4.22
   7   0   2   61.89    4.39
  -8   0  -2    9.32    0.89
  -8   0  -2    9.57    1.39
   8   0   2    5.15    2.00
   9  -1  -2   18.50    4.16
  -9  -1   2   19.31    1.61
  -9  -1   2   24.89    2.21
   9   1  -2   21.47    4.20
  -9   1   2   19.96    1.62
  -9   1   2   21.54    2.05
  -8  -1   2   17.89    1.33
  -8  -1   2   16.36    1.47
   8  -1  -2   11.11    2.83
  -8  -1   2   16.58    1.17
   8  -1  -2   17.38    2.09
   8   1  -2   14.64    3.43
  -8   1   2   17.30    1.68
  -8   1   2   16.55    1.19
   8   1  -2   15.67    1.95
  -8   1   2   15.69    1.32
  -7  -1   2    9.06    0.91
   7  -1  -2    8.48    2.27
  -7  -1   2    9.25    0.99
  -7  -1   2    7.73    0.85
  -7  -1   2    9.18    0.73
   7  -1  -2    7.97    1.30
   7   1  -2    8.85    1.36
   7   1  -2   10.01    1.31
  -7   1   2    8.73    0.86
  -7   1   2    8.25    0.72
  -7   1   2   10.00    1.21
  -7   1   2    8.34    0.87
   7   1  -2   10.57    2.61
  -6  -1   2  121.79    6.98
  -6  -1   2   99.22    7.31
  -6  -1   2  114.39    7.09
  -6  -1   2  116.64    7.07
   6  -1  -2  121.41    7.25
  -6  -1   2  119.84    7.08
  -6   1   2  121.08    7.41
   6   1  -2  108.53    7.40
   6   1  -2  130.79    7.23
  -6   1   2  124.90    7.09
  -6   1   2  110.96    7.06
  -6   1   2  111.86    7.21
   6   1  -2   93.84    8.22
  -6   1   2  110.49    6.97
   5  -1  -2    1.40    0.50
   5  -1  -2    1.94    1.01
  -5  -1   2    1.86    0.36
   5  -1  -2    1.93    0.46
   5  -1  -2    1.57    0.33
  -5  -1   2    2.00    0.29
   5  -1  -2    1.94    0.40
  -5  -1   2    0.82    0.59
  -5  -1   2    1.77    0.53
  -5  -1   2    1.36    0.35
  -5  -1   2    1.65    0.33
  -5   1   2    1.82    0.50
  -5   1   2    2.38    0.40
   5   1  -2    2.59    0.51
   5   1  -2    2.71    1.11
   5   1  -2    1.53    0.43
  -5   1   2    1.33    0.71
  -5   1   2    1.59    0.31
  -5   1   2    3.07    0.54
   5   1  -2    2.15    0.36
  -4  -1   2   79.42    4.93
   4  -1  -2   85.47    4.98
   4  -1  -2   79.48    4.97
  -4  -1   2   75.32    4.90
  -4  -1   2   85.03    4.93
   4  -1  -2   81.88    4.89
  -4  -1   2   79.42    4.85
   4   1  -2   66.72    5.07
   4   1  -2   70.86    5.55
  -4   1   2   90.61    4.97
  -4   1   2   82.09    4.89
  -4   1   2   79.29    4.98
  -4   1   2   78.54    5.09
   4   1  -2   79.81    4.95
   3  -1  -2  104.31    6.04
  -3  -1   2  108.46    6.11
   3  -1  -2  105.92    6.15
  -3  -1   2   94.74    6.03
  -3  -1   2   99.04    6.08
   3  -1  -2  105.85    6.10
  -3   1   2  103.00    6.10
   3   1  -2   93.52    6.49
  -3   1   2   98.43    6.04
   3   1  -2   89.10    6.19
   3   1  -2   95.72    6.07
   2  -1  -2    1.11    0.13
  -2  -1   2    1.19    0.23
  -2  -1   2    1.57    0.21
  -2  -1   2    0.90    0.12
   2  -1  -2    1.13    0.17
   2  -1  -2    1.08    0.23
   2  -1  -2    1.37    0.26
   2   1  -2    1.08    0.14
   2   1  -2    1.00    0.15
   2   1  -2    1.13    0.30
   2   1  -2    0.93    0.16
  -2   1   2    0.86    0.17
  -2   1   2    1.08    0.14
  -2   1   2    1.30    0.37
  -2   1   2    1.19    0.19
  -2   1   2    0.96    0.19
  -1  -1   2   53.51    3.43
  -1  -1   2   52.22    3.41
   1  -1  -2   58.93    3.42
  -1  -1   2   55.02    3.41
   1  -1  -2   47.39    3.53
   1  -1  -2   58.92    3.47
   1  -1  -2   53.92    3.38
   1  -1  -2   58.30    3.42
  -1  -1   2   62.62    3.54
   1   1  -2   56.95    3.42
  -1   1   2   59.49    3.41
  -1   1   2   53.70    3.41
   1   1  -2   58.90    3.41
   1   1  -2   53.64    3.40
  -1   1   2   56.49    3.38
  -1   1   2   61.91    3.47
   0  -1   2  131.43    9.17
   0  -1  -2  150.26    9.17
   0  -1  -2  165.68    9.17
   0  -1   2  153.43    9.19
   0   1  -2  151.98    9.19
   0   1   2  153.64    9.17
   0   1  -2  150.09    9.13
   0   1   2  165.43    9.16
  -1  -1  -2    5.03    0.35
   1  -1   2    5.35    0.35
  -1  -1  -2    5.32    0.41
  -1  -1  -2    4.89    0.45
   1  -1   2    3.83    0.47
   1  -1   2    5.03    0.54
   1  -1   2    4.99    0.34
   1  -1   2    5.00    0.41
   1   1   2    4.91    0.33
   1   1   2    5.31    0.44
  -1   1  -2    5.76    0.51
  -1   1  -2    5.50    0.34
   1   1   2    4.96    0.35
   1   1   2    6.23    0.42
   2  -1   2   51.42    3.01
  -2  -1  -2   49.07    3.03
   2  -1   2   49.81    3.05
  -2  -1  -2   47.10    3.12
  -2  -1  -2   45.72    3.10
   2  -1   2   41.19    3.14
   2  -1   2   48.15    3.24
  -2   1  -2   49.37    3.03
   2   1   2   53.01    3.13
   2   1   2   52.25    3.04
   2   1   2   53.52    2.98
   2   1   2   53.70    3.13
  -2   1  -2   50.26    3.16
  -2   1  -2   49.91    3.41
  -2   1  -2   56.09    3.00
  -2   1  -2   43.99    3.20
  -3  -1  -2   44.11    3.43
   3  -1   2   58.27    3.29
  -3  -1  -2   54.79    3.31
  -3  -1  -2   52.58    3.42
  -3  -1  -2   58.31    3.26
   3  -1   2   57.86    3.42
   3  -1   2   57.14    3.58
   3   1   2   53.00    3.48
  -3   1  -2   52.58    3.53
   3   1   2   55.70    3.47
  -3   1  -2   52.33    3.92
   3   1   2   57.81    3.34
  -3   1  -2   49.06    3.47
  -3   1  -2   50.17    3.31
  -4  -1  -2    1.25    0.25
   4  -1   2    0.75    0.39
  -4  -1  -2    0.97    0.57
   4  -1   2    0.20    0.52
   4  -1   2    1.12    0.26
   4  -1   2    1.04    0.43
  -4  -1  -2    0.86    0.15
   4  -1   2    1.08    0.22
  -4  -1  -2    0.69    0.32
   4   1   2    0.82    0.37
   4   1   2    1.14    0.69
  -4   1  -2    1.27    0.38
   4   1   2    1.35    0.26
  -4   1  -2    1.52    0.25
   4   1   2    0.70    0.31
  -4   1  -2    1.07    0.16
  -4   1  -2    1.57    0.48
  -4   1  -2    1.28    0.76
  -5  -1  -2   33.97    2.43
  -5  -1  -2   32.10    2.27
   5  -1   2   39.93    2.35
  -5  -1  -2   36.29    2.18
   5  -1   2   38.85    2.67
  -5  -1  -2   29.07    2.50
   5  -1   2   35.19    2.28
   5   1   2   35.42    2.36
  -5   1  -2   35.36    2.59
  -5   1  -2   29.01    3.17
  -5   1  -2   38.63    2.29
  -5   1  -2   39.50    2.20
   5   1   2   35.69    2.59
   5   1   2   31.75    2.59
  -5   1  -2   36.88    2.56
  -6  -1  -2   63.15    3.83
   6  -1   2   50.19    4.17
  -6  -1  -2   50.75    4.10
  -6  -1  -2   62.34    3.68
  -6  -1  -2   58.38    3.98
  -6  -1  -2   58.85    3.65
  -6   1  -2   61.27    4.19
  -6   1  -2   60.73    3.67
  -6   1  -2   62.37    3.82
   6   1   2   61.41    4.26
   6   1   2   71.84    4.31
  -6   1  -2   65.62    3.70
  -6   1  -2   61.15    4.09
  -7  -1  -2    0.86    0.76
   7  -1   2    0.71    0.75
   7  -1   2    0.65    1.23
  -7  -1  -2    1.04    0.34
  -7   1  -2    0.39    0.64
  -7   1  -2    1.73    0.70
  -7   1  -2    1.23    0.21
   7   1   2    0.86    0.72
   7   1   2   -0.26    1.21
  -7   1  -2    1.56    0.37
  -8  -1  -2   39.88    2.57
  -8  -1  -2   40.16    2.87
  -8   1  -2   35.89    2.54
  -8   1  -2   36.82    2.93
  -9  -2   2    4.53    0.72
   9  -2  -2    2.50    2.56
  -9   2   2    3.76    1.12
   9   2  -2    4.77    2.33
  -9   2   2    3.43    0.62
  -8  -2   2   44.90    3.01
   8  -2  -2   44.31    3.67
  -8  -2   2   45.79    2.87
   8  -2  -2   36.64    4.93
  -8  -2   2   45.30    3.06
  -8   2   2   45.75    3.37
   8   2  -2   52.08    3.65
   8   2  -2   44.20    5.09
  -8   2   2   45.14    3.02
  -8   2   2   46.71    2.90
   7  -2  -2  140.76    8.61
  -7  -2   2  136.14    8.52
  -7  -2   2  141.09    8.53
  -7  -2   2  143.49    8.41
  -7  -2   2  130.77    8.51
  -7   2   2  141.20    8.51
  -7   2   2  141.81    8.76
   7   2  -2  142.13    8.95
  -7   2   2  136.57    8.52
   7   2  -2  132.49   10.08
   6  -2  -2   -0.16    0.44
   6  -2  -2    0.99    0.57
  -6  -2   2   -0.02    0.25
   6  -2  -2    0.11    0.37
  -6  -2   2    0.72    0.53
  -6  -2   2    0.35    0.31
  -6  -2   2    0.07    0.21
   6  -2  -2    0.51    1.06
  -6  -2   2    1.77    0.41
  -6   2   2    0.27    0.49
  -6   2   2    0.65    0.48
  -6   2   2    0.40    0.27
   6   2  -2    1.14    0.57
  -6   2   2    0.60    0.34
   6   2  -2   -0.03    0.45
   6   2  -2    0.87    0.97
  -5  -2   2  134.21    8.21
   5  -2  -2  133.87    8.25
   5  -2  -2  144.56    8.42
  -5  -2   2  135.43    8.29
  -5  -2   2  126.41    8.24
  -5  -2   2  138.86    8.29
   5  -2  -2  130.68    8.36
   5   2  -2  139.60    8.34
  -5   2   2  125.86    8.24
   5   2  -2  125.90    9.14
   5   2  -2  145.91    8.36
  -5   2   2  142.22    8.51
  -5   2   2  150.86    8.33
   5   2  -2  127.87    8.51
  -5   2   2  132.98    8.41
  -4  -2   2   65.56    3.98
  -4  -2   2   67.42    4.05
   4  -2  -2   63.92    4.10
  -4  -2   2   60.53    3.97
   4  -2  -2   53.27    4.18
   4  -2  -2   65.22    3.98
  -4  -2   2   62.03    4.04
   4  -2  -2   62.12    4.09
  -4   2   2   64.34    3.99
  -4   2   2   64.54    4.11
   4   2  -2   65.33    4.07
  -4   2   2   72.69    4.20
   4   2  -2   69.07    4.09
  -4   2   2   71.80    4.09
   4   2  -2   62.54    4.19
   4   2  -2   68.45    3.99
   4   2  -2   63.08    4.60
   3  -2  -2   23.19    1.76
   3  -2  -2   25.78    1.69
  -3  -2   2   24.60    1.66
  -3  -2   2   21.95    1.73
  -3  -2   2   24.75    1.62
  -3  -2   2   24.86    1.58
   3  -2  -2   25.77    1.72
   3  -2  -2   26.45    1.59
  -3   2   2   26.22    1.72
   3   2  -2   25.27    1.68
  -3   2   2   27.04    1.73
  -3   2   2   29.04    1.73
   3   2  -2   23.50    1.63
   3   2  -2   29.27    1.62
   3   2  -2   24.74    1.74
  -3   2   2   24.63    1.60
   3   2  -2   24.52    1.95
  -2  -2   2  124.11    7.53
   2  -2  -2  119.84    7.43
   2  -2  -2  119.82    7.54
  -2  -2   2  119.39    7.70
  -2  -2   2  123.52    7.47
   2  -2  -2  122.80    7.54
  -2  -2   2  112.46    7.48
   2  -2  -2  125.21    7.50
  -2   2   2  135.88    7.56
  -2   2   2  119.83    7.43
   2   2  -2  127.32    7.42
  -2   2   2  125.24    7.50
  -2   2   2  129.92    7.51
   2   2  -2  138.67    7.70
   2   2  -2  116.34    7.50
   1  -2  -2  569.97   36.75
   1   2  -2  654.88   36.54
   0  -2   2    4.96    0.36
   0  -2  -2    4.47    0.41
   0  -2   2    5.24    0.32
   0  -2   2    5.25    0.37
   0  -2   2    5.38    0.40
   0  -2   2    5.04    0.45
   0   2   2    4.83    0.41
   0   2   2    5.60    0.38
   0   2  -2    5.05    0.33
   0   2   2    5.70    0.35
   0   2  -2    5.45    0.43
   0   2  -2    4.75    0.37
   0   2  -2    5.18    0.37
   1  -2   2 1000.00   59.69
  -2  -2  -2   34.64    2.19
   2  -2   2   33.63    2.10
  -2  -2  -2   36.00    2.13
  -2  -2  -2   33.13    2.17
  -2  -2  -2   33.06    2.11
   2  -2   2   32.77    2.30
   2  -2   2   32.09    2.23
  -2   2  -2   38.12    2.22
  -2   2  -2   29.68    2.29
   2   2   2   35.76    2.08
   2   2   2   35.57    2.13
  -2   2  -2   35.01    2.11
  -2   2  -2   33.35    2.12
  -2   2  -2   35.19    2.48
   2   2   2   35.21    2.17
  -3  -2  -2  185.63   10.78
  -3  -2  -2  154.10   10.80
  -3  -2  -2  181.10   10.65
   3  -2   2  154.51   10.90
  -3  -2  -2  175.18   10.70
   3  -2   2  159.15   10.87
   3  -2   2  184.55   10.69
   3  -2   2  168.61   10.69
   3   2   2  181.03   10.64
  -3   2  -2  193.42   10.87
  -3   2  -2  184.08   10.70
  -3   2  -2  152.99   10.89
  -3   2  -2  201.94   10.69
   3   2   2  176.48   10.80
   3   2   2  193.01   10.83
  -3   2  -2  187.08   11.37
   3   2   2  189.11   10.72
  -4  -2  -2   22.56    1.72
   4  -2   2   25.44    1.98
  -4  -2  -2   23.62    1.55
   4  -2   2   23.48    1.64
  -4  -2  -2   22.72    1.63
   4  -2   2   24.61    1.63
   4   2   2   26.53    1.68
  -4   2  -2   26.30    1.86
   4   2   2   25.81    1.83
  -4   2  -2   27.92    1.60
  -4   2  -2   23.84    1.89
   4   2   2   26.17    1.55
  -4   2  -2   23.34    2.43
   4   2   2   25.58    1.82
  -4   2  -2   25.58    1.64
   5  -2   2  113.70    6.53
   5  -2   2  113.08    6.84
   5  -2   2  106.22    6.44
  -5  -2  -2  101.08    6.55
  -5  -2  -2  102.17    6.44
  -5  -2  -2  105.68    6.37
   5   2   2  106.99    6.69
  -5   2  -2  102.42    6.72
  -5   2  -2  108.91    6.74
   5   2   2   95.08    6.79
  -5   2  -2   91.12    8.43
  -5   2  -2  110.68    6.44
   5   2   2  107.19    6.53
   6  -2   2    2.93    0.50
  -6  -2  -2    1.71    0.63
   6  -2   2    2.60    0.43
  -6  -2  -2    2.06    0.30
   6  -2   2    1.41    0.60
  -6  -2  -2    1.80    0.46
  -6  -2  -2    3.94    0.66
   6  -2   2    1.34    0.95
   6   2   2    2.34    0.68
   6   2   2    2.27    0.86
  -6   2  -2    2.65    0.71
  -6   2  -2    2.23    0.37
  -6   2  -2    3.28    0.37
  -6   2  -2    2.27    0.70
   6   2   2    1.06    1.12
  -7  -2  -2  223.16   12.37
   7  -2   2  177.97   12.80
  -7  -2  -2  208.61   12.66
   7   2   2  174.39   13.74
  -7   2  -2  227.18   12.34
  -7   2  -2  217.79   12.69
  -7   2  -2  205.96   12.19
   7   2   2  189.00   12.74
  -8  -2  -2   34.01    2.64
  -8  -2  -2   36.12    2.39
  -8   2  -2   34.82    2.83
  -8   2  -2   35.30    2.35
   8   2   2   31.70    4.48
   8  -3  -2    2.31    1.11
  -8  -3   2    2.43    0.41
  -8  -3   2    1.99    0.58
   8  -3  -2    3.14    0.81
  -8  -3   2    1.37    0.46
   8  -3  -2    1.16    1.69
  -8   3   2    3.19    0.55
   8   3  -2    2.69    0.92
   8   3  -2    3.11    1.76
  -8   3   2    2.36    0.96
  -7  -3   2   29.45    2.41
  -7  -3   2   36.34    2.38
  -7  -3   2   36.38    2.36
   7  -3  -2   36.58    2.56
  -7  -3   2   34.30    2.26
   7   3  -2   36.21    2.79
   7   3  -2   39.84    2.63
  -7   3   2   34.00    2.75
  -7   3   2   32.30    2.35
   7   3  -2   34.37    3.87
  -6  -3   2   14.51    1.01
   6  -3  -2    8.99    2.70
   6  -3  -2   13.62    1.28
  -6  -3   2   12.23    1.05
  -6  -3   2   12.71    1.15
   6  -3  -2   10.61    1.48
  -6  -3   2   15.82    1.12
  -6   3   2   15.47    1.43
   6   3  -2   14.00    1.41
  -6   3   2   12.50    1.07
   6   3  -2   17.14    2.21
  -6   3   2   15.14    1.16
  -6   3   2   12.33    1.37
  -5  -3   2   27.31    1.62
  -5  -3   2   24.18    1.60
   5  -3  -2   23.51    1.59
  -5  -3   2   22.70    1.66
   5  -3  -2   25.43    1.78
   5  -3  -2   20.30    1.93
   5  -3  -2   24.18    1.84
   5   3  -2   25.33    1.75
  -5   3   2   22.47    1.61
  -5   3   2   25.75    1.84
   5   3  -2   23.07    2.31
   5   3  -2   24.10    1.86
  -5   3   2   23.10    1.81
   5   3  -2   24.44    1.60
  -5   3   2   25.40    1.72
   4  -3  -2    3.88    0.67
   4  -3  -2    4.93    0.60
  -4  -3   2    4.58    0.46
   4  -3  -2    4.69    0.62
  -4  -3   2    4.48    0.49
  -4  -3   2    4.52    0.63
   4  -3  -2    4.64    0.41
   4   3  -2    6.22    0.60
   4   3  -2    4.99    0.44
   4   3  -2    4.81    0.56
   4   3  -2    5.98    0.55
   4   3  -2    5.73    0.94
  -4   3   2    4.96    0.60
  -4   3   2    5.97    0.60
  -4   3   2    4.36    0.63
  -4   3   2    4.59    0.44
  -4   3   2    4.95    1.18
   4   3  -2    4.90    0.62
  -3  -3   2  286.45   17.82
  -3  -3   2  251.24   18.02
   3  -3  -2  317.23   17.80
   3  -3  -2  284.73   17.66
   3  -3  -2  292.39   17.86
  -3  -3   2  288.61   17.71
   3  -3  -2  297.99   17.80
  -3  -3   2  295.34   17.73
   3   3  -2  299.70   17.69
   3   3  -2  307.77   17.70
   3   3  -2  299.28   17.68
  -3   3   2  333.55   17.82
  -3   3   2  302.54   17.79
   3   3  -2  270.83   17.76
  -3   3   2  300.80   17.68
   3   3  -2  332.32   18.07
  -3   3   2  263.77   17.78
  -2  -3   2   13.03    0.85
   2  -3  -2   11.91    0.90
   2  -3  -2   12.91    0.92
   2  -3  -2   12.25    0.93
  -2  -3   2   12.51    0.86
  -2  -3   2   13.86    0.85
  -2   3   2   11.95    0.90
  -2   3   2   12.89    0.82
  -2   3   2   13.59    0.89
   2   3  -2   11.76    0.82
  -2   3   2   11.61    0.81
   2   3  -2   12.45    0.89
   2   3  -2   13.09    0.89
  -2   3   2   13.30    0.93
   2   3  -2   12.57    0.85
  -1  -3   2  199.12   11.72
  -1  -3   2  195.63   11.67
   1  -3  -2  195.99   11.75
   1  -3  -2  198.33   11.77
   1  -3  -2  186.88   11.67
  -1  -3   2  197.43   11.69
   1  -3  -2  192.72   11.72
  -1  -3   2  187.95   11.71
   1   3  -2  201.44   11.71
  -1   3   2  204.09   11.72
  -1   3   2  208.66   11.75
  -1   3   2  184.46   11.91
  -1   3   2  195.35   11.74
   1   3  -2  184.43   11.70
   1   3  -2  196.58   11.70
   1   3  -2  188.82   11.71
  -1   3   2  201.60   11.67
   0  -3  -2   48.57    3.19
   0  -3   2   55.22    3.20
   0  -3   2   54.91    3.32
   0  -3  -2   52.28    3.22
   0  -3  -2   50.39    3.18
   0  -3   2   53.69    3.20
   0  -3   2   53.37    3.19
   0  -3   2   54.00    3.12
   0  -3  -2   54.83    3.15
   0  -3   2   55.55    3.19
   0   3  -2   44.49    3.23
   0   3   2   51.12    3.19
   0   3  -2   53.04    3.20
   0   3  -2   52.97    3.27
   0   3   2   48.07    3.22
   0   3   2   51.79    3.15
   0   3  -2   49.65    3.13
   0   3   2   54.27    3.15
  -1  -3  -2    1.80    0.19
  -1  -3  -2    1.24    0.16
  -1  -3  -2    1.40    0.21
  -1  -3  -2    1.18    0.28
   1  -3   2    1.27    0.20
   1  -3   2    1.74    0.23
   1  -3   2    2.03    0.29
   1   3   2    1.60    0.18
   1   3   2    1.56    0.17
  -1   3  -2    1.38    0.35
  -1   3  -2    1.55    0.11
   1   3   2    1.64    0.26
  -1   3  -2    1.36    0.20
  -1   3  -2    2.21    0.36
   1   3   2    1.32    0.16
   2  -3   2   54.63    3.67
   2  -3   2   55.07    3.50
  -2  -3  -2   61.40    3.56
  -2  -3  -2   51.92    3.49
   2  -3   2   56.21    3.43
  -2  -3  -2   60.28    3.49
   2  -3   2   56.88    3.61
   2   3   2   56.43    3.61
  -2   3  -2   64.99    3.57
  -2   3  -2   53.27    3.54
   2   3   2   58.42    3.47
   2   3   2   56.32    3.55
   2   3   2   56.96    3.75
  -2   3  -2   60.22    3.86
  -2   3  -2   59.93    3.57
   2   3   2   56.67    3.52
   2   3   2   58.03    3.50
  -2   3  -2   50.79    3.66
  -3  -3  -2  190.60   11.76
  -3  -3  -2  192.74   11.64
   3  -3   2  163.82   11.84
   3  -3   2  191.65   11.59
   3  -3   2  171.66   12.15
   3  -3   2  187.26   11.65
  -3  -3  -2  192.91   11.62
   3   3   2  181.24   11.80
   3   3   2  216.22   11.74
  -3   3  -2  222.25   11.66
  -3   3  -2  191.18   11.88
  -3   3  -2  218.19   12.33
  -3   3  -2  182.82   11.63
   3   3   2  171.56   12.04
   3   3   2  209.87   11.67
   3   3   2  196.68   11.59
   3   3   2  209.26   11.73
   4  -3   2    3.55    0.45
  -4  -3  -2    3.45    0.39
  -4  -3  -2    2.99    0.35
   4  -3   2    2.94    0.70
   4  -3   2    3.04    0.35
  -4  -3  -2    2.61    0.74
  -4  -3  -2    4.50    0.52
  -4   3  -2    3.70    0.41
   4   3   2    4.53    0.63
  -4   3  -2    4.15    1.04
  -4   3  -2    3.25    0.55
  -4   3  -2    4.64    0.40
   4   3   2    3.93    0.76
   4   3   2    4.57    0.49
  -4   3  -2    3.98    0.72
   4   3   2    3.94    0.31
   4   3   2    3.05    0.95
   5  -3   2   99.61    6.17
  -5  -3  -2   99.50    6.25
  -5  -3  -2  102.86    6.17
   5  -3   2  101.69    6.14
  -5  -3  -2   91.39    6.06
  -5   3  -2  100.03    6.49
   5   3   2   83.06    7.02
   5   3   2  112.17    6.40
  -5   3  -2  106.89    6.12
  -5   3  -2  106.33    6.15
  -6  -3  -2    9.56    1.06
  -6  -3  -2   11.23    0.80
   6  -3   2   11.92    1.02
  -6  -3  -2   11.18    0.95
   6  -3   2   10.39    0.94
   6  -3   2    7.73    1.40
  -6  -3  -2   10.68    0.93
  -6   3  -2   10.10    1.31
   6   3   2   12.57    1.33
  -6   3  -2   13.17    0.87
   6   3   2   11.21    2.36
   6   3   2   13.20    1.52
  -6   3  -2   11.51    0.91
  -6   3  -2    9.65    1.35
   7  -3   2    0.39    0.75
  -7  -3  -2    0.39    0.32
  -7  -3  -2    0.69    0.38
  -7  -3  -2    0.19    0.59
   7  -3   2    0.22    1.14
   7  -3   2    0.81    0.48
   7   3   2    1.16    1.48
  -7   3  -2    0.30    0.71
  -7   3  -2    0.66    0.36
   7   3   2    1.09    0.73
   8  -3   2    6.52    2.33
  -8  -3  -2    8.30    1.15
  -8  -3  -2    9.16    0.98
  -8   3  -2   11.33    1.52
   8   3   2   11.87    2.87
  -8   3  -2   10.16    0.94
   8  -4  -2   22.17    2.06
  -8  -4   2   22.35    1.68
  -8  -4   2   22.45    1.55
   8  -4  -2   15.34    3.74
   8   4  -2   25.46    3.73
  -8   4   2   20.30    2.36
   8   4  -2   23.34    2.22
  -8   4   2   20.14    1.65
   7  -4  -2   83.75    5.23
  -7  -4   2   82.41    4.92
  -7  -4   2   81.85    5.02
  -7   4   2   78.00    5.35
   7   4  -2   85.19    5.38
   7   4  -2   64.07    5.15
   7   4  -2   83.50    6.38
  -7   4   2   75.17    4.99
  -6  -4   2   14.92    1.23
  -6  -4   2   14.89    1.17
   6  -4  -2   15.34    1.36
  -6  -4   2   11.01    1.45
   6  -4  -2    9.47    2.41
  -6  -4   2   14.77    1.08
   6  -4  -2   12.07    1.62
   6   4  -2   17.95    2.18
   6   4  -2   14.03    1.33
  -6   4   2   14.48    1.12
   6   4  -2   18.08    1.40
   6   4  -2   15.10    1.41
  -5  -4   2  122.69    8.78
   5  -4  -2  122.58    9.04
  -5  -4   2  139.46    8.76
   5  -4  -2  138.15    8.90
   5  -4  -2  139.36    8.72
  -5   4   2  153.03    8.96
   5   4  -2  158.40    9.01
  -5   4   2  148.26    8.99
   5   4  -2  141.75    8.81
   5   4  -2  149.87    8.76
   5   4  -2  152.71    8.85
   5   4  -2  155.03    9.48
  -5   4   2  147.34    8.77
  -5   4   2  153.16    8.88
   4  -4  -2  281.29   18.52
   4  -4  -2  304.80   18.36
   4  -4  -2  282.87   18.63
  -4  -4   2  296.84   18.44
  -4  -4   2  295.03   18.41
   4  -4  -2  305.76   18.56
  -4  -4   2  278.95   18.57
   4   4  -2  331.11   18.56
   4   4  -2  301.72   18.51
   4   4  -2  314.13   18.41
  -4   4   2  315.01   18.58
  -4   4   2  268.12   19.30
   4   4  -2  310.06   18.40
  -4   4   2  355.82   18.55
   4   4  -2  329.58   18.43
  -4   4   2  345.56   18.56
  -4   4   2  298.80   18.38
   3  -4  -2   21.01    1.53
   3  -4  -2   22.90    1.58
  -3  -4   2   21.06    1.52
  -3  -4   2   19.88    1.42
   3  -4  -2   21.15    1.35
  -3  -4   2   21.59    1.41
   3  -4  -2   21.59    1.52
  -3   4   2   20.07    1.53
  -3   4   2   23.40    1.49
  -3   4   2   22.96    1.53
   3   4  -2   19.80    1.39
   3   4  -2   20.58    1.47
  -3   4   2   22.59    1.37
  -3   4   2   21.80    1.37
  -3   4   2   19.96    2.09
   3   4  -2   22.13    1.48
   3   4  -2   22.07    1.41
   3   4  -2   21.52    1.38
  -2  -4   2  377.50   24.73
   2  -4  -2  404.01   24.85
   2  -4  -2  411.44   24.85
  -2  -4   2  423.55   24.83
  -2  -4   2  415.35   24.77
   2  -4  -2  425.47   24.84
  -2  -4   2  407.28   24.78
  -2  -4   2  432.42   25.02
  -2   4   2  462.92   24.85
   2   4  -2  409.67   24.79
   2   4  -2  397.96   24.75
  -2   4   2  408.95   24.72
   2   4  -2  429.38   24.77
  -2   4   2  442.53   24.82
  -2   4   2  392.38   25.19
  -2   4   2  389.29   24.72
  -2   4   2  412.50   24.84
   1  -4  -2   25.77    1.65
  -1  -4   2   27.41    1.72
  -1  -4   2   25.06    1.70
   1  -4  -2   26.65    1.72
  -1  -4   2   25.79    1.64
   1  -4  -2   25.91    1.76
  -1  -4   2   25.55    1.78
   1  -4  -2   25.15    1.75
  -1  -4   2   26.33    1.73
  -1  -4   2   26.69    1.69
  -1   4   2   27.11    1.72
  -1   4   2   26.83    1.84
   1   4  -2   29.18    1.68
   1   4  -2   27.93    1.71
   1   4  -2   25.01    1.71
   1   4  -2   29.45    1.71
  -1   4   2   28.18    1.65
  -1   4   2   28.13    1.74
  -1   4   2   25.98    1.75
   0  -4  -2   17.64    1.16
   0  -4   2   18.36    1.18
   0  -4   2   19.40    1.35
   0  -4  -2   17.55    1.24
   0  -4   2   17.96    1.19
   0  -4  -2   17.97    1.19
   0  -4   2   17.24    1.09
   0  -4   2   17.30    1.19
   0  -4  -2   17.56    1.12
   0  -4   2   17.54    1.18
   0  -4  -2   17.46    1.22
   0   4   2   16.36    1.21
   0   4  -2   18.08    1.20
   0   4  -2   18.63    1.11
   0   4  -2   17.78    1.17
   0   4  -2   19.64    1.29
   0   4   2   18.54    1.19
   0   4   2   18.03    1.13
  -1  -4  -2   40.65    2.70
  -1  -4  -2   45.22    2.78
   1  -4   2   41.00    2.73
  -1  -4  -2   42.77    2.68
   1  -4   2   41.19    3.00
  -1  -4  -2   40.44    2.63
   1  -4   2   39.15    2.68
   1  -4   2   44.08    2.72
  -1   4  -2   45.43    2.59
  -1   4  -2   46.04    2.82
  -1   4  -2   43.36    2.59
  -1   4  -2   44.31    2.71
   1   4   2   43.89    2.65
   1   4   2   44.53    2.67
   1   4   2   39.64    2.72
  -1   4  -2   46.79    2.86
  -1   4  -2   45.32    2.69
   2  -4   2  339.94   20.10
   2  -4   2  368.43   20.23
  -2  -4  -2  315.22   19.98
  -2  -4  -2  322.04   19.93
  -2  -4  -2  327.96   20.01
   2  -4   2  326.59   19.98
   2   4   2  310.88   20.05
   2   4   2  325.85   19.94
  -2   4  -2  336.94   20.14
  -2   4  -2  315.10   19.88
   2   4   2  341.57   19.96
  -2   4  -2  364.02   19.99
  -2   4  -2  345.18   20.30
  -2   4  -2  327.69   19.90
   2   4   2  320.20   19.98
   2   4   2  330.46   20.01
  -2   4  -2  352.60   20.04
   3  -4   2    2.68    0.21
   3  -4   2    2.47    0.51
  -3  -4  -2    2.48    0.29
   3  -4   2    1.78    0.31
  -3  -4  -2    1.41    0.50
  -3  -4  -2    2.26    0.32
   3  -4   2    1.26    0.61
   3  -4   2    2.50    0.55
  -3  -4  -2    2.45    0.41
  -3   4  -2    3.36    0.81
   3   4   2    3.29    0.44
  -3   4  -2    2.28    0.38
   3   4   2    2.41    0.35
   3   4   2    3.32    0.58
   3   4   2    2.28    0.44
   3   4   2    2.67    0.36
  -3   4  -2    2.42    0.52
   3   4   2    2.10    0.26
  -3   4  -2    2.04    0.28
  -3   4  -2    3.66    0.39
   4  -4   2  462.09   26.85
  -4  -4  -2  435.49   26.81
  -4  -4  -2  415.77   26.79
   4  -4   2  416.82   27.08
   4  -4   2  448.20   26.74
  -4  -4  -2  428.58   26.99
   4   4   2  447.94   26.75
   4   4   2  442.47   26.86
   4   4   2  482.43   27.40
   4   4   2  452.51   26.92
   4   4   2  445.24   26.93
  -4   4  -2  428.42   26.79
   4   4   2  446.39   27.02
  -4   4  -2  462.74   26.97
  -4   4  -2  504.28   27.79
   5  -4   2   63.90    3.75
   5  -4   2   53.64    3.84
  -5  -4  -2   56.09    3.75
  -5  -4  -2   52.60    4.02
  -5  -4  -2   59.86    3.83
   5   4   2   62.52    4.01
  -5   4  -2   68.72    4.06
  -5   4  -2   59.48    4.18
   5   4   2   64.43    3.73
  -5   4  -2   60.36    3.79
   5   4   2   65.91    4.03
  -5   4  -2   65.85    3.81
   5   4   2   58.62    4.10
   5   4   2   58.24    4.62
   6  -4   2   92.75    5.98
   6  -4   2   96.91    6.09
  -6  -4  -2   98.59    5.99
  -6  -4  -2   93.81    5.94
  -6  -4  -2   91.62    6.04
  -6   4  -2  110.17    6.01
   6   4   2  103.91    6.35
  -6   4  -2  105.66    6.35
   6   4   2   83.80    6.35
  -6   4  -2  100.16    6.01
  -6   4  -2   94.86    6.44
   6   4   2   97.38    7.21
   7  -4   2   55.70    3.45
  -7  -4  -2   46.29    3.31
  -7   4  -2   50.82    3.85
   7   4   2   52.70    4.99
  -8  -4  -2    4.59    0.68
   8  -4   2    1.01    1.78
   8   4   2    4.18    1.38
  -8   4  -2    3.50    1.23
  -8   4  -2    2.85    0.52
   8   4   2    3.04    1.99
  -8  -5   2   46.10    3.03
   8  -5  -2   32.49    3.48
   8  -5  -2   43.25    3.17
  -8  -5   2   40.96    2.73
  -8   5   2   35.88    3.35
  -8   5   2   36.50    2.69
   8   5  -2   42.14    4.61
   7  -5  -2    0.56    1.52
   7  -5  -2    1.54    1.03
  -7  -5   2    1.66    0.39
   7  -5  -2    0.58    0.74
  -7  -5   2    0.91    0.40
  -7   5   2    0.97    0.85
   7   5  -2    0.72    1.25
  -7   5   2    0.63    0.40
   7   5  -2    2.34    0.70
  -6  -5   2  190.74   11.89
  -6  -5   2  185.71   11.93
   6  -5  -2  190.76   12.09
   6   5  -2  198.87   11.96
  -6   5   2  196.11   12.22
   6   5  -2  211.96   12.19
   6   5  -2  207.59   12.03
  -6   5   2  189.74   11.90
   5  -5  -2   13.40    1.47
   5  -5  -2   16.01    1.33
  -5  -5   2   12.55    1.35
  -5  -5   2   15.06    1.15
  -5  -5   2   14.56    1.13
   5  -5  -2   15.44    1.04
   5   5  -2   14.15    1.15
  -5   5   2   13.43    1.07
   5   5  -2   17.07    1.15
   5   5  -2   15.39    1.30
   5   5  -2   18.40    1.75
  -5   5   2   16.80    1.59
   5   5  -2   15.35    1.24
  -5   5   2   15.66    1.33
   4  -5  -2  101.76    6.93
  -4  -5   2  102.31    6.97
  -4  -5   2  112.64    6.82
   4  -5  -2  107.71    7.05
  -4  -5   2  106.18    6.83
   4   5  -2  120.82    6.94
  -4   5   2  116.63    7.02
  -4   5   2  111.33    6.77
  -4   5   2  115.24    6.77
  -4   5   2  119.85    6.94
   4   5  -2  106.22    6.80
   4   5  -2  107.12    6.91
  -4   5   2  115.82    6.93
  -4   5   2  108.92    7.79
   4   5  -2  114.32    6.81
   4   5  -2  120.16    6.82
  -3  -5   2   21.39    1.37
   3  -5  -2   22.52    1.54
  -3  -5   2   17.23    1.69
   3  -5  -2   22.82    1.57
  -3  -5   2   21.74    1.51
  -3  -5   2   20.14    1.41
   3  -5  -2   22.03    1.56
   3   5  -2   20.64    1.44
  -3   5   2   20.79    1.33
   3   5  -2   20.90    1.39
   3   5  -2   19.20    1.38
   3   5  -2   19.51    1.41
  -3   5   2   24.44    1.53
  -3   5   2   21.64    2.05
  -3   5   2   21.36    1.47
  -3   5   2   19.88    1.54
  -3   5   2   18.42    1.32
   3   5  -2   20.66    1.45
   2  -5  -2   15.58    1.16
  -2  -5   2   16.11    1.07
   2  -5  -2   14.99    1.12
  -2  -5   2   14.67    0.98
  -2  -5   2   15.55    1.10
  -2  -5   2   15.33    1.27
   2  -5  -2   14.05    1.14
  -2  -5   2   14.20    1.06
  -2   5   2   16.64    1.10
   2   5  -2   15.70    1.05
   2   5  -2   13.00    1.03
  -2   5   2   15.25    1.36
  -2   5   2   15.30    1.14
  -2   5   2   15.62    1.12
  -2   5   2   14.24    0.97
   2   5  -2   14.88    1.06
   2   5  -2   15.02    1.05
  -2   5   2   16.05    0.98
  -1  -5   2   23.86    1.59
   1  -5  -2   22.53    1.64
   1  -5  -2   26.84    1.67
  -1  -5   2   24.32    1.69
   1  -5  -2   24.69    1.61
  -1  -5   2   21.37    1.57
  -1  -5   2   23.98    1.59
   1  -5  -2   24.56    1.52
  -1  -5   2   23.75    1.50
  -1   5   2   24.94    1.61
  -1   5   2   24.81    1.67
   1   5  -2   25.58    1.55
  -1   5   2   25.14    1.61
  -1   5   2   24.55    1.65
  -1   5   2   24.88    1.51
   1   5  -2   22.70    1.61
   1   5  -2   24.35    1.58
   0  -5   2  271.14   16.64
   0  -5   2  283.47   16.66
   0  -5  -2  273.33   16.65
   0  -5  -2  253.92   16.56
   0  -5   2  297.48   16.88
   0  -5   2  262.71   16.53
   0  -5  -2  272.73   16.68
   0  -5  -2  267.61   16.62
   0  -5  -2  281.91   16.71
   0  -5   2  281.86   16.66
   0  -5   2  285.52   16.64
   0   5   2  287.22   16.64
   0   5  -2  280.16   16.55
   0   5   2  252.29   16.67
   0   5  -2  291.11   16.64
   0   5  -2  277.87   16.70
   0   5   2  291.30   16.57
   1  -5   2    9.99    0.76
  -1  -5  -2    9.04    0.63
  -1  -5  -2    7.84    0.79
  -1  -5  -2    9.03    0.68
   1  -5   2    9.45    0.72
  -1  -5  -2    9.24    0.68
   1  -5   2   10.98    0.78
   1  -5   2    7.95    1.01
  -1  -5  -2    8.70    0.72
  -1  -5  -2    9.16    0.74
  -1   5  -2    8.96    0.85
   1   5   2    9.50    0.65
   1   5   2    7.81    0.75
  -1   5  -2    8.92    0.58
   1   5   2    9.07    0.67
  -1   5  -2    9.10    0.58
  -1   5  -2    9.46    0.84
  -1   5  -2   10.29    0.74
  -1   5  -2    9.07    0.70
   2  -5   2  120.39    7.40
   2  -5   2  115.22    7.49
  -2  -5  -2  119.35    7.41
  -2  -5  -2  112.89    7.39
  -2  -5  -2  116.69    7.32
   2  -5   2  120.10    7.48
  -2  -5  -2  111.62    7.47
   2   5   2  114.24    7.43
   2   5   2  124.82    7.35
   2   5   2  115.95    7.38
  -2   5  -2  131.19    7.40
  -2   5  -2  135.34    7.45
  -2   5  -2  127.95    7.68
  -2   5  -2  117.40    7.54
   2   5   2  129.71    7.36
   2   5   2  129.77    7.42
  -2   5  -2  121.41    7.26
  -3  -5  -2   33.40    2.14
  -3  -5  -2   34.62    2.28
   3  -5   2   33.37    2.21
  -3  -5  -2   34.79    2.20
   3  -5   2   33.62    2.38
   3  -5   2   33.65    2.39
  -3   5  -2   36.69    2.21
  -3   5  -2   33.76    2.07
  -3   5  -2   34.50    2.67
  -3   5  -2   30.12    2.10
   3   5   2   34.32    2.19
   3   5   2   32.32    2.29
   3   5   2   33.69    2.22
   3   5   2   33.53    2.13
  -3   5  -2   33.73    2.44
  -3   5  -2   34.74    2.27
   3   5   2   34.65    2.24
   4  -5   2   20.11    1.28
  -4  -5  -2   19.11    1.40
  -4  -5  -2   19.47    1.59
  -4  -5  -2   20.19    1.38
   4  -5   2   17.89    1.66
   4  -5   2   19.78    1.46
   4   5   2   21.49    1.34
   4   5   2   19.19    1.49
  -4   5  -2   19.24    1.35
   4   5   2   20.02    1.63
  -4   5  -2   23.36    1.45
  -4   5  -2   22.08    1.55
   4   5   2   21.46    1.74
  -4   5  -2   18.85    1.75
  -5  -5  -2   32.81    2.54
  -5  -5  -2   30.73    2.25
   5  -5   2   36.53    2.19
   5  -5   2   28.66    2.64
  -5  -5  -2   35.84    2.30
   5  -5   2   34.03    2.37
   5   5   2   35.93    2.21
   5   5   2   38.19    2.49
  -5   5  -2   35.15    2.26
  -5   5  -2   29.01    2.66
   5   5   2   35.57    2.60
  -5   5  -2   37.72    2.32
   5   5   2   35.19    2.50
  -5   5  -2   39.45    2.52
   5   5   2   36.24    2.90
   6  -5   2  130.61    8.40
  -6  -5  -2  132.19    8.43
   6  -5   2  142.29    8.59
  -6  -5  -2  133.94    8.50
  -6   5  -2  147.69    9.14
  -6   5  -2  134.00    8.93
  -6   5  -2  137.94    8.47
   6   5   2  142.12    8.84
   6   5   2  140.46    8.75
  -6   5  -2  140.58    8.45
   6   5   2  146.19    9.43
   7  -5   2    2.07    1.62
   7  -5   2    4.52    0.83
  -7  -5  -2    5.54    0.80
   7   5   2    6.88    1.76
  -7   5  -2    5.67    1.31
  -7   5  -2    4.11    0.91
   7   5   2    3.92    1.25
  -7  -6   2   27.26    2.13
   7  -6  -2   24.38    3.29
  -7  -6   2   30.82    2.09
   7  -6  -2   29.47    2.52
   7   6  -2   36.41    2.51
  -7   6   2   29.43    2.12
  -7   6   2   31.09    2.75
  -6  -6   2    2.68    0.58
   6  -6  -2    1.95    0.68
   6  -6  -2    0.83    1.41
   6  -6  -2    0.88    0.69
  -6  -6   2    2.01    0.42
  -6   6   2    2.01    0.80
   6   6  -2    1.36    0.55
  -6   6   2    1.01    0.34
   6   6  -2    1.84    0.57
   6   6  -2    1.69    0.87
  -5  -6   2   36.22    2.39
  -5  -6   2   31.61    2.62
   5  -6  -2   34.54    2.74
  -5  -6   2   35.86    2.37
   5  -6  -2   35.35    2.74
   5   6  -2   35.94    2.39
  -5   6   2   37.03    2.70
  -5   6   2   36.37    2.32
   5   6  -2   39.71    2.55
   5   6  -2   36.75    2.42
  -4  -6   2   45.51    2.99
  -4  -6   2   45.27    3.05
  -4  -6   2   43.17    3.18
   4  -6  -2   46.97    3.19
   4  -6  -2   45.23    3.25
   4   6  -2   48.99    3.01
  -4   6   2   50.56    3.15
   4   6  -2   46.98    3.02
  -4   6   2   46.36    2.94
  -4   6   2   47.23    2.95
  -4   6   2   52.40    4.04
   4   6  -2   51.33    3.13
   3  -6  -2   14.12    1.19
  -3  -6   2   13.88    1.08
  -3  -6   2   14.94    1.17
  -3  -6   2   12.76    1.40
  -3  -6   2   13.14    0.97
   3  -6  -2   12.94    1.18
  -3   6   2   14.67    1.58
  -3   6   2   15.25    0.95
  -3   6   2   14.32    0.95
   3   6  -2   14.40    1.01
  -3   6   2   14.42    1.26
   3   6  -2   14.00    1.05
   3   6  -2   14.40    1.09
  -3   6   2   14.82    1.12
   3   6  -2   15.48    1.12
   3   6  -2   13.72    1.06
   2  -6  -2   78.48    5.12
  -2  -6   2   76.45    4.97
  -2  -6   2   83.12    5.12
  -2  -6   2   72.93    5.07
  -2  -6   2   79.78    5.16
  -2  -6   2   84.25    5.12
  -2  -6   2   83.27    5.08
   2  -6  -2   73.23    5.14
   2  -6  -2   74.62    5.15
  -2  -6   2   87.23    5.32
   2   6  -2   87.16    5.10
   2   6  -2   80.54    5.07
  -2   6   2   85.05    5.18
  -2   6   2   89.62    5.13
  -2   6   2   89.14    5.33
  -2   6   2   79.24    4.97
   2   6  -2   88.16    5.06
  -2   6   2   80.96    5.11
  -2   6   2   85.15    4.97
   2   6  -2   84.18    5.06
  -1  -6   2  187.85   11.60
  -1  -6   2  196.84   11.74
   1  -6  -2  185.40   11.66
  -1  -6   2  185.29   11.48
   1  -6  -2  176.37   11.49
  -1  -6   2  196.47   11.60
  -1  -6   2  192.34   11.60
   1  -6  -2  179.50   11.65
  -1  -6   2  193.07   11.62
   1  -6  -2  187.15   11.61
  -1   6   2  203.77   11.50
   1   6  -2  182.86   11.62
   1   6  -2  201.10   11.58
  -1   6   2  205.95   11.64
   1   6  -2  201.83   11.54
  -1   6   2  192.09   11.61
  -1   6   2  192.47   11.66
   0  -6   2   14.90    1.33
   0  -6   2   16.42    1.12
   0  -6   2   15.32    1.06
   0  -6  -2   15.09    0.97
   0  -6   2   13.93    1.07
   0  -6   2   15.37    1.11
   0  -6   2   14.29    0.94
   0  -6  -2   14.55    1.10
   0  -6  -2   14.42    1.14
   0  -6  -2   14.05    1.16
   0   6  -2   15.06    1.07
   0   6   2   14.68    1.13
   0   6  -2   15.39    1.20
   0   6   2   15.80    0.99
   0   6   2   14.75    1.06
  -1  -6  -2  297.26   17.34
  -1  -6  -2  250.31   17.27
  -1  -6  -2  289.24   17.31
  -1  -6  -2  288.39   17.35
  -1  -6  -2  302.73   17.42
   1  -6   2  280.58   17.32
   1  -6   2  295.53   17.36
   1  -6   2  276.03   17.76
  -1  -6  -2  271.49   17.22
   1  -6   2  289.55   17.36
  -1   6  -2  316.43   17.48
  -1   6  -2  254.38   17.42
  -1   6  -2  304.57   17.31
   1   6   2  292.06   17.28
   1   6   2  298.69   17.24
  -1   6  -2  288.89   17.18
   1   6   2  288.82   17.36
  -1   6  -2  287.48   17.17
  -1   6  -2  296.51   17.36
   2  -6   2   30.60    2.16
   2  -6   2   30.44    2.25
  -2  -6  -2   29.35    2.25
  -2  -6  -2   29.97    2.18
   2  -6   2   34.23    2.26
  -2  -6  -2   32.17    2.06
  -2  -6  -2   31.39    2.16
  -2   6  -2   35.11    2.21
  -2   6  -2   36.58    2.18
  -2   6  -2   33.76    2.00
  -2   6  -2   33.95    2.37
   2   6   2   31.46    2.21
   2   6   2   33.51    2.10
  -2   6  -2   36.18    2.42
  -2   6  -2   33.04    2.02
   2   6   2   33.57    2.10
  -3  -6  -2   46.11    3.19
   3  -6   2   46.80    3.21
   3  -6   2   42.55    3.31
  -3  -6  -2   46.73    3.29
  -3  -6  -2   48.45    3.11
   3   6   2   51.80    3.29
  -3   6  -2   50.12    3.45
  -3   6  -2   49.33    3.07
  -3   6  -2   49.80    3.04
  -3   6  -2   53.29    3.26
   3   6   2   55.05    3.14
  -3   6  -2   56.81    3.23
   3   6   2   52.11    3.23
  -3   6  -2   53.06    3.65
  -4  -6  -2   33.64    2.43
  -4  -6  -2   34.13    2.43
  -4  -6  -2   35.93    2.60
   4  -6   2   36.39    2.51
   4  -6   2   32.39    2.67
  -4   6  -2   36.04    2.80
   4   6   2   42.27    2.55
   4   6   2   42.08    2.39
  -4   6  -2   38.48    2.29
  -4   6  -2   40.97    2.57
   4   6   2   41.45    2.64
   4   6   2   34.96    2.51
  -4   6  -2   34.77    2.35
  -5  -6  -2   11.04    0.99
   5  -6   2    9.78    1.45
   5  -6   2   13.12    1.18
  -5  -6  -2   10.84    1.26
  -5  -6  -2   11.45    0.97
   5   6   2   13.90    1.45
   5   6   2   12.14    1.36
   5   6   2   12.51    1.17
  -5   6  -2   10.43    0.93
   5   6   2   12.17    0.92
  -5   6  -2   11.67    1.55
  -5   6  -2   12.50    0.85
   6  -6   2    3.66    1.11
  -6  -6  -2    3.68    0.52
   6  -6   2    1.24    1.51
  -6  -6  -2    3.13    0.53
   6  -6   2    3.13    0.72
   6   6   2    4.94    1.17
   6   6   2    1.82    0.91
  -6   6  -2    3.19    0.47
  -6   6  -2    4.04    1.07
  -7  -6  -2   49.30    3.31
   7  -6   2   53.83    3.53
  -7   6  -2   48.34    3.97
   7   6   2   47.67    3.86
   7  -7  -2   21.74    2.28
  -7  -7   2   24.64    1.81
   7  -7  -2   20.48    2.68
  -7  -7   2   23.91    1.80
  -7   7   2   23.14    1.75
  -7   7   2   25.43    2.57
   6  -7  -2    4.39    2.08
  -6  -7   2    8.94    0.89
   6  -7  -2    6.98    1.08
   6  -7  -2    8.57    1.56
  -6  -7   2    9.01    0.97
   6   7  -2   10.13    1.17
  -6   7   2    6.65    0.81
  -6   7   2    6.78    1.27
   5  -7  -2   31.60    2.69
   5  -7  -2   35.77    2.64
  -5  -7   2   34.34    2.40
  -5  -7   2   32.81    2.30
   5   7  -2   33.96    2.40
  -5   7   2   35.81    2.72
   5   7  -2   39.27    2.52
  -5   7   2   35.85    2.27
  -4  -7   2    0.81    0.74
   4  -7  -2    2.48    0.63
  -4  -7   2    1.35    0.29
  -4  -7   2    1.06    0.46
   4  -7  -2    1.60    1.15
   4  -7  -2    1.52    0.59
  -4  -7   2    1.71    0.57
   4   7  -2    2.74    0.43
   4   7  -2    2.00    0.46
  -4   7   2    2.27    0.30
   4   7  -2    2.13    0.46
  -4   7   2    1.58    0.26
  -4   7   2    2.15    0.73
   3  -7  -2  215.23   14.07
  -3  -7   2  224.92   13.69
  -3  -7   2  226.60   13.70
  -3  -7   2  197.56   13.91
  -3  -7   2  227.28   13.62
  -3  -7   2  202.32   13.62
   3  -7  -2  212.22   13.70
  -3  -7   2  209.85   13.60
  -3  -7   2  206.45   13.48
   3   7  -2  226.72   13.59
  -3   7   2  224.70   13.77
   3   7  -2  232.52   13.54
   3   7  -2  235.42   13.62
   3   7  -2  239.39   13.64
  -3   7   2  231.40   13.47
  -3   7   2  253.07   13.74
  -3   7   2  249.77   14.05
  -3   7   2  226.13   13.46
  -2  -7   2   41.05    2.66
   2  -7  -2   43.15    2.86
   2  -7  -2   38.99    2.89
  -2  -7   2   40.25    2.81
  -2  -7   2   40.92    2.82
  -2  -7   2   46.41    3.07
  -2  -7   2   43.33    2.91
  -2  -7   2   45.17    2.84
  -2  -7   2   47.26    2.83
  -2   7   2   40.27    2.83
   2   7  -2   45.70    2.77
  -2   7   2   42.07    2.91
  -2   7   2   41.77    2.66
  -2   7   2   46.83    2.97
   2   7  -2   41.85    2.81
  -2   7   2   45.05    2.67
   1  -7  -2   96.79    6.79
  -1  -7   2  107.37    6.60
  -1  -7   2  111.61    6.76
  -1  -7   2  101.23    6.75
   1  -7  -2   94.89    6.61
  -1  -7   2  111.73    6.77
  -1  -7   2  112.12    6.75
   1  -7  -2  114.18    6.74
   1  -7  -2  103.85    6.76
  -1  -7   2  114.85    6.97
  -1   7   2  114.90    6.63
  -1   7   2  125.84    6.77
   1   7  -2  114.10    6.80
  -1   7   2  107.11    6.81
   1   7  -2  114.41    6.67
   0  -7   2  105.15    6.70
   0  -7   2  109.63    6.89
   0  -7  -2  107.04    6.93
   0  -7  -2  108.19    6.88
   0  -7  -2  121.03    7.14
   0  -7   2  120.87    6.87
   0  -7   2  115.48    6.89
   0  -7  -2  107.30    6.74
   0  -7   2  115.72    7.24
   0  -7   2  109.38    6.88
   0   7   2  114.74    6.76
   0   7  -2  107.44    6.96
   0   7  -2  115.04    6.75
   0   7   2  108.43    6.91
   1  -7   2   24.98    1.67
  -1  -7  -2   25.17    1.72
   1  -7   2   22.87    1.77
  -1  -7  -2   22.22    1.65
  -1  -7  -2   23.20    1.75
   1  -7   2   22.99    2.20
  -1  -7  -2   22.89    1.84
   1  -7   2   25.08    1.72
  -1  -7  -2   25.95    1.69
   1  -7   2   23.18    1.72
  -1  -7  -2   23.34    1.56
   1   7   2   24.24    1.59
  -1   7  -2   26.17    1.74
  -1   7  -2   27.64    1.54
  -1   7  -2   26.68    1.52
  -1   7  -2   22.09    1.89
  -1   7  -2   27.73    1.85
   1   7   2   22.51    1.74
  -2  -7  -2   93.28    5.57
  -2  -7  -2   98.33    5.71
  -2  -7  -2   88.46    5.71
   2  -7   2   87.72    5.70
  -2  -7  -2   81.39    5.79
   2  -7   2   90.92    5.77
  -2  -7  -2   86.85    5.71
  -2   7  -2   96.76    5.74
  -2   7  -2  100.67    5.93
  -2   7  -2   83.34    5.52
  -2   7  -2   98.61    5.93
  -2   7  -2   94.62    5.51
   2   7   2   89.58    5.73
  -3  -7  -2  197.63   11.91
   3  -7   2  192.85   11.94
   3  -7   2  187.16   11.82
  -3  -7  -2  198.25   11.87
  -3  -7  -2  190.91   11.69
  -3  -7  -2  180.97   11.81
  -3   7  -2  192.31   11.63
  -3   7  -2  207.01   11.87
   3   7   2  186.54   11.79
   3   7   2  196.58   11.86
  -3   7  -2  197.05   11.60
  -3   7  -2  200.60   12.06
   4  -7   2    0.98    1.02
  -4  -7  -2    2.47    0.84
  -4  -7  -2    2.52    0.54
  -4  -7  -2    2.10    0.35
   4  -7   2    2.15    0.65
   4  -7   2    3.61    0.98
  -4  -7  -2    1.71    0.49
  -4   7  -2    2.53    0.28
   4   7   2    3.39    0.59
  -4   7  -2    2.87    0.81
  -4   7  -2    3.61    0.62
  -4   7  -2    2.92    0.42
   4   7   2    3.11    0.63
  -5  -7  -2   61.81    4.19
  -5  -7  -2   69.81    4.15
   5  -7   2   65.76    4.32
   5  -7   2   64.37    4.60
   5   7   2   68.12    4.40
  -5   7  -2   68.94    4.70
  -5   7  -2   61.92    4.08
  -6  -7  -2    8.41    0.91
  -6  -7  -2    9.12    1.03
   6  -7   2    8.42    1.17
   6   7   2    8.01    1.27
  -6   7  -2    6.04    1.51
  -6  -8   2    2.49    0.53
  -6  -8   2    1.93    0.62
   6  -8  -2   -0.61    1.80
   6  -8  -2    2.45    0.95
   6  -8  -2    2.02    0.97
  -6   8   2    2.60    0.51
  -6   8   2    3.13    1.13
   5  -8  -2   80.33    5.24
  -5  -8   2   75.09    5.01
  -5  -8   2   80.09    4.89
  -5   8   2   83.18    5.35
   5   8  -2   78.89    5.18
  -5   8   2   73.18    4.93
  -4  -8   2   36.24    2.35
   4  -8  -2   33.35    2.71
  -4  -8   2   36.33    2.56
  -4  -8   2   36.97    2.59
   4  -8  -2   33.42    2.70
   4   8  -2   41.02    2.58
   4   8  -2   37.54    2.53
  -4   8   2   36.52    2.33
  -4   8   2   36.08    2.81
  -3  -8   2   10.56    1.07
  -3  -8   2    8.45    1.42
  -3  -8   2   10.58    0.78
   3  -8  -2   10.23    1.20
  -3  -8   2   10.92    1.07
  -3  -8   2    9.97    1.04
   3  -8  -2   11.27    1.13
  -3  -8   2   10.72    1.06
  -3   8   2   11.47    0.79
   3   8  -2   10.90    0.93
   3   8  -2   10.32    1.05
  -3   8   2   10.88    1.26
  -3   8   2    9.96    1.27
  -3   8   2   11.27    0.78
  -2  -8   2   33.77    2.21
   2  -8  -2   34.36    2.45
   2  -8  -2   34.71    2.54
  -2  -8   2   36.43    2.56
  -2  -8   2   32.75    2.43
  -2  -8   2   37.37    2.44
  -2  -8   2   35.16    2.42
  -2  -8   2   37.16    2.67
  -2  -8   2   35.20    2.42
   2   8  -2   35.17    2.34
  -2   8   2   35.28    2.22
  -2   8   2   37.22    2.57
  -2   8   2   37.47    2.49
   2   8  -2   36.78    2.45
  -2   8   2   33.71    2.22
  -1  -8   2   18.99    1.26
   1  -8  -2   17.69    1.29
  -1  -8   2   20.19    1.46
  -1  -8   2   18.95    1.50
   1  -8  -2   17.13    1.54
  -1  -8   2   19.35    1.74
  -1  -8   2   17.81    1.53
  -1  -8   2   22.75    1.70
   1  -8  -2   17.80    1.47
  -1  -8   2   20.25    1.50
   1   8  -2   22.87    1.39
   1   8  -2   20.57    1.60
  -1   8   2   21.19    1.31
  -1   8   2   21.71    1.61
   0  -8  -2    0.86    0.40
   0  -8   2    1.30    0.40
   0  -8  -2    1.94    0.44
   0  -8  -2    1.27    0.29
   0  -8  -2    0.91    0.74
   0  -8   2    1.51    0.39
   0  -8   2    1.41    0.19
   0  -8  -2    1.51    0.24
   0  -8   2    1.76    0.69
   0  -8  -2    1.51    0.38
   0  -8   2    1.92    0.55
   0   8   2    1.36    0.27
   0   8   2    1.09    0.49
   0   8  -2    1.80    0.61
   0   8  -2    1.04    0.24
  -1  -8  -2   64.21    4.13
  -1  -8  -2   60.01    4.17
   1  -8   2   64.56    4.16
   1  -8   2   63.15    4.13
  -1  -8  -2   66.52    4.10
  -1  -8  -2   64.53    3.96
   1  -8   2   53.36    4.62
   1  -8   2   63.73    4.09
   1   8   2   65.70    4.18
  -1   8  -2   72.14    3.94
  -1   8  -2   65.39    4.34
  -1   8  -2   69.50    3.91
  -2  -8  -2   35.01    2.34
  -2  -8  -2   33.63    2.37
  -2  -8  -2   32.02    2.39
   2  -8   2   33.52    2.37
   2  -8   2   34.58    2.43
  -2  -8  -2   31.91    2.21
  -2   8  -2   34.68    2.11
  -2   8  -2   37.22    2.63
   2   8   2   33.26    2.40
  -2   8  -2   34.41    2.11
  -2   8  -2   35.98    2.39
   3  -8   2    4.79    0.73
   3  -8   2    5.14    0.93
  -3  -8  -2    5.91    0.80
  -3  -8  -2    5.53    1.09
  -3  -8  -2    5.15    0.53
  -3  -8  -2    5.80    0.80
  -3   8  -2    5.68    0.99
  -3   8  -2    6.37    0.80
   3   8   2    5.61    0.83
  -3   8  -2    5.30    0.50
   4  -8   2   58.29    3.78
   4  -8   2   56.70    3.95
  -4  -8  -2   56.26    3.52
  -4  -8  -2   51.69    3.68
  -4   8  -2   52.96    3.46
  -4   8  -2   57.54    4.08
   4   8   2   59.02    3.80
  -5  -8  -2   18.31    1.36
   5  -8   2   17.53    1.72
  -5  -8  -2   15.34    1.53
   5   8   2   20.29    1.81
  -5   8  -2   20.74    2.17
  -6  -8  -2   20.35    1.82
  -6  -8  -2   19.55    1.56
   6  -8   2   18.84    2.08
   6   8   2   23.49    2.21
  -6   8  -2   17.91    2.63
   5  -9  -2   22.20    2.31
  -5  -9   2   22.66    1.62
  -5  -9   2   21.27    1.89
   5  -9  -2   19.24    2.25
  -5   9   2   24.44    1.62
  -5   9   2   23.19    2.40
  -4  -9   2   39.63    2.60
   4  -9  -2   40.27    3.07
  -4  -9   2   42.76    2.94
  -4  -9   2   41.57    2.94
  -4  -9   2   42.21    2.89
   4  -9  -2   37.96    3.05
   4   9  -2   39.44    2.90
  -4   9   2   41.86    3.20
  -3  -9   2   46.60    3.21
  -3  -9   2   47.96    3.32
   3  -9  -2   48.83    3.32
  -3  -9   2   46.91    2.95
   3  -9  -2   43.81    3.33
  -3  -9   2   48.00    3.21
   3   9  -2   47.96    3.23
  -3   9   2   41.02    3.41
  -3   9   2   49.84    2.95
   2  -9  -2   12.13    1.23
  -2  -9   2   12.55    1.45
  -2  -9   2   13.70    1.19
   2  -9  -2   11.68    1.36
  -2  -9   2   11.76    1.22
  -2  -9   2   13.22    0.90
  -2   9   2   13.33    1.44
   2   9  -2   12.79    1.33
  -2   9   2   13.24    0.91
  -1  -9   2   20.12    1.36
   1  -9  -2   19.04    1.73
  -1  -9   2   21.28    1.64
   1  -9  -2   21.96    1.66
  -1  -9   2   19.72    2.02
  -1  -9   2   20.03    1.62
  -1  -9   2   22.59    1.90
   1   9  -2   20.97    1.80
  -1   9   2   22.01    1.38
   1   9  -2   21.48    1.50
  -1   9   2   23.84    1.80
   0  -9   2   98.61    7.27
   0  -9   2  103.10    6.79
   0  -9   2  112.85    6.82
   0  -9  -2  113.04    6.80
   0  -9  -2  107.43    6.59
   0  -9   2  115.30    6.55
   0  -9  -2  108.41    6.87
   0   9  -2  104.79    6.95
   0   9   2  111.88    6.86
   1  -9   2   13.23    1.15
  -1  -9  -2   12.57    1.26
   1  -9   2    9.19    1.10
   1  -9   2    8.37    1.81
  -1  -9  -2   11.20    0.86
  -1  -9  -2   12.12    1.14
  -1   9  -2   12.65    0.80
  -1   9  -2   13.25    1.55
   1   9   2   12.78    1.25
  -2  -9  -2   34.71    2.36
   2  -9   2   31.22    2.37
   2  -9   2   32.33    2.43
  -2  -9  -2   31.84    2.10
  -2  -9  -2   29.56    2.41
  -2   9  -2   35.23    2.68
  -2   9  -2   34.07    2.05
   2   9   2   33.35    2.41
  -3  -9  -2   54.53    3.78
   3  -9   2   61.50    3.83
  -3  -9  -2   54.35    3.53
   3  -9   2   58.61    3.94
  -3  -9  -2   52.74    3.80
  -3   9  -2   59.00    4.10
   3   9   2   56.44    3.83
  -4  -9  -2   14.73    1.50
  -4  -9  -2   15.66    1.50
   4  -9   2   15.20    1.62
  -4  -9  -2   14.20    1.14
   4   9   2   17.07    1.68
  -4   9  -2   17.01    2.04
   5  -9   2   48.03    3.42
  -5  -9  -2   41.66    3.22
  -5  -9  -2   45.86    3.03
   5   9   2   51.97    3.51
  -5   9  -2   45.77    3.85
  -4 -10   2   28.40    1.83
   4 -10  -2   25.24    2.42
  -4 -10   2   26.28    2.23
   4 -10  -2   24.27    2.42
  -4  10   2   32.26    3.09
   3 -10  -2    1.50    0.68
  -3 -10   2    2.11    0.68
   3 -10  -2    1.68    0.86
  -3 -10   2    1.82    0.34
  -3  10   2    1.85    0.34
   3  10  -2    2.63    0.94
  -3  10   2    1.65    1.01
   2 -10  -2   57.66    4.13
   2 -10  -2   58.90    4.04
  -2 -10   2   55.07    3.98
  -2 -10   2   55.27    3.70
  -2  10   2   59.93    4.18
   2  10  -2   69.94    4.19
  -2  10   2   61.80    3.69
  -1 -10   2   16.18    2.21
   1 -10  -2   17.27    1.77
  -1 -10   2   19.32    1.66
  -1 -10   2   19.38    1.60
  -1 -10   2   19.14    1.24
   1 -10  -2   17.70    1.62
  -1  10   2   18.13    1.79
   1  10  -2   20.31    1.96
  -1  10   2   19.29    1.26
   0 -10   2    9.79    1.15
   0 -10  -2    9.41    1.12
   0 -10   2    8.49    1.95
   0 -10   2   11.37    1.18
   0 -10  -2    7.97    1.21
   0 -10  -2   10.19    0.80
   0  10   2    9.59    1.32
   0  10  -2   13.15    1.67
   1 -10   2   22.44    1.98
  -1 -10  -2   24.64    1.92
  -1 -10  -2   21.18    2.02
   1 -10   2   26.67    2.34
  -1 -10  -2   24.56    1.64
  -1  10  -2   25.40    2.33
   1  10   2   27.36    2.06
  -2 -10  -2   14.56    1.40
   2 -10   2   11.48    1.45
  -2 -10  -2   13.09    1.03
  -2 -10  -2   14.76    1.58
  -2  10  -2   16.23    1.94
   2  10   2   16.26    1.59
  -3 -10  -2    5.18    0.94
  -3 -10  -2    7.09    1.11
  -3 -10  -2    5.79    0.66
   3 -10   2    5.95    1.00
   3  10   2    7.22    1.06
  -3  10  -2    4.55    1.25
   1 -11  -2   22.67    2.02
  -1 -11   2   20.60    2.15
   1 -11  -2   23.04    2.43
  -1  11   2   25.15    2.31
   1  11  -2   19.14    2.48
  -1  11   2   24.94    1.57
   0 -11  -2   80.52    5.11
   0 -11  -2   74.84    5.50
   0 -11  -2   85.85    5.44
   0 -11   2   72.86    5.43
   0  11  -2   94.92    5.83
   0  11   2   90.44    5.59
  -1 -11  -2    4.39    0.97
  -1 -11  -2    5.78    0.67
  -1 -11  -2    5.62    1.09
   1  11   2    5.41    1.10
  -1  11  -2    8.67    1.40
  -9   0   3    0.09    0.37
   9   0  -3   -0.22    1.82
  -9   0   3    1.51    0.75
   9   0  -3   -0.32    0.85
  -8   0   3    0.51    0.36
   8   0  -3    0.96    1.70
  -8   0   3    0.19    0.26
  -8   0   3    0.97    0.62
   8   0  -3    0.43    0.83
  -7   0   3    0.20    0.29
   7   0  -3    0.54    0.56
  -7   0   3    0.13    0.43
   7   0  -3   -0.50    1.30
  -7   0   3    0.13    0.22
   7   0  -3    0.28    0.62
  -7   0   3   -0.25    0.42
   6   0  -3    0.72    0.51
  -6   0   3    0.59    0.51
   6   0  -3    0.79    0.95
   6   0  -3    1.23    0.45
  -6   0   3    0.07    0.34
  -6   0   3    0.28    0.20
  -6   0   3    0.44    0.40
  -5   0   3    0.40    0.61
  -5   0   3    0.24    0.16
  -5   0   3    0.49    0.39
  -5   0   3    0.02    0.18
   5   0  -3    0.04    0.29
   5   0  -3   -0.01    0.61
  -5   0   3    0.08    0.29
   5   0  -3    0.04    0.20
  -5   0   3   -0.20    0.27
   5   0  -3    0.51    0.29
  -4   0   3    0.01    0.41
  -4   0   3    0.51    0.31
  -4   0   3    0.48    0.15
   4   0  -3    0.24    0.29
  -4   0   3    0.26    0.26
   4   0  -3    0.47    0.18
   4   0  -3    1.01    0.23
  -4   0   3    0.27    0.23
   4   0  -3    0.30    0.51
   3   0  -3    0.17    0.31
   3   0  -3    0.08    0.20
  -3   0   3    0.06    0.28
  -3   0   3    0.16    0.13
  -3   0   3    0.19    0.14
  -3   0   3    0.33    0.21
   3   0  -3    0.10    0.10
  -3   0   3    0.19    0.19
   3   0  -3   -0.21    0.18
   3   0  -3    0.08    0.10
  -2   0   3    0.43    0.16
   2   0  -3    0.26    0.16
   2   0  -3    0.46    0.23
  -2   0   3    0.30    0.22
  -2   0   3    0.26    0.08
   2   0  -3    0.21    0.07
  -2   0   3    0.33    0.17
  -2   0   3    0.16    0.07
   2   0  -3    0.19    0.16
   2   0  -3    0.18    0.07
   1   0  -3    0.33    0.16
   1   0  -3    0.16    0.11
  -1   0   3    0.23    0.12
  -1   0   3    0.16    0.06
  -1   0   3    0.20    0.05
   1   0  -3    0.33    0.06
  -1   0   3    0.28    0.07
  -1   0   3    0.21    0.13
   1   0  -3    0.17    0.09
   1   0  -3    0.31    0.08
   0   0   3    0.07    0.07
   0   0   3    0.01    0.04
   0   0   3   -0.06    0.06
   0   0   3    0.20    0.09
   0   0   3    0.12    0.03
   0   0   3    0.08    0.06
   0   0  -3   -0.01    0.06
   1   0   3    0.14    0.12
   1   0   3    0.15    0.14
   1   0   3    0.19    0.05
   1   0   3    0.17    0.06
   1   0   3    0.22    0.04
  -1   0  -3    0.28    0.12
   1   0   3    0.16    0.08
  -1   0  -3    0.18    0.15
  -2   0  -3    0.10    0.18
   2   0   3    0.07    0.23
   2   0   3    0.23    0.07
   2   0   3   -0.08    0.12
  -2   0  -3    0.11    0.21
   2   0   3    0.19    0.22
  -2   0  -3    0.05    0.06
   3   0   3   -0.18    0.28
   3   0   3    0.25    0.18
   3   0   3   -0.07    0.11
  -3   0  -3   -0.11    0.35
   3   0   3    0.42    0.42
  -3   0  -3    0.20    0.11
  -3   0  -3    0.40    0.23
  -3   0  -3   -0.16    0.23
   4   0   3    0.55    0.55
   4   0   3    1.50    0.41
  -4   0  -3    0.98    0.33
  -4   0  -3    0.86    0.19
   4   0   3    0.94    0.44
  -4   0  -3    0.76    0.36
  -4   0  -3    0.84    0.68
   4   0   3    1.43    0.26
   5   0   3    0.35    0.28
   5   0   3   -0.07    0.64
  -5   0  -3    0.59    0.42
   5   0   3    1.04    0.66
  -5   0  -3    0.78    0.44
  -5   0  -3    0.35    0.81
   5   0   3    0.34    0.38
  -5   0  -3   -0.05    0.17
   6   0   3    0.99    0.65
  -6   0  -3    1.34    0.32
   6   0   3    1.29    1.03
  -6   0  -3    1.19    0.61
  -6   0  -3    1.48    0.54
   7   0   3   -0.12    1.17
   7   0   3   -0.19    0.77
  -7   0  -3    0.33    0.62
  -7   0  -3    0.37    0.30
   8   0   3   -0.85    1.46
  -8   0  -3    0.21    0.75
  -8   0  -3    0.45    0.38
   9  -1  -3    9.66    2.81
   9  -1  -3   13.86    2.24
  -9  -1   3   11.88    1.16
   9   1  -3   10.38    2.86
  -9   1   3   11.49    1.61
   9   1  -3   13.18    2.00
  -9   1   3   11.35    1.16
  -8  -1   3   59.29    3.66
  -8  -1   3   58.21    3.79
   8  -1  -3   52.85    5.78
   8  -1  -3   56.24    4.39
  -8  -1   3   58.83    3.81
  -8   1   3   59.64    3.67
  -8   1   3   59.30    3.81
   8   1  -3   65.69    4.42
   8   1  -3   57.20    5.86
  -8   1   3   54.43    4.20
   7  -1  -3    0.86    1.20
   7  -1  -3    0.81    0.68
  -7  -1   3    0.31    0.31
  -7  -1   3    0.75    0.45
  -7  -1   3    1.31    0.43
   7  -1  -3   -0.48    0.64
  -7  -1   3    0.47    0.26
   7   1  -3    0.29    0.49
  -7   1   3    0.66    0.36
   7   1  -3    0.57    1.23
   7   1  -3    0.60    0.59
  -7   1   3    0.29    0.23
  -7   1   3    0.19    0.41
  -7   1   3   -0.29    0.52
   6  -1  -3   79.61    7.01
  -6  -1   3   98.27    5.60
  -6  -1   3   88.47    5.68
   6  -1  -3   77.44    5.97
  -6  -1   3   98.97    5.74
  -6  -1   3   96.20    5.70
  -6  -1   3   82.03    5.94
   6  -1  -3   90.57    5.79
  -6   1   3  104.06    6.05
  -6   1   3   93.55    5.69
  -6   1   3   95.36    5.61
  -6   1   3  104.96    5.75
   6   1  -3   82.83    6.91
   6   1  -3   84.21    6.00
  -6   1   3   91.82    5.82
  -5  -1   3   53.96    3.45
  -5  -1   3   56.42    3.40
  -5  -1   3   50.47    3.69
   5  -1  -3   57.42    3.57
  -5  -1   3   56.19    3.48
  -5  -1   3   58.37    3.53
   5  -1  -3   55.14    3.52
  -5   1   3   50.93    3.54
  -5   1   3   55.86    3.71
  -5   1   3   60.70    3.54
   5   1  -3   59.68    3.52
   5   1  -3   50.18    4.33
  -5   1   3   53.46    3.45
   5   1  -3   49.28    3.70
   5   1  -3   51.55    3.49
   4  -1  -3   59.37    3.48
   4  -1  -3   58.04    3.43
  -4  -1   3   57.72    3.51
  -4  -1   3   52.29    3.40
   4  -1  -3   58.82    3.57
  -4  -1   3   45.02    3.59
  -4  -1   3   52.61    3.46
   4   1  -3   55.05    3.47
   4   1  -3   55.12    4.09
   4   1  -3   51.83    3.43
  -4   1   3   59.04    3.64
  -4   1   3   54.00    3.42
  -4   1   3   59.29    3.53
  -4   1   3   54.36    3.49
   3  -1  -3   84.52    4.90
  -3  -1   3   74.36    4.94
   3  -1  -3   78.12    5.04
   3  -1  -3   87.37    4.94
  -3  -1   3   83.47    4.91
  -3  -1   3   83.96    5.00
  -3  -1   3   76.45    4.91
   3   1  -3   75.98    5.30
  -3   1   3   87.95    5.06
   3   1  -3   86.86    4.88
   3   1  -3   69.59    5.05
  -3   1   3   87.82    5.03
  -3   1   3   80.35    4.91
   3   1  -3   79.06    4.94
  -3   1   3   75.79    4.94
   2  -1  -3   12.81    1.27
  -2  -1   3   12.96    1.06
  -2  -1   3   14.41    0.99
   2  -1  -3   17.43    1.13
   2  -1  -3   14.83    1.06
   2  -1  -3   15.41    0.99
  -2  -1   3   14.75    1.00
  -2   1   3   15.18    0.96
  -2   1   3   17.91    1.04
   2   1  -3   14.47    1.06
   2   1  -3   15.52    0.99
  -2   1   3   16.00    1.08
   2   1  -3   15.89    1.00
   1  -1  -3  173.72    9.65
   1  -1  -3  154.47    9.77
  -1  -1   3  141.34    9.65
   1  -1  -3  166.40    9.84
   1  -1  -3  160.69    9.59
   1  -1  -3  163.63    9.62
  -1  -1   3  145.15    9.62
  -1  -1   3  147.96    9.60
  -1  -1   3  150.64    9.63
   1   1  -3  161.11    9.59
  -1   1   3  181.40    9.60
  -1   1   3  150.97    9.61
   1   1  -3  169.04    9.63
   1   1  -3  164.07    9.63
  -1   1   3  178.26    9.70
  -1   1   3  148.11    9.76
  -1   1   3  172.46    9.63
   0  -1   3   56.38    3.36
   0  -1   3   54.16    3.47
   0  -1   3   53.73    3.34
   0  -1   3   54.10    3.38
   0  -1  -3   55.25    3.36
   0  -1   3   55.12    3.35
   0  -1   3   51.31    3.45
   0  -1   3   61.10    3.38
   0   1   3   59.52    3.42
   0   1  -3   58.14    3.39
   0   1   3   57.78    3.41
   0   1  -3   53.38    3.44
   0   1   3   58.93    3.45
   0   1   3   54.65    3.36
   1  -1   3   24.83    1.76
   1  -1   3   23.75    1.52
   1  -1   3   24.76    1.51
  -1  -1  -3   23.66    1.60
   1  -1   3   21.63    1.60
  -1  -1  -3   27.23    1.56
  -1  -1  -3   27.95    1.64
   1  -1   3   21.47    1.68
  -1  -1  -3   26.36    1.53
  -1   1  -3   21.11    1.50
  -1   1  -3   26.18    1.59
   1   1   3   26.45    1.54
  -1   1  -3   27.27    1.71
   1   1   3   21.62    1.66
   1   1   3   25.70    1.61
   1   1   3   25.50    1.53
   1   1   3   27.38    1.53
  -1   1  -3   26.09    1.53
   2  -1   3    1.99    0.35
  -2  -1  -3    2.70    0.48
   2  -1   3    1.98    0.41
   2  -1   3    2.57    0.19
  -2  -1  -3    2.52    0.37
   2  -1   3    2.20    0.53
  -2  -1  -3    2.83    0.23
   2  -1   3    2.64    0.24
  -2  -1  -3    2.61    0.20
   2   1   3    3.50    0.43
   2   1   3    2.54    0.24
   2   1   3    1.65    0.49
   2   1   3    2.50    0.17
  -2   1  -3    2.71    0.22
  -2   1  -3    2.57    0.19
  -2   1  -3    2.21    0.49
   2   1   3    2.41    0.36
  -2   1  -3    2.36    0.46
   3  -1   3    7.86    0.52
  -3  -1  -3    6.75    1.01
   3  -1   3    6.88    0.59
  -3  -1  -3    7.05    0.70
  -3  -1  -3    8.11    0.57
  -3  -1  -3    6.41    0.69
   3  -1   3    9.10    0.96
   3  -1   3    6.16    0.73
  -3   1  -3    8.50    0.50
  -3   1  -3    7.46    1.05
  -3   1  -3    7.32    0.74
   3   1   3    8.21    0.72
   3   1   3    8.32    0.59
   3   1   3    9.01    0.80
  -3   1  -3    8.02    0.57
  -3   1  -3    7.51    0.86
   4  -1   3   27.30    1.97
  -4  -1  -3   23.31    1.58
   4  -1   3   23.96    1.52
  -4  -1  -3   24.15    1.76
   4  -1   3   19.58    1.80
  -4  -1  -3   20.85    2.24
   4  -1   3   25.39    1.63
   4   1   3   23.88    1.85
  -4   1  -3   24.92    1.86
  -4   1  -3   23.46    1.57
   4   1   3   25.80    1.63
  -4   1  -3   26.31    1.48
  -4   1  -3   22.83    1.81
  -4   1  -3   28.65    2.47
   4   1   3   22.78    1.80
   5  -1   3   11.99    1.38
  -5  -1  -3    8.58    1.05
  -5  -1  -3    9.33    0.98
  -5  -1  -3    8.91    1.73
  -5  -1  -3    9.47    0.77
   5  -1   3    6.93    1.41
  -5   1  -3    7.14    1.79
  -5   1  -3    9.78    1.09
  -5   1  -3    9.92    1.12
  -5   1  -3    9.94    0.62
   5   1   3   10.59    0.87
  -5   1  -3    9.70    0.77
   5   1   3    8.47    1.07
   5   1   3   10.50    1.23
  -6  -1  -3   11.04    0.92
  -6  -1  -3   11.23    1.35
  -6  -1  -3   11.07    1.18
   6  -1   3    9.23    1.75
  -6   1  -3   12.10    1.31
  -6   1  -3   10.31    0.75
  -6   1  -3   13.23    1.41
   6   1   3    9.06    2.07
   6   1   3   11.75    1.40
  -6   1  -3   11.91    0.92
  -6   1  -3   11.85    0.73
  -7  -1  -3   26.02    1.77
   7  -1   3   24.68    2.43
  -7  -1  -3   26.71    2.08
   7   1   3   24.34    2.44
  -7   1  -3   25.67    1.76
  -7   1  -3   22.77    2.14
   8  -1   3    2.35    1.79
  -8  -1  -3    1.60    0.44
  -8  -1  -3    2.64    0.88
  -8   1  -3    2.91    0.95
   8   1   3    1.88    1.84
  -8   1  -3    2.90    0.50
   9  -2  -3    1.61    2.40
  -9  -2   3    0.43    0.48
   9  -2  -3    2.07    1.13
  -9   2   3    1.58    0.53
  -9   2   3    1.47    0.96
   9   2  -3    3.38    1.66
   9   2  -3    0.84    1.93
  -8  -2   3    0.87    0.31
   8  -2  -3    0.69    1.66
   8  -2  -3    0.92    0.90
  -8  -2   3    0.56    0.40
  -8  -2   3    0.73    0.49
   8   2  -3    0.90    1.49
  -8   2   3    0.81    0.31
  -8   2   3    1.01    0.83
   8   2  -3    0.99    0.86
  -8   2   3    0.89    0.42
   7  -2  -3    4.63    0.77
  -7  -2   3    3.44    0.63
  -7  -2   3    4.96    0.54
   7  -2  -3    2.69    0.80
  -7  -2   3    4.24    0.59
  -7  -2   3    4.24    0.60
   7  -2  -3    2.84    1.63
   7   2  -3    3.53    0.81
   7   2  -3    3.18    1.57
  -7   2   3    5.92    0.94
  -7   2   3    4.89    0.68
   7   2  -3    5.52    0.81
  -6  -2   3    0.69    0.29
  -6  -2   3    0.24    0.22
   6  -2  -3    0.83    0.43
  -6  -2   3    0.18    0.38
   6  -2  -3   -0.05    1.07
  -6  -2   3    0.35    0.52
   6  -2  -3   -0.35    0.50
  -6  -2   3   -0.09    0.28
   6  -2  -3   -0.07    0.45
   6   2  -3    0.00    0.44
  -6   2   3    0.00    0.34
  -6   2   3    0.16    0.44
   6   2  -3   -0.13    0.85
   6   2  -3    0.50    0.43
  -6   2   3    0.10    0.25
  -6   2   3    0.25    0.55
  -5  -2   3    1.02    0.42
   5  -2  -3    1.02    0.25
   5  -2  -3    1.42    0.41
  -5  -2   3    1.79    0.32
   5  -2  -3    1.42    0.41
  -5  -2   3    1.83    0.36
   5  -2  -3    0.04    0.76
  -5  -2   3    1.46    0.26
   5  -2  -3    1.20    0.47
  -5  -2   3    1.33    0.35
  -5  -2   3    1.51    0.67
  -5   2   3    1.80    0.45
  -5   2   3    1.70    0.82
   5   2  -3    1.39    0.37
   5   2  -3    1.23    0.41
  -5   2   3    2.37    0.44
   5   2  -3    1.03    0.68
   5   2  -3    1.13    0.32
  -5   2   3    2.01    0.44
  -5   2   3    1.77    0.30
  -4  -2   3    0.17    0.22
  -4  -2   3    0.24    0.14
   4  -2  -3    0.10    0.28
  -4  -2   3   -0.06    0.13
   4  -2  -3    0.37    0.26
   4  -2  -3    0.29    0.13
  -4  -2   3    0.16    0.40
   4  -2  -3    0.37    0.62
   4  -2  -3    0.01    0.24
  -4  -2   3    0.44    0.20
  -4  -2   3    0.27    0.30
   4   2  -3    0.20    0.24
   4   2  -3    0.24    0.39
  -4   2   3    0.81    0.30
  -4   2   3    0.50    0.26
  -4   2   3    0.26    0.14
   4   2  -3    0.36    0.20
  -4   2   3    0.17    0.21
   4   2  -3    0.09    0.20
  -4   2   3    0.38    0.53
  -3  -2   3   35.31    2.22
  -3  -2   3   29.39    2.52
   3  -2  -3   38.05    2.36
   3  -2  -3   32.54    2.34
  -3  -2   3   30.42    2.32
   3  -2  -3   38.47    2.19
  -3  -2   3   34.03    2.25
   3  -2  -3   37.70    2.27
   3   2  -3   37.64    2.34
  -3   2   3   36.08    2.19
   3   2  -3   35.28    2.55
  -3   2   3   37.76    2.33
  -3   2   3   39.68    2.31
   3   2  -3   34.63    2.26
   3   2  -3   32.88    2.15
  -3   2   3   38.59    2.28
   3   2  -3   37.23    2.22
   3   2  -3   30.33    2.16
   2  -2  -3    1.57    0.52
   2  -2  -3    2.98    0.40
  -2  -2   3    2.03    0.34
   2  -2  -3    2.39    0.31
   2  -2  -3    2.33    0.20
  -2  -2   3    2.64    0.30
  -2  -2   3    2.43    0.27
   2  -2  -3    2.16    0.31
  -2  -2   3    2.27    0.41
  -2   2   3    2.76    0.29
   2   2  -3    2.47    0.28
   2   2  -3    2.29    0.27
  -2   2   3    3.26    0.38
  -2   2   3    2.73    0.27
  -2   2   3    2.21    0.21
   1  -2  -3  150.12    9.00
  -1  -2   3  137.76    8.92
  -1  -2   3  149.48    8.97
  -1  -2   3  145.27    8.97
   1  -2  -3  157.75    9.06
   1  -2  -3  146.98    8.96
  -1   2   3  151.34    8.95
   1   2  -3  152.11    8.97
   1   2  -3  139.86    8.94
   1   2  -3  145.93    8.96
  -1   2   3  149.75    8.94
  -1   2   3  168.92    9.04
  -1   2   3  142.95    8.93
  -1   2   3  153.73    8.99
   0  -2   3    3.24    0.20
   0  -2  -3    3.07    0.23
   0  -2   3    3.39    0.26
   0  -2   3    3.19    0.26
   0  -2  -3    3.91    0.35
   0  -2   3    3.20    0.24
   0  -2  -3    3.06    0.24
   0  -2   3    3.00    0.35
   0  -2  -3    3.50    0.35
   0  -2   3    3.11    0.32
   0   2   3    2.97    0.28
   0   2  -3    2.44    0.36
   0   2   3    3.04    0.23
   0   2  -3    3.04    0.25
   0   2  -3    2.93    0.19
   0   2   3    2.78    0.27
   0   2   3    3.46    0.34
  -1  -2  -3   14.21    0.88
   1  -2   3   14.48    0.95
  -1  -2  -3   14.97    0.93
  -1  -2  -3   15.11    0.91
   1  -2   3   13.08    1.03
  -1  -2  -3   14.59    0.90
   1   2   3   14.14    0.88
  -1   2  -3   14.09    0.89
   1   2   3   13.41    0.88
   1   2   3   11.83    0.96
  -1   2  -3   12.59    1.08
  -1   2  -3   12.23    1.22
   1   2   3   12.81    1.00
  -2  -2  -3    0.60    0.12
   2  -2   3    0.68    0.12
  -2  -2  -3    0.76    0.18
   2  -2   3    0.49    0.30
   2  -2   3    0.52    0.35
   2  -2   3    0.81    0.23
  -2  -2  -3    0.38    0.23
  -2  -2  -3    0.52    0.19
  -2   2  -3    0.76    0.19
   2   2   3    0.33    0.31
   2   2   3    0.57    0.13
   2   2   3    0.48    0.19
  -2   2  -3    0.97    0.33
   2   2   3    0.65    0.12
  -2   2  -3    0.51    0.30
  -2   2  -3    0.59    0.11
   2   2   3    0.67    0.10
   3  -2   3    9.51    0.95
  -3  -2  -3   11.03    0.89
   3  -2   3   11.05    0.78
   3  -2   3   10.84    1.12
  -3  -2  -3    9.05    1.22
  -3  -2  -3   11.60    0.73
  -3  -2  -3   10.94    0.77
  -3  -2  -3   10.13    0.89
  -3   2  -3   12.75    0.95
   3   2   3   11.99    0.80
   3   2   3   11.43    0.92
   3   2   3   11.24    0.87
  -3   2  -3   10.22    0.76
  -3   2  -3   12.94    0.75
   3   2   3   11.20    0.70
  -3   2  -3   11.85    1.31
  -3   2  -3   10.22    1.06
   4  -2   3    8.12    0.63
  -4  -2  -3    6.24    0.77
  -4  -2  -3    6.50    1.26
   4  -2   3    9.91    1.09
  -4  -2  -3    7.46    0.78
  -4  -2  -3    7.93    0.63
   4  -2   3    8.22    0.65
  -4  -2  -3    8.29    0.55
   4   2   3    7.96    0.87
  -4   2  -3    7.45    1.01
   4   2   3    8.66    0.68
  -4   2  -3    7.86    0.83
  -4   2  -3    7.42    0.62
  -4   2  -3    8.39    0.56
   4   2   3    6.81    0.76
  -4   2  -3    8.29    1.43
  -5  -2  -3   27.66    1.68
  -5  -2  -3   26.97    1.81
   5  -2   3   21.06    2.10
  -5  -2  -3   24.46    2.63
  -5  -2  -3   24.05    1.94
   5  -2   3   28.41    1.79
   5   2   3   29.04    2.14
   5   2   3   27.90    2.09
  -5   2  -3   26.58    1.79
  -5   2  -3   30.79    2.20
  -5   2  -3   30.39    2.14
  -5   2  -3   28.17    1.71
  -6  -2  -3    3.06    0.64
   6  -2   3    3.10    0.51
  -6  -2  -3    3.19    0.71
   6  -2   3    1.81    1.06
  -6  -2  -3    2.93    0.46
   6  -2   3    3.98    0.47
   6  -2   3    3.69    0.92
  -6   2  -3    3.19    0.85
  -6   2  -3    3.44    0.36
   6   2   3    2.63    0.70
  -6   2  -3    2.77    0.68
   6   2   3    1.98    1.23
  -6   2  -3    3.36    0.48
   7  -2   3    2.98    1.47
  -7  -2  -3    4.45    0.83
  -7  -2  -3    5.00    0.66
   7  -2   3    3.56    1.06
   7   2   3    3.62    1.70
  -7   2  -3    4.52    0.62
  -7   2  -3    3.67    0.96
   7   2   3    4.94    1.10
  -8  -2  -3    0.16    0.37
   8  -2   3    0.20    1.49
  -8  -2  -3    1.57    0.77
   8   2   3    1.07    1.88
  -8   2  -3    0.11    0.34
  -8   2  -3   -0.60    0.82
  -8  -3   3   26.35    1.74
   8  -3  -3   20.31    3.96
  -8  -3   3   25.78    1.87
   8  -3  -3   30.06    2.22
   8  -3  -3   20.26    2.54
   8   3  -3   21.92    3.66
  -8   3   3   24.67    1.86
   8   3  -3   27.41    2.48
  -8   3   3   27.10    2.41
  -7  -3   3    1.32    0.41
   7  -3  -3    1.51    1.33
  -7  -3   3    1.48    0.33
   7  -3  -3    1.26    0.74
  -7  -3   3    1.49    0.41
   7  -3  -3    1.73    0.66
   7   3  -3    1.42    0.64
  -7   3   3    1.55    0.44
   7   3  -3    1.80    1.28
  -7   3   3    1.44    0.76
  -6  -3   3   47.47    3.29
  -6  -3   3   51.82    3.18
  -6  -3   3   52.64    3.17
   6  -3  -3   50.09    3.42
  -6  -3   3   48.76    3.25
   6   3  -3   55.87    3.30
  -6   3   3   48.03    3.22
   6   3  -3   49.11    3.52
  -6   3   3   49.41    3.44
   6   3  -3   48.34    4.19
  -6   3   3   51.10    3.31
   5  -3  -3   51.71    3.45
  -5  -3   3   54.41    3.53
  -5  -3   3   56.18    3.57
   5  -3  -3   48.54    3.76
   5  -3  -3   52.48    3.64
  -5  -3   3   53.94    3.47
   5  -3  -3   53.83    3.63
   5   3  -3   56.48    4.21
  -5   3   3   54.36    3.48
   5   3  -3   56.87    3.52
   5   3  -3   57.29    3.73
  -5   3   3   60.60    3.62
   5   3  -3   57.82    3.71
   5   3  -3   58.88    3.48
  -5   3   3   55.87    3.64
  -5   3   3   61.84    3.71
   5   3  -3   53.12    3.50
   4  -3  -3   88.83    5.34
   4  -3  -3   83.68    5.37
   4  -3  -3   85.55    5.19
   4  -3  -3   74.66    5.41
  -4  -3   3   70.86    5.36
  -4  -3   3   83.21    5.23
  -4  -3   3   82.38    5.27
   4   3  -3   95.28    5.77
  -4   3   3   92.56    5.36
   4   3  -3   91.08    5.33
   4   3  -3   83.15    5.22
  -4   3   3   91.76    5.36
   4   3  -3   87.64    5.38
  -4   3   3   83.16    5.20
   4   3  -3   88.40    5.23
  -4   3   3   84.57    5.34
   3  -3  -3  137.37    8.77
  -3  -3   3  135.72    8.92
   3  -3  -3  139.72    8.93
  -3  -3   3  128.35    9.15
   3  -3  -3  145.10    8.95
  -3  -3   3  142.46    8.82
   3  -3  -3  150.01    8.89
  -3  -3   3  132.99    8.83
  -3   3   3  166.64    8.96
   3   3  -3  168.75    9.19
  -3   3   3  144.16    8.78
   3   3  -3  137.73    8.76
  -3   3   3  152.02    8.89
   3   3  -3  145.72    8.88
   3   3  -3  149.63    8.90
  -3   3   3  158.24    8.89
   3   3  -3  149.93    8.82
   2  -3  -3   18.53    1.38
  -2  -3   3   20.17    1.30
   2  -3  -3   21.13    1.35
  -2  -3   3   20.26    1.52
  -2  -3   3   20.43    1.34
  -2  -3   3   18.43    1.28
  -2  -3   3   19.48    1.24
   2  -3  -3   18.53    1.33
  -2   3   3   21.44    1.38
   2   3  -3   19.12    1.28
   2   3  -3   18.40    1.30
  -2   3   3   21.37    1.31
  -2   3   3   19.47    1.24
  -2   3   3   20.92    1.25
  -2   3   3   18.59    1.32
   1  -3  -3   13.55    1.02
  -1  -3   3   13.98    0.94
   1  -3  -3   13.74    0.90
   1  -3  -3   14.39    0.95
  -1  -3   3   13.86    0.94
   1  -3  -3   15.22    1.00
  -1  -3   3   14.25    0.91
  -1  -3   3   13.95    0.94
  -1  -3   3   14.01    0.90
   1   3  -3   14.59    0.94
  -1   3   3   15.21    1.00
  -1   3   3   15.17    0.94
   1   3  -3   16.18    1.04
   1   3  -3   11.85    0.92
  -1   3   3   14.66    0.90
   1   3  -3   14.60    0.94
  -1   3   3   12.72    0.97
   0  -3   3    0.27    0.10
   0  -3  -3    0.28    0.07
   0  -3   3    0.36    0.04
   0  -3  -3    0.32    0.15
   0  -3   3    0.64    0.25
   0  -3   3    0.51    0.14
   0  -3  -3    0.29    0.11
   0  -3   3    0.19    0.07
   0  -3  -3    0.34    0.17
   0  -3   3    0.36    0.17
   0   3  -3    0.20    0.06
   0   3  -3    0.47    0.12
   0   3  -3    0.19    0.10
   0   3   3    0.74    0.17
   0   3   3    0.09    0.15
   0   3  -3    0.04    0.18
   0   3   3    0.28    0.08
   1  -3   3    0.28    0.19
   1  -3   3    0.59    0.31
   1  -3   3    0.50    0.12
   1  -3   3    0.57    0.15
  -1  -3  -3    0.87    0.18
  -1  -3  -3    0.42    0.08
  -1  -3  -3    0.02    0.17
  -1   3  -3    0.30    0.17
   1   3   3    0.38    0.15
  -1   3  -3    0.14    0.24
   1   3   3    0.51    0.10
  -1   3  -3    0.53    0.12
   1   3   3    0.36    0.10
   1   3   3    0.84    0.24
   1   3   3    0.57    0.11
  -1   3  -3    0.50    0.14
  -2  -3  -3   13.98    0.97
  -2  -3  -3   14.93    1.01
   2  -3   3   12.29    1.13
   2  -3   3   13.73    0.95
  -2  -3  -3   14.74    0.94
   2  -3   3   14.03    0.88
   2  -3   3   14.45    1.07
   2  -3   3   12.78    1.38
  -2  -3  -3   12.08    1.11
   2   3   3   14.24    1.03
  -2   3  -3   14.01    0.96
  -2   3  -3   12.79    1.18
  -2   3  -3   14.74    1.26
  -2   3  -3   16.35    1.04
   2   3   3   14.18    1.12
   2   3   3   14.94    0.97
   2   3   3   15.00    0.92
   2   3   3   16.40    0.96
   3  -3   3    1.81    0.19
  -3  -3  -3    1.47    0.31
  -3  -3  -3    1.68    0.24
  -3  -3  -3    1.11    0.46
  -3  -3  -3    1.45    0.23
   3  -3   3    1.65    0.25
  -3  -3  -3    2.05    0.36
   3  -3   3    1.16    0.32
   3  -3   3    0.97    0.45
   3  -3   3    0.97    0.50
  -3   3  -3    1.62    0.50
   3   3   3    2.28    0.29
  -3   3  -3    0.87    0.45
   3   3   3    1.78    0.34
   3   3   3    1.66    0.28
  -3   3  -3    1.53    0.23
   3   3   3    1.47    0.60
  -3   3  -3    1.82    0.26
   3   3   3    1.39    0.41
   3   3   3    1.78    0.18
  -3   3  -3    1.91    0.34
   4  -3   3    6.21    1.00
  -4  -3  -3    9.86    0.71
  -4  -3  -3    9.80    0.85
  -4  -3  -3    8.02    0.86
  -4  -3  -3    6.27    1.26
   4  -3   3    7.31    0.95
   4  -3   3    8.67    0.70
   4  -3   3    8.70    0.65
  -4  -3  -3    8.66    0.65
  -4   3  -3   10.42    0.68
   4   3   3    6.83    1.41
  -4   3  -3    9.86    0.89
   4   3   3    9.71    0.91
  -4   3  -3    8.90    0.68
   4   3   3    9.49    0.60
  -4   3  -3    8.74    1.07
   4   3   3    9.43    0.76
   4   3   3    8.72    0.81
  -4   3  -3    9.94    1.52
   5  -3   3   40.41    2.48
  -5  -3  -3   30.83    3.19
   5  -3   3   35.48    2.48
  -5  -3  -3   38.75    2.50
  -5  -3  -3   40.68    2.65
  -5  -3  -3   35.67    2.40
  -5  -3  -3   38.02    2.41
  -5   3  -3   42.52    2.44
   5   3   3   40.98    2.85
  -5   3  -3   41.66    2.91
  -5   3  -3   43.01    3.15
  -5   3  -3   43.41    2.49
   5   3   3   30.84    3.41
   5   3   3   40.52    2.78
   6  -3   3    0.11    0.99
  -6  -3  -3    1.08    0.50
  -6  -3  -3    0.89    0.30
  -6  -3  -3    1.19    0.24
   6  -3   3    1.37    0.35
   6  -3   3    0.86    0.37
   6  -3   3    0.39    0.71
  -6  -3  -3    0.63    0.57
   6   3   3    1.38    1.27
  -6   3  -3    0.60    0.26
  -6   3  -3    0.59    0.55
  -6   3  -3    0.21    0.69
  -6   3  -3    1.50    0.28
  -7  -3  -3   33.12    2.33
  -7  -3  -3   33.33    2.55
   7  -3   3   37.64    2.37
   7   3   3   31.90    4.04
  -7   3  -3   36.13    2.84
  -8  -3  -3    3.43    0.59
  -8  -3  -3    4.78    0.97
   8  -3   3    2.56    1.74
   8   3   3    3.99    2.13
  -8   3  -3    3.78    1.14
  -8   3  -3    5.45    0.73
  -8  -4   3    0.64    0.47
   8  -4  -3    1.11    0.86
   8  -4  -3   -0.29    0.88
  -8  -4   3    0.99    0.38
   8  -4  -3   -0.12    1.70
  -8   4   3    0.17    0.46
   8   4  -3    1.11    0.82
   8   4  -3   -0.42    1.46
  -8   4   3    0.65    1.06
  -7  -4   3    0.82    0.31
   7  -4  -3    0.86    1.45
   7  -4  -3   -0.27    0.66
  -7  -4   3    0.12    0.38
   7  -4  -3    0.71    0.73
   7   4  -3    1.41    1.19
  -7   4   3    0.64    0.76
   7   4  -3   -0.14    0.61
   7   4  -3    0.87    0.59
  -7   4   3    0.64    0.38
  -6  -4   3   23.61    1.56
   6  -4  -3   23.79    1.86
   6  -4  -3   16.34    3.00
  -6  -4   3   24.22    1.64
  -6  -4   3   24.63    2.26
   6  -4  -3   18.13    2.01
   6   4  -3   25.12    2.58
   6   4  -3   20.55    1.63
  -6   4   3   23.03    1.59
   6   4  -3   23.38    1.87
  -6   4   3   19.18    2.18
   6   4  -3   24.70    1.72
   5  -4  -3    2.34    0.55
  -5  -4   3    2.41    0.84
   5  -4  -3    1.90    1.16
   5  -4  -3    2.73    0.40
  -5  -4   3    2.16    0.37
  -5  -4   3    1.94    0.37
   5  -4  -3    2.73    0.64
  -5  -4   3    3.00    0.63
   5   4  -3    2.20    0.75
   5   4  -3    3.05    0.60
   5   4  -3    3.43    0.48
  -5   4   3    2.71    0.53
  -5   4   3    3.51    0.63
   5   4  -3    2.72    0.39
   5   4  -3    3.55    0.50
  -5   4   3    2.86    0.40
  -5   4   3    3.27    0.57
   4  -4  -3   61.44    3.82
  -4  -4   3   55.95    4.02
   4  -4  -3   58.46    4.09
  -4  -4   3   63.50    3.89
  -4  -4   3   58.96    3.90
   4  -4  -3   64.05    4.02
   4  -4  -3   60.10    4.01
   4   4  -3   60.62    3.81
   4   4  -3   68.21    3.89
  -4   4   3   69.30    4.03
   4   4  -3   61.09    3.85
  -4   4   3   65.28    3.85
   4   4  -3   66.48    3.99
   4   4  -3   66.73    4.01
  -4   4   3   65.11    3.98
  -4   4   3   53.70    3.99
  -3  -4   3    0.25    0.16
   3  -4  -3    0.85    0.29
  -3  -4   3    0.37    0.33
  -3  -4   3    0.66    0.24
   3  -4  -3    0.57    0.30
   3  -4  -3    0.12    0.61
   3  -4  -3    1.01    0.33
  -3  -4   3    0.90    0.23
  -3   4   3    0.32    0.20
   3   4  -3    0.39    0.22
   3   4  -3    0.38    0.13
  -3   4   3    0.86    0.29
  -3   4   3    0.69    0.28
   3   4  -3    0.68    0.36
   3   4  -3    0.65    0.14
  -3   4   3    0.75    0.63
  -3   4   3    0.61    0.14
   3   4  -3    0.59    0.22
   3   4  -3    0.59    0.19
  -3   4   3    0.38    0.13
  -2  -4   3    1.25    0.18
   2  -4  -3    0.51    0.51
   2  -4  -3    0.89    0.28
  -2  -4   3    1.48    0.28
  -2  -4   3    1.40    0.24
  -2  -4   3    1.16    0.34
   2  -4  -3    1.07    0.28
   2  -4  -3    1.30    0.27
  -2  -4   3    0.79    0.16
   2   4  -3    1.70    0.41
  -2   4   3    1.35    0.30
   2   4  -3    1.27    0.23
  -2   4   3    1.08    0.17
  -2   4   3    1.26    0.17
  -2   4   3    1.13    0.21
  -2   4   3    1.11    0.26
   2   4  -3    1.45    0.21
   2   4  -3    1.14    0.22
   2   4  -3    1.48    0.25
  -1  -4   3    4.98    0.52
   1  -4  -3    5.16    0.44
   1  -4  -3    4.99    0.38
   1  -4  -3    4.36    0.50
  -1  -4   3    4.98    0.40
   1  -4  -3    5.45    0.51
  -1  -4   3    4.89    0.35
  -1  -4   3    5.55    0.43
  -1  -4   3    4.68    0.43
  -1  -4   3    4.94    0.43
  -1   4   3    4.46    0.55
  -1   4   3    5.32    0.48
   1   4  -3    4.92    0.42
  -1   4   3    4.91    0.43
   1   4  -3    4.80    0.52
   1   4  -3    4.45    0.40
  -1   4   3    5.35    0.37
   1   4  -3    5.06    0.43
  -1   4   3    4.98    0.49
   0  -4   3  141.25    8.38
   0  -4  -3  134.17    8.37
   0  -4   3  139.86    8.38
   0  -4  -3  130.46    8.31
   0  -4  -3  138.90    8.43
   0  -4   3  140.81    8.36
   0  -4   3  137.60    8.36
   0  -4  -3  128.23    8.35
   0  -4   3  145.93    8.57
   0  -4  -3  141.69    8.46
   0  -4   3  129.21    8.27
   0   4   3  147.06    8.32
   0   4  -3  144.85    8.37
   0   4  -3  135.90    8.30
   0   4  -3  137.23    8.38
   0   4  -3  148.76    8.47
   0   4   3  139.09    8.37
   0   4   3  136.14    8.42
   1  -4   3   10.83    0.87
  -1  -4  -3   10.46    0.90
   1  -4   3   10.82    0.78
  -1  -4  -3   10.88    0.77
  -1  -4  -3   10.69    0.83
  -1  -4  -3   10.81    0.73
   1  -4   3   10.56    1.09
   1  -4   3   11.16    0.82
  -1   4  -3   10.39    0.77
   1   4   3   10.48    0.86
  -1   4  -3   12.23    0.81
  -1   4  -3   11.80    0.95
  -1   4  -3    9.92    0.95
   1   4   3   11.50    0.74
   1   4   3   11.53    0.77
   2  -4   3  243.51   14.92
  -2  -4  -3  231.40   14.88
   2  -4   3  247.03   15.04
   2  -4   3  228.44   15.45
  -2  -4  -3  241.46   14.94
  -2  -4  -3  246.58   14.97
   2  -4   3  251.86   15.09
   2   4   3  250.30   14.89
   2   4   3  259.95   14.99
  -2   4  -3  266.82   15.26
  -2   4  -3  260.17   14.99
   2   4   3  222.71   15.02
  -2   4  -3  232.96   14.82
  -2   4  -3  258.06   14.93
   2   4   3  268.84   14.91
  -2   4  -3  250.96   15.15
   2   4   3  272.95   14.95
   2   4   3  241.06   14.93
   3  -4   3    4.92    0.49
  -3  -4  -3    5.19    0.45
  -3  -4  -3    4.10    0.82
   3  -4   3    5.13    0.36
  -3  -4  -3    5.20    0.50
   3  -4   3    3.85    0.71
  -3  -4  -3    5.32    0.57
   3  -4   3    4.96    0.65
   3   4   3    5.49    0.42
  -3   4  -3    5.45    0.49
  -3   4  -3    5.06    0.93
  -3   4  -3    4.96    0.44
   3   4   3    5.87    0.61
   3   4   3    5.42    0.50
   3   4   3    5.37    0.50
  -3   4  -3    5.95    0.86
  -3   4  -3    5.43    0.55
   3   4   3    5.44    0.81
   3   4   3    5.73    0.71
  -4  -4  -3   26.66    1.86
   4  -4   3   24.41    2.14
   4  -4   3   29.14    1.90
  -4  -4  -3   26.14    2.03
  -4  -4  -3   27.81    1.87
   4  -4   3   29.00    1.80
  -4   4  -3   28.53    1.85
  -4   4  -3   27.41    2.26
   4   4   3   30.96    1.80
   4   4   3   26.08    2.43
  -4   4  -3   30.14    1.88
   4   4   3   29.02    2.03
   4   4   3   29.63    2.19
   4   4   3   31.35    2.00
  -4   4  -3   33.79    2.07
   5  -4   3    1.66    0.39
   5  -4   3    2.39    0.31
   5  -4   3    1.87    0.72
  -5  -4  -3    1.98    0.36
   5  -4   3    0.90    0.95
  -5  -4  -3    2.06    0.33
  -5  -4  -3    1.68    0.87
  -5  -4  -3    2.45    0.61
  -5   4  -3    1.86    0.32
  -5   4  -3    2.96    0.38
  -5   4  -3    1.87    0.49
   5   4   3    2.07    0.70
   5   4   3    2.87    0.55
   5   4   3    2.89    1.11
   5   4   3    1.49    0.61
   5   4   3    2.74    0.31
  -5   4  -3    1.41    0.78
  -6  -4  -3    1.84    0.40
   6  -4   3    1.99    0.36
  -6  -4  -3    2.18    0.79
   6  -4   3    3.12    0.53
   6  -4   3    2.71    0.88
  -6  -4  -3    2.16    1.27
  -6  -4  -3    3.19    0.46
   6  -4   3    1.95    1.26
  -6   4  -3    2.15    0.38
  -6   4  -3    2.36    0.83
   6   4   3    1.87    0.62
   6   4   3    1.53    1.19
   6   4   3    3.10    0.90
  -6   4  -3    1.40    0.58
  -7  -4  -3    4.28    0.60
   7  -4   3    1.92    1.51
   7  -4   3    4.47    0.74
   7   4   3    3.34    1.77
  -7   4  -3    3.64    0.52
  -7   4  -3    4.64    1.09
   7   4   3    2.80    1.14
   8  -4   3    6.06    2.21
  -8  -4  -3   10.19    1.07
  -8   4  -3    8.85    1.54
  -8   4  -3   11.41    1.01
   8   4   3   12.64    1.87
   8   4   3   10.84    2.64
  -8  -5   3   18.54    1.52
   8  -5  -3   17.12    2.52
  -8  -5   3   18.37    1.41
   8  -5  -3   17.66    2.12
   8  -5  -3   15.64    3.51
  -8   5   3   17.52    2.36
  -8   5   3   15.67    1.52
   8   5  -3   19.35    2.02
   8   5  -3   22.35    3.56
   7  -5  -3    6.48    2.35
  -7  -5   3    7.18    0.90
   7  -5  -3    9.13    1.23
   7  -5  -3    4.48    2.09
  -7  -5   3    9.74    0.86
  -7   5   3    6.57    1.24
  -7   5   3    7.46    0.87
   7   5  -3    8.43    2.14
   7   5  -3    8.91    1.30
  -6  -5   3   24.34    1.77
   6  -5  -3   25.01    2.06
   6  -5  -3   22.28    2.25
  -6  -5   3   24.23    1.73
  -6   5   3   25.78    2.08
  -6   5   3   23.17    1.73
   6   5  -3   23.76    1.73
   6   5  -3   27.63    2.01
   6   5  -3   29.35    3.18
  -5  -5   3    0.87    0.50
  -5  -5   3    0.29    0.76
  -5  -5   3    0.32    0.26
  -5  -5   3    0.33    0.26
   5  -5  -3    0.54    1.15
   5  -5  -3   -0.03    0.40
   5  -5  -3    0.06    0.40
  -5   5   3    0.78    0.52
   5   5  -3    0.65    0.36
  -5   5   3    0.25    0.21
   5   5  -3    0.76    0.60
   5   5  -3    0.15    0.28
   5   5  -3    0.68    0.28
  -4  -5   3    6.86    0.87
   4  -5  -3    7.36    0.92
  -4  -5   3    6.32    1.18
  -4  -5   3    7.65    0.73
  -4  -5   3    7.84    0.69
   4  -5  -3    7.60    0.94
  -4   5   3    8.75    0.93
  -4   5   3    9.07    0.65
  -4   5   3    8.14    1.82
   4   5  -3    8.72    0.67
  -4   5   3    9.19    0.65
   4   5  -3    7.67    0.67
   4   5  -3    9.85    0.90
  -4   5   3    8.45    0.82
   4   5  -3    8.88    0.72
  -4   5   3    7.79    0.93
   4   5  -3   10.13    0.83
   3  -5  -3    0.73    0.33
  -3  -5   3    1.40    0.46
  -3  -5   3    1.58    0.29
   3  -5  -3    0.58    0.35
   3  -5  -3    2.88    0.50
  -3  -5   3    1.60    0.24
  -3  -5   3    1.70    0.35
   3  -5  -3    0.66    0.75
  -3   5   3    1.99    0.25
   3   5  -3    1.68    0.28
   3   5  -3    1.11    0.25
   3   5  -3    1.83    0.30
  -3   5   3    1.37    0.38
  -3   5   3    1.68    0.24
   3   5  -3    2.01    0.26
  -3   5   3    1.54    0.29
  -3   5   3    1.94    0.42
  -3   5   3    1.73    0.74
  -2  -5   3    1.87    0.27
   2  -5  -3    1.59    0.33
  -2  -5   3    2.47    0.34
  -2  -5   3    1.92    0.33
   2  -5  -3    1.94    0.41
   2  -5  -3    0.68    0.64
  -2  -5   3    2.02    0.33
  -2  -5   3    2.46    0.52
  -2  -5   3    1.74    0.22
   2  -5  -3    2.16    0.38
  -2   5   3    1.86    0.22
  -2   5   3    1.69    0.21
  -2   5   3    1.50    0.33
  -2   5   3    2.42    0.35
  -2   5   3    1.84    0.52
   2   5  -3    1.33    0.25
  -2   5   3    1.78    0.37
   2   5  -3    1.88    0.29
   2   5  -3    1.98    0.30
   2   5  -3    2.31    0.33
  -1  -5   3   84.31    5.52
  -1  -5   3   93.38    5.54
  -1  -5   3   90.55    5.66
   1  -5  -3   84.05    5.61
  -1  -5   3   88.33    5.43
  -1  -5   3   89.59    5.55
   1  -5  -3   88.40    5.60
   1  -5  -3   88.46    5.46
   1  -5  -3   87.35    5.54
  -1  -5   3   93.46    5.52
  -1   5   3   89.28    5.58
  -1   5   3   96.26    5.57
   1   5  -3   95.64    5.53
   1   5  -3   87.34    5.58
   1   5  -3   93.23    5.50
  -1   5   3   94.70    5.46
  -1   5   3   93.06    5.60
   0  -5   3    1.09    0.24
   0  -5   3    0.68    0.10
   0  -5  -3    0.65    0.27
   0  -5   3    0.88    0.21
   0  -5  -3    1.04    0.28
   0  -5  -3    0.85    0.14
   0  -5   3    0.63    0.19
   0  -5  -3    1.10    0.22
   0  -5   3    1.35    0.40
   0  -5   3    0.77    0.30
   0  -5  -3    0.99    0.18
   0  -5   3    0.62    0.16
   0   5  -3    0.98    0.13
   0   5   3    0.75    0.14
   0   5  -3    0.63    0.31
   0   5   3    0.71    0.19
   0   5   3    0.87    0.26
   0   5  -3    0.55    0.18
  -1  -5  -3   88.58    5.80
   1  -5   3   92.02    5.81
  -1  -5  -3   90.05    5.74
  -1  -5  -3   87.71    5.69
  -1  -5  -3   96.92    5.89
   1  -5   3   87.70    6.13
   1  -5   3   91.85    5.75
   1  -5   3   95.87    5.80
  -1   5  -3   92.89    5.64
  -1   5  -3   97.20    5.79
  -1   5  -3   98.23    5.92
   1   5   3   92.37    5.82
  -1   5  -3  102.00    5.76
   1   5   3   91.90    5.73
   1   5   3   98.16    5.71
  -1   5  -3  104.27    5.96
   2  -5   3    9.01    0.73
   2  -5   3    8.80    0.88
  -2  -5  -3    8.33    0.76
  -2  -5  -3    9.32    0.65
  -2  -5  -3    8.42    0.72
   2  -5   3    7.61    1.20
   2  -5   3   10.62    0.97
   2   5   3    9.58    0.85
   2   5   3    8.81    0.67
  -2   5  -3    8.14    0.99
  -2   5  -3    9.86    0.76
  -2   5  -3    9.48    0.97
   2   5   3    9.63    0.68
  -2   5  -3    9.54    0.74
  -2   5  -3    8.84    0.57
   2   5   3    8.91    0.70
   2   5   3    9.41    0.77
  -3  -5  -3   65.68    4.29
   3  -5   3   65.41    4.46
  -3  -5  -3   69.26    4.37
   3  -5   3   68.69    4.30
   3  -5   3   61.57    4.48
  -3  -5  -3   68.72    4.23
  -3   5  -3   61.52    4.53
   3   5   3   73.63    4.22
  -3   5  -3   77.44    4.38
  -3   5  -3   69.75    4.15
  -3   5  -3   75.66    4.30
  -3   5  -3   69.37    4.74
  -3   5  -3   59.60    4.19
   3   5   3   77.26    4.43
   3   5   3   72.26    4.31
   3   5   3   69.11    4.28
   3   5   3   66.80    4.43
   3   5   3   67.17    4.35
   4  -5   3   11.63    1.08
   4  -5   3   14.81    0.91
  -4  -5  -3   12.14    1.05
   4  -5   3   12.10    1.36
  -4  -5  -3   13.95    1.02
  -4  -5  -3   13.73    1.21
   4   5   3   15.43    1.13
  -4   5  -3   10.87    1.45
   4   5   3   14.80    1.39
  -4   5  -3   15.52    1.08
  -4   5  -3   15.66    1.20
   4   5   3   15.77    1.36
   4   5   3   14.91    1.22
  -4   5  -3   13.92    0.99
   4   5   3   14.27    0.97
  -5  -5  -3    6.32    1.00
  -5  -5  -3    6.67    0.72
  -5  -5  -3    6.30    1.35
   5  -5   3    5.94    1.18
   5  -5   3    8.03    0.83
  -5  -5  -3    7.61    0.72
   5  -5   3    7.94    0.59
  -5   5  -3    8.09    0.75
   5   5   3    7.70    0.61
  -5   5  -3    6.31    1.11
  -5   5  -3    7.47    0.67
   5   5   3    7.76    1.40
  -5   5  -3    8.61    0.95
   5   5   3    7.60    1.12
   5   5   3    8.40    0.90
  -6  -5  -3    0.56    0.34
   6  -5   3    0.44    1.20
  -6  -5  -3    0.27    0.34
   6  -5   3    1.16    0.48
   6  -5   3    0.16    0.73
  -6   5  -3    0.10    0.27
   6   5   3    1.22    1.02
  -6   5  -3   -0.06    0.84
  -7  -5  -3    1.56    0.45
   7  -5   3    1.29    1.51
   7  -5   3    0.72    1.00
  -7   5  -3    2.23    1.09
   7   5   3    1.84    1.50
  -7   5  -3    1.24    0.41
   7   5   3    0.27    1.13
   7  -6  -3    8.94    2.61
  -7  -6   3   11.75    1.12
   7  -6  -3    8.69    1.59
  -7  -6   3   11.83    1.06
   7  -6  -3   12.61    1.67
  -7   6   3    9.84    1.05
  -7   6   3   11.63    1.75
   7   6  -3   14.22    2.38
   6  -6  -3    1.35    1.58
   6  -6  -3    1.01    0.66
   6  -6  -3    0.99    0.69
  -6  -6   3    0.59    0.37
  -6  -6   3    0.82    0.37
   6   6  -3    0.26    0.54
   6   6  -3    0.08    0.78
  -6   6   3    0.13    0.31
  -6   6   3    0.55    0.72
   6   6  -3    0.60    0.48
   5  -6  -3    0.54    0.49
  -5  -6   3    0.97    0.36
  -5  -6   3    0.77    0.31
   5  -6  -3   -0.31    1.21
   5  -6  -3    0.92    0.53
  -5   6   3    0.95    0.27
   5   6  -3    2.17    0.77
   5   6  -3    1.18    0.39
   5   6  -3    1.09    0.37
   5   6  -3    1.57    0.43
  -5   6   3    1.23    0.64
   4  -6  -3    2.34    0.56
  -4  -6   3    1.32    0.34
   4  -6  -3    0.98    0.50
  -4  -6   3    1.53    0.35
  -4  -6   3    1.66    0.45
  -4  -6   3    1.34    0.69
   4  -6  -3    1.51    1.03
  -4   6   3    1.39    0.26
   4   6  -3    1.95    0.35
   4   6  -3    2.03    0.32
   4   6  -3    1.45    0.36
  -4   6   3    2.94    1.10
  -4   6   3    1.71    0.27
  -3  -6   3   87.31    6.15
   3  -6  -3   90.47    5.91
   3  -6  -3   93.43    5.94
  -3  -6   3   94.64    5.82
  -3  -6   3   96.64    5.91
  -3  -6   3   85.13    5.72
  -3   6   3   95.90    5.85
   3   6  -3   92.91    5.78
   3   6  -3   98.42    5.85
  -3   6   3   92.53    5.71
  -3   6   3  100.57    5.95
  -3   6   3   98.89    5.71
   3   6  -3   96.69    5.86
   3   6  -3   92.88    5.73
  -3   6   3   97.54    6.38
  -2  -6   3    0.74    0.29
  -2  -6   3    1.27    0.35
  -2  -6   3    1.29    0.19
   2  -6  -3    0.49    0.34
  -2  -6   3    1.71    0.45
  -2  -6   3    0.96    0.26
  -2  -6   3    1.15    0.29
   2  -6  -3    1.25    0.32
   2  -6  -3    0.87    0.68
   2  -6  -3    0.95    0.36
  -2  -6   3    1.45    0.32
  -2   6   3    0.94    0.16
  -2   6   3    1.13    0.36
  -2   6   3    1.21    0.41
   2   6  -3    1.49    0.32
   2   6  -3    0.96    0.28
  -2   6   3    1.49    0.37
  -2   6   3    0.99    0.17
  -2   6   3    1.08    0.30
   2   6  -3    1.33    0.30
   2   6  -3    1.90    0.38
  -1  -6   3  232.54   13.48
   1  -6  -3  215.15   13.57
  -1  -6   3  208.80   13.36
   1  -6  -3  212.18   13.56
   1  -6  -3  222.61   13.50
  -1  -6   3  222.43   13.66
   1  -6  -3  204.03   13.39
  -1  -6   3  220.53   13.49
  -1  -6   3  231.25   13.50
   1   6  -3  219.17   13.55
  -1   6   3  238.69   13.50
  -1   6   3  232.76   13.40
   1   6  -3  234.41   13.44
  -1   6   3  225.03   13.50
  -1   6   3  228.95   13.55
   1   6  -3  227.83   13.48
   0  -6   3    1.72    0.32
   0  -6  -3    1.74    0.39
   0  -6   3    2.33    0.37
   0  -6  -3    1.75    0.39
   0  -6  -3    2.05    0.24
   0  -6   3    2.83    0.60
   0  -6   3    1.91    0.17
   0  -6  -3    1.92    0.37
   0  -6   3    2.17    0.53
   0  -6   3    2.23    0.35
   0  -6  -3    1.87    0.27
   0  -6   3    1.70    0.31
   0   6  -3    1.47    0.43
   0   6   3    3.00    0.45
   0   6   3    1.17    0.27
   0   6  -3    2.37    0.34
   0   6  -3    1.75    0.24
   0   6   3    2.08    0.26
  -1  -6  -3   34.64    2.29
   1  -6   3   34.35    2.31
   1  -6   3   33.62    2.36
  -1  -6  -3   35.03    2.22
  -1  -6  -3   34.14    2.38
   1  -6   3   35.47    2.78
  -1  -6  -3   35.12    2.33
  -1  -6  -3   35.28    2.46
   1  -6   3   34.36    2.29
  -1   6  -3   35.62    2.49
  -1   6  -3   36.03    2.17
  -1   6  -3   40.03    2.51
   1   6   3   34.36    2.27
   1   6   3   37.54    2.39
  -1   6  -3   36.97    2.16
  -1   6  -3   35.93    2.31
   1   6   3   36.12    2.24
  -1   6  -3   37.25    2.36
  -2  -6  -3   23.04    1.51
  -2  -6  -3   20.84    1.64
   2  -6   3   20.06    2.18
   2  -6   3   21.41    1.73
   2  -6   3   24.98    1.63
   2  -6   3   22.03    1.71
  -2  -6  -3   24.17    1.62
   2   6   3   24.45    1.66
  -2   6  -3   23.75    1.43
  -2   6  -3   26.14    1.63
  -2   6  -3   20.56    1.88
  -2   6  -3   25.95    1.88
   2   6   3   23.55    1.55
   2   6   3   23.97    1.56
  -2   6  -3   23.38    1.45
   2   6   3   26.21    1.72
   3  -6   3   19.89    1.68
   3  -6   3   22.00    1.52
  -3  -6  -3   21.12    1.40
  -3  -6  -3   19.75    1.51
  -3  -6  -3   21.59    1.56
   3  -6   3   16.88    2.22
  -3   6  -3   19.24    1.85
  -3   6  -3   20.26    1.36
  -3   6  -3   21.76    1.51
  -3   6  -3   24.84    1.58
   3   6   3   18.06    1.54
   3   6   3   19.88    1.61
   3   6   3   22.17    1.49
  -3   6  -3   22.02    1.30
   3   6   3   23.50    1.42
  -4  -6  -3   11.83    1.11
  -4  -6  -3   13.64    1.03
  -4  -6  -3   13.75    1.27
   4  -6   3   12.55    1.39
   4  -6   3   13.90    1.17
   4   6   3   15.01    1.16
  -4   6  -3   13.25    1.56
  -4   6  -3   15.72    1.22
  -4   6  -3   14.29    1.24
   4   6   3   12.74    1.34
  -4   6  -3   14.75    0.91
   4   6   3   15.48    1.01
  -4   6  -3   13.98    1.00
   5  -6   3   69.20    4.26
  -5  -6  -3   66.84    4.15
  -5  -6  -3   61.29    4.16
   5  -6   3   57.28    4.54
  -5   6  -3   67.87    4.09
  -5   6  -3   62.90    4.62
   5   6   3   71.74    4.38
  -5   6  -3   69.08    4.52
   5   6   3   63.00    4.46
   5   6   3   68.51    4.08
   6  -6   3    7.50    0.96
  -6  -6  -3    5.47    0.78
  -6  -6  -3    7.32    0.83
   6   6   3    8.09    1.46
  -6   6  -3    6.37    0.71
   6   6   3    5.77    1.20
  -6   6  -3    6.92    1.38
  -7  -6  -3   11.23    1.18
   7   6   3   11.23    1.72
  -7   6  -3   17.15    2.24
   7  -7  -3    0.23    0.94
  -7  -7   3    0.86    0.51
   7  -7  -3    0.22    2.10
   7  -7  -3    0.62    1.11
  -7  -7   3    0.04    0.47
  -7   7   3   -0.13    1.02
  -7   7   3    0.94    0.47
   7   7  -3    1.56    1.27
  -6  -7   3    4.23    0.63
  -6  -7   3    3.70    0.65
   6  -7  -3    2.92    1.92
   6  -7  -3    4.09    0.93
   6  -7  -3    5.10    1.19
  -6   7   3    4.93    0.66
  -6   7   3    5.22    1.06
   6   7  -3    7.31    1.74
   6   7  -3    4.91    0.97
  -5  -7   3    3.34    0.47
   5  -7  -3    1.44    1.54
  -5  -7   3    1.93    0.50
   5  -7  -3    2.12    0.69
   5  -7  -3    1.89    0.66
   5   7  -3    3.66    0.58
  -5   7   3    2.31    0.81
   4  -7  -3   28.89    2.34
   4  -7  -3   27.75    2.31
  -4  -7   3   31.30    2.17
  -4  -7   3   30.37    2.03
   4   7  -3   31.78    2.06
   4   7  -3   32.35    2.13
  -4   7   3   28.62    2.38
  -4   7   3   36.17    3.40
  -4   7   3   32.24    2.01
   4   7  -3   32.75    2.19
  -3  -7   3    3.38    0.59
  -3  -7   3    3.06    0.56
  -3  -7   3    3.16    0.80
  -3  -7   3    3.45    0.60
   3  -7  -3    3.36    0.65
  -3  -7   3    3.54    0.52
   3  -7  -3    3.63    0.64
  -3  -7   3    3.30    0.37
   3   7  -3    3.69    0.53
  -3   7   3    3.36    0.38
   3   7  -3    3.26    0.52
  -3   7   3    4.29    0.87
   3   7  -3    3.93    0.57
  -3   7   3    2.87    0.35
  -3   7   3    4.10    0.71
   2  -7  -3   47.37    3.10
  -2  -7   3   46.94    3.04
  -2  -7   3   46.83    3.07
  -2  -7   3   47.82    3.20
  -2  -7   3   50.12    3.34
   2  -7  -3   43.30    3.17
  -2  -7   3   41.96    3.06
  -2  -7   3   43.09    2.90
   2   7  -3   50.90    3.12
   2   7  -3   49.99    3.05
  -2   7   3   48.63    3.17
  -2   7   3   48.06    2.92
  -2   7   3   48.24    2.92
  -2   7   3   50.60    3.19
   1  -7  -3    2.68    0.32
  -1  -7   3    2.75    0.27
   1  -7  -3    2.94    0.40
  -1  -7   3    2.83    0.49
  -1  -7   3    3.16    0.48
   1  -7  -3    3.31    0.49
   1  -7  -3    2.71    0.56
  -1  -7   3    3.50    0.52
  -1  -7   3    3.66    0.46
  -1  -7   3    2.84    0.65
  -1  -7   3    3.96    0.73
  -1   7   3    2.79    0.48
  -1   7   3    2.96    0.40
   1   7  -3    3.82    0.43
  -1   7   3    3.22    0.33
   1   7  -3    3.01    0.57
   0  -7  -3   22.68    1.51
   0  -7  -3   20.74    1.41
   0  -7   3   19.94    1.53
   0  -7   3   21.79    1.57
   0  -7   3   19.89    1.35
   0  -7   3   23.85    1.94
   0  -7   3   23.52    1.53
   0  -7  -3   19.61    1.62
   0  -7   3   20.87    1.55
   0  -7  -3   22.12    1.56
   0   7  -3   24.41    1.45
   0   7  -3   21.67    1.74
   0   7   3   23.27    1.63
   0   7   3   23.10    1.43
   1  -7   3    3.39    0.87
  -1  -7  -3    3.47    0.38
   1  -7   3    3.94    0.57
  -1  -7  -3    4.40    0.56
   1  -7   3    3.43    0.57
   1  -7   3    3.95    0.55
  -1  -7  -3    4.74    0.66
   1  -7   3    4.37    0.49
  -1  -7  -3    4.81    0.50
  -1   7  -3    5.08    0.35
  -1   7  -3    3.94    0.32
  -1   7  -3    4.70    0.57
  -1   7  -3    4.01    0.66
  -1   7  -3    6.42    0.92
   1   7   3    4.33    0.65
   1   7   3    5.13    0.55
  -2  -7  -3    2.08    0.41
  -2  -7  -3    2.06    0.37
   2  -7   3    1.61    0.38
   2  -7   3    1.75    0.84
   2  -7   3    2.25    0.49
  -2  -7  -3    1.64    0.48
  -2  -7  -3    1.73    0.26
  -2   7  -3    1.53    0.36
   2   7   3    2.33    0.47
  -2   7  -3    2.41    0.77
  -2   7  -3    2.28    0.65
  -2   7  -3    1.64    0.19
  -3  -7  -3   12.02    1.08
  -3  -7  -3   10.80    1.07
   3  -7   3   10.67    1.03
   3  -7   3   11.20    1.21
  -3  -7  -3   10.50    0.86
  -3   7  -3   13.85    1.46
   3   7   3   10.18    1.13
  -3   7  -3   12.62    0.75
  -3   7  -3   12.16    0.83
  -3   7  -3   13.10    1.08
  -4  -7  -3   12.33    1.18
   4  -7   3    9.63    2.19
  -4  -7  -3   13.86    1.03
   4  -7   3   13.09    1.43
  -4   7  -3   14.00    0.99
   4   7   3   15.58    1.42
  -4   7  -3   14.92    1.24
  -4   7  -3   13.36    1.68
   5  -7   3   13.83    1.34
  -5  -7  -3   11.50    1.18
   5  -7   3   14.34    2.48
  -5  -7  -3   14.10    1.09
  -5   7  -3   11.33    1.67
   5   7   3   14.89    1.61
  -5   7  -3   14.06    1.16
  -6  -7  -3   18.65    1.45
   6  -7   3   19.74    1.80
   6   7   3   16.26    2.09
  -6   7  -3   17.66    2.38
   6  -8  -3    6.64    2.51
   6  -8  -3   11.34    1.67
  -6  -8   3    9.47    1.01
   6  -8  -3   10.10    1.82
  -6  -8   3   10.41    1.23
   6   8  -3   11.16    1.37
  -6   8   3   10.51    0.98
  -6   8   3   13.97    1.93
  -5  -8   3    0.93    0.34
   5  -8  -3    0.25    0.74
  -5  -8   3    0.32    0.48
   5  -8  -3    0.61    1.58
   5  -8  -3    0.61    0.64
  -5   8   3    0.20    0.73
   5   8  -3    0.73    0.46
   5   8  -3    1.35    0.91
  -5   8   3    0.67    0.32
   4  -8  -3   20.04    2.07
  -4  -8   3   24.57    1.82
  -4  -8   3   24.66    1.90
  -4  -8   3   22.14    1.81
  -4  -8   3   23.22    1.60
   4  -8  -3   22.79    2.02
  -4   8   3   20.96    2.06
   4   8  -3   23.90    1.84
  -4   8   3   25.07    1.62
   4   8  -3   27.32    1.83
  -3  -8   3    3.26    0.59
  -3  -8   3    3.59    0.88
   3  -8  -3    4.17    0.69
  -3  -8   3    3.63    0.60
   3  -8  -3    3.18    0.74
  -3  -8   3    2.58    0.53
  -3  -8   3    3.22    0.38
  -3  -8   3    3.30    0.72
  -3   8   3    3.69    0.40
  -3   8   3    4.73    0.95
  -3   8   3    4.87    0.85
   3   8  -3    4.23    0.69
   2  -8  -3    0.53    0.32
  -2  -8   3    0.88    0.35
  -2  -8   3    1.65    0.63
   2  -8  -3    0.83    0.52
   2  -8  -3   -0.33    0.93
  -2  -8   3    0.96    0.44
  -2  -8   3    0.72    0.33
  -2  -8   3    0.62    0.41
  -2  -8   3    0.66    0.16
  -2   8   3    0.66    0.19
  -2   8   3    1.35    0.39
   2   8  -3    1.01    0.50
  -2   8   3    1.11    0.51
   2   8  -3    1.27    0.40
  -1  -8   3   19.51    1.50
  -1  -8   3   18.92    1.26
  -1  -8   3   18.62    1.50
  -1  -8   3   20.16    1.50
   1  -8  -3   21.02    1.45
   1  -8  -3   18.82    1.32
   1  -8  -3   19.90    1.65
  -1  -8   3   21.02    1.79
   1  -8  -3   20.86    1.51
   1   8  -3   22.62    1.42
  -1   8   3   21.08    1.61
   1   8  -3   16.84    1.64
   0  -8   3   46.36    3.59
   0  -8  -3   48.55    3.11
   0  -8  -3   48.68    3.00
   0  -8   3   48.64    3.16
   0  -8   3   44.69    2.93
   0  -8  -3   43.57    3.23
   0  -8  -3   48.54    3.16
   0  -8   3   48.86    3.17
   0   8   3   48.55    3.22
   0   8  -3   53.60    3.02
   0   8  -3   51.06    3.37
  -1  -8  -3    8.88    0.78
  -1  -8  -3    7.38    0.95
   1  -8   3    8.01    0.85
   1  -8   3    7.85    0.85
  -1  -8  -3    7.95    0.62
   1  -8   3    7.00    1.40
  -1  -8  -3    7.37    0.83
  -1   8  -3    7.55    1.07
  -1   8  -3    8.12    0.54
   1   8   3    6.78    0.99
   2  -8   3   89.62    5.69
   2  -8   3   90.05    5.77
  -2  -8  -3   85.25    5.52
  -2  -8  -3   88.10    5.70
  -2  -8  -3   84.74    5.74
  -2  -8  -3   90.65    5.68
   2   8   3   84.84    5.75
  -2   8  -3   91.88    5.96
  -2   8  -3   96.20    5.73
  -2   8  -3  102.27    5.46
  -2   8  -3   90.17    5.45
   3  -8   3    1.61    0.58
  -3  -8  -3    1.70    0.31
   3  -8   3    1.56    1.10
  -3  -8  -3    1.31    0.54
   3  -8   3    1.38    0.46
  -3   8  -3    1.38    0.26
   3   8   3    1.46    0.56
  -3   8  -3    2.09    0.83
  -4  -8  -3   22.93    1.99
  -4  -8  -3   25.21    1.78
   4  -8   3   28.74    2.10
   4  -8   3   28.18    2.67
   4   8   3   27.16    2.15
  -4   8  -3   29.81    2.55
   5  -8   3    3.70    0.83
  -5  -8  -3    4.22    0.58
  -5  -8  -3    2.71    0.70
  -5   8  -3    4.72    1.28
   5   8   3    5.19    0.96
   5  -9  -3    3.82    2.28
   5  -9  -3    6.57    1.31
  -5  -9   3    6.51    0.93
   5  -9  -3    5.21    1.10
  -5  -9   3    6.46    0.76
  -5   9   3    5.65    0.77
  -5   9   3    6.59    1.34
   5   9  -3    8.58    1.16
   4  -9  -3    0.42    0.83
  -4  -9   3    1.11    0.31
  -4  -9   3    1.28    0.62
  -4  -9   3    1.45    0.59
   4  -9  -3    1.25    0.73
   4  -9  -3   -0.31    1.81
  -4   9   3    1.83    0.34
  -4   9   3    1.05    0.88
   3  -9  -3    1.22    0.57
  -3  -9   3    0.58    0.50
   3  -9  -3    0.89    0.69
  -3  -9   3    1.12    0.54
   3  -9  -3    0.89    1.37
  -3  -9   3    0.72    0.23
  -3  -9   3    0.75    0.45
  -3   9   3    0.73    0.26
  -3   9   3    0.55    0.65
   3   9  -3   -0.50    0.63
  -2  -9   3    7.90    1.19
  -2  -9   3    7.91    0.95
   2  -9  -3    6.65    1.00
  -2  -9   3    7.05    0.90
  -2  -9   3    7.36    0.58
   2  -9  -3    7.25    1.33
  -2   9   3    7.10    0.98
  -2   9   3    5.94    0.81
   2   9  -3    7.56    1.07
   1  -9  -3    4.95    0.83
  -1  -9   3    5.58    1.15
  -1  -9   3    7.47    1.25
  -1  -9   3    6.35    0.48
  -1  -9   3    6.21    0.87
   1  -9  -3    6.36    0.98
  -1  -9   3    5.41    0.81
   1   9  -3    5.63    0.97
  -1   9   3    6.81    0.92
   0  -9  -3    7.91    1.01
   0  -9   3    8.30    0.95
   0  -9   3    7.93    0.91
   0  -9   3    7.30    1.49
   0  -9  -3    7.91    1.07
   0  -9  -3    7.53    0.65
   0  -9   3    7.65    0.57
   0   9   3    7.43    1.05
   0   9  -3    9.73    1.39
  -1  -9  -3   31.87    2.28
   1  -9   3   27.90    2.09
   1  -9   3   22.56    2.73
  -1  -9  -3   27.29    2.16
   1  -9   3   25.88    2.04
  -1  -9  -3   27.47    1.82
   1   9   3   29.18    2.14
  -1   9  -3   29.51    1.74
  -1   9  -3   30.59    2.38
  -2  -9  -3    2.19    0.34
  -2  -9  -3    2.71    0.57
  -2  -9  -3    1.58    0.63
   2  -9   3    2.41    0.67
   2  -9   3    2.34    0.59
   2  -9   3    2.12    1.22
  -2   9  -3    1.16    0.87
   2   9   3    3.30    0.72
  -3  -9  -3   21.71    1.79
  -3  -9  -3   21.03    1.47
   3  -9   3   16.77    2.83
  -3  -9  -3   21.31    1.86
   3  -9   3   22.24    1.80
   3   9   3   23.28    1.89
  -3   9  -3   23.26    2.24
   4  -9   3    0.05    1.57
   4  -9   3    3.45    0.85
  -4  -9  -3    3.57    0.78
  -4  -9  -3    2.14    0.40
  -4  -9  -3    3.31    0.79
  -4   9  -3    4.97    1.24
   4   9   3    2.22    0.88
  -4 -10   3    0.89    0.33
  -4 -10   3    2.58    0.72
   4 -10  -3   -0.38    0.89
  -4  10   3    0.62    0.35
   3 -10  -3   14.40    1.75
  -3 -10   3   14.51    1.02
   3 -10  -3   12.29    1.57
  -3 -10   3   13.19    1.47
  -3  10   3   14.40    1.05
  -3  10   3   13.04    1.80
   2 -10  -3    2.53    0.72
  -2 -10   3    2.64    0.38
  -2 -10   3    2.81    1.01
   2 -10  -3    1.58    0.76
  -2 -10   3    1.87    0.59
   2  10  -3    3.29    1.03
  -2  10   3    2.58    0.37
  -2  10   3    2.68    0.87
   1 -10  -3   20.94    1.80
  -1 -10   3   22.39    2.40
   1 -10  -3   20.51    2.02
  -1 -10   3   22.65    1.43
  -1 -10   3   19.89    1.80
  -1  10   3   22.79    1.46
   1  10  -3   24.62    2.27
  -1  10   3   21.84    1.99
   0 -10   3    5.33    1.37
   0 -10  -3    6.20    0.92
   0 -10  -3    3.71    0.89
   0 -10  -3    4.98    0.58
   0 -10   3    5.39    0.85
   0  10  -3    7.40    1.26
   0  10   3    5.01    0.90
   1 -10   3    5.02    1.51
   1 -10   3    5.06    0.82
  -1 -10  -3    5.14    0.93
  -1 -10  -3    5.64    0.59
  -1 -10  -3    4.16    0.93
   1  10   3    4.91    0.88
  -1  10  -3    6.58    1.18
   2 -10   3    9.15    1.24
   2 -10   3    6.24    1.90
  -2 -10  -3   10.31    1.16
  -2 -10  -3    7.79    1.20
  -2 -10  -3    8.41    0.76
  -2  10  -3    6.71    1.43
   2  10   3    9.75    1.39
   3 -10   3    1.16    1.56
  -3 -10  -3    1.50    0.35
   3 -10   3    3.48    0.82
  -3 -10  -3    2.43    0.85
  -3 -10  -3    2.33    0.72
  -3  10  -3    1.55    1.15
   3  10   3    2.28    0.84
   0 -11  -3    7.18    1.25
   0 -11  -3    6.82    0.75
   0 -11  -3    6.59    1.14
   0  11  -3    7.03    1.43
   0  11   3    9.22    1.28
   9   0  -4   46.87    5.78
   9   0  -4   55.80    4.11
  -9   0   4   45.47    3.28
  -9   0   4   49.88    3.17
  -8   0   4   16.05    1.20
  -8   0   4   16.57    1.36
   8   0  -4   15.60    2.07
  -8   0   4   17.40    1.47
   8   0  -4   13.45    3.43
   7   0  -4   17.63    3.11
   7   0  -4   20.02    1.99
  -7   0   4   20.04    1.53
  -7   0   4   20.43    1.43
  -7   0   4   21.64    1.64
   7   0  -4   21.60    1.70
  -6   0   4  172.49   10.50
   6   0  -4  146.20   11.37
  -6   0   4  172.52   10.17
  -6   0   4  174.74   10.09
  -6   0   4  175.40   10.22
  -6   0   4  166.28   10.20
   6   0  -4  152.91   10.47
   6   0  -4  170.53   10.19
   5   0  -4   25.55    1.63
  -5   0   4   24.74    1.59
  -5   0   4   25.21    1.73
  -5   0   4   22.66    1.62
   5   0  -4   22.65    2.55
   5   0  -4   19.88    1.85
  -5   0   4   23.34    1.89
  -5   0   4   25.58    1.70
  -4   0   4   35.21    2.23
  -4   0   4   37.58    2.36
   4   0  -4   31.26    2.84
  -4   0   4   36.45    2.27
  -4   0   4   34.29    2.25
   4   0  -4   32.67    2.23
   4   0  -4   38.02    2.22
  -4   0   4   34.83    2.45
   3   0  -4  236.55   13.93
  -3   0   4  240.72   13.95
  -3   0   4  248.15   14.09
   3   0  -4  239.56   13.95
  -3   0   4  217.89   14.10
  -3   0   4  233.20   13.96
   3   0  -4  234.81   14.41
   3   0  -4  227.95   14.09
  -3   0   4  215.30   13.97
   2   0  -4  329.11   17.62
  -2   0   4  271.64   17.50
   2   0  -4  308.56   17.31
   2   0  -4  249.44   17.41
  -2   0   4  291.28   17.31
  -2   0   4  269.48   17.39
  -2   0   4  306.21   17.29
  -1   0   4   63.70    3.91
   1   0  -4   62.99    4.00
  -1   0   4   67.74    3.92
  -1   0   4   69.59    3.87
  -1   0   4   62.56    3.90
   1   0  -4   65.13    3.88
  -1   0   4   59.96    4.00
   0   0   4  692.99   41.38
   1   0   4   18.37    1.19
   1   0   4   20.32    1.19
   1   0   4   20.01    1.23
   1   0   4   19.92    1.41
  -1   0  -4   17.81    1.31
  -1   0  -4   21.60    1.35
   1   0   4   18.03    1.23
   1   0   4   19.13    1.33
  -1   0  -4   18.67    1.20
   2   0   4  637.86   35.65
   2   0   4  528.74   35.55
   2   0   4  616.62   35.85
  -3   0  -4   87.64    5.16
  -3   0  -4   96.43    5.75
   3   0   4   88.40    5.19
   3   0   4   72.86    5.58
  -3   0  -4   77.54    5.36
   3   0   4   86.81    5.44
  -4   0  -4    5.81    0.49
  -4   0  -4    4.95    0.74
  -4   0  -4    4.08    0.70
  -4   0  -4    7.04    1.23
   4   0   4    6.31    0.56
   4   0   4    5.60    0.73
   4   0   4    5.70    0.87
  -5   0  -4    4.82    1.25
  -5   0  -4    5.83    0.85
   5   0   4    5.09    1.19
  -5   0  -4    5.51    0.52
   5   0   4    5.53    0.88
  -5   0  -4    4.51    0.85
   5   0   4    5.28    0.63
  -6   0  -4  173.48   10.46
   6   0   4  174.26   10.91
  -6   0  -4  169.09   10.82
  -7   0  -4   11.70    1.44
  -7   0  -4   12.11    1.02
  -8   0  -4  156.34    9.56
  -8   0  -4  156.25    9.87
   9  -1  -4    2.29    1.14
   9  -1  -4    2.63    2.13
  -9  -1   4    2.83    0.51
  -9  -1   4    2.46    0.54
   9   1  -4    1.83    2.13
  -9   1   4    2.61    0.88
  -9   1   4    2.17    0.59
   9   1  -4    3.85    1.16
  -9   1   4    2.43    0.47
   8  -1  -4   41.34    5.16
   8  -1  -4   44.44    3.68
  -8  -1   4   44.91    3.07
  -8  -1   4   50.87    3.09
  -8  -1   4   45.67    2.97
  -8   1   4   47.00    3.10
  -8   1   4   47.63    3.29
   8   1  -4   46.13    5.06
   8   1  -4   46.34    3.73
   7  -1  -4    9.88    2.48
  -7  -1   4   10.01    1.00
   7  -1  -4   10.69    1.29
  -7  -1   4   10.57    1.02
   7  -1  -4    9.47    1.46
  -7  -1   4    9.66    0.87
   7   1  -4   12.69    2.63
  -7   1   4   11.84    1.25
   7   1  -4   12.69    1.16
   7   1  -4   13.05    1.51
  -7   1   4   11.68    0.89
  -7   1   4   12.16    1.02
  -6  -1   4   23.97    1.74
  -6  -1   4   22.75    1.62
  -6  -1   4   26.02    1.58
   6  -1  -4   18.91    1.94
   6  -1  -4   22.62    2.98
  -6  -1   4   20.32    1.97
   6  -1  -4   23.88    1.75
  -6  -1   4   24.19    1.67
  -6   1   4   22.77    1.65
  -6   1   4   27.86    1.78
  -6   1   4   23.42    2.02
   6   1  -4   23.46    2.78
   6   1  -4   21.69    1.98
  -6   1   4   23.99    1.58
   6   1  -4   22.71    1.66
  -6   1   4   23.39    1.79
  -5  -1   4   47.09    3.45
   5  -1  -4   54.47    3.37
  -5  -1   4   50.54    3.19
  -5  -1   4   52.61    3.17
  -5  -1   4   46.89    3.22
   5  -1  -4   50.62    3.20
   5  -1  -4   53.33    3.25
  -5  -1   4   51.54    3.31
   5   1  -4   47.69    4.00
   5   1  -4   45.96    3.46
  -5   1   4   50.24    3.20
  -5   1   4   49.77    3.27
  -5   1   4   53.59    3.47
  -5   1   4   53.11    3.30
   5   1  -4   50.05    3.17
  -4  -1   4   32.48    1.96
   4  -1  -4   33.35    2.16
  -4  -1   4   31.43    1.97
  -4  -1   4   28.00    2.16
  -4  -1   4   28.23    1.99
   4  -1  -4   27.14    2.69
  -4  -1   4   32.90    2.09
   4  -1  -4   35.17    2.00
   4  -1  -4   32.91    1.96
   4   1  -4   29.47    1.99
  -4   1   4   29.42    1.95
   4   1  -4   31.87    1.91
  -4   1   4   29.78    2.07
   4   1  -4   25.00    2.14
   4   1  -4   28.42    2.49
  -4   1   4   32.10    2.16
  -4   1   4   30.08    2.00
   3  -1  -4   30.63    2.54
   3  -1  -4   35.38    2.27
   3  -1  -4   34.38    2.09
  -3  -1   4   28.24    2.08
  -3  -1   4   33.68    2.04
  -3  -1   4   33.39    2.19
  -3  -1   4   31.52    2.10
   3   1  -4   30.97    2.41
  -3   1   4   34.92    2.21
  -3   1   4   35.71    2.19
  -3   1   4   33.84    2.07
   3   1  -4   33.47    2.00
   3   1  -4   34.96    2.09
  -3   1   4   35.97    2.10
   3   1  -4   28.34    2.20
  -2  -1   4  161.04    8.56
  -2  -1   4  145.36    8.37
  -2  -1   4  140.83    8.36
  -2  -1   4  140.83    8.71
   2  -1  -4  138.82    8.40
  -2  -1   4  136.80    8.45
   2  -1  -4  143.23    8.59
   2  -1  -4  146.56    8.44
  -2  -1   4  139.16    8.43
   2  -1  -4  139.71    8.71
   2  -1  -4  122.44    8.48
  -2   1   4  136.16    8.41
  -2   1   4  151.77    8.45
   2   1  -4  142.88    8.42
   2   1  -4  143.73    8.46
  -2   1   4  144.95    8.43
  -2   1   4  119.25    8.51
   2   1  -4  130.44    8.49
  -1  -1   4    4.12    0.30
   1  -1  -4    4.95    0.46
  -1  -1   4    4.51    0.30
   1  -1  -4    4.57    0.49
  -1  -1   4    3.95    0.34
   1  -1  -4    4.49    0.32
  -1  -1   4    4.61    0.35
  -1  -1   4    4.61    0.35
   1  -1  -4    4.22    0.37
   1   1  -4    3.93    0.35
  -1   1   4    4.84    0.31
   1   1  -4    4.08    0.29
  -1   1   4    3.82    0.41
  -1   1   4    4.04    0.46
  -1   1   4    3.82    0.39
   1   1  -4    4.22    0.32
  -1   1   4    4.05    0.28
   0  -1   4  160.78   10.10
   0  -1  -4  168.01   10.10
   0  -1   4  167.22   10.11
   0  -1  -4  158.38    9.99
   0  -1   4  169.68   10.00
   0  -1   4  161.50    9.97
   0   1   4  177.10   10.06
   0   1  -4  164.46   10.02
   0   1   4  183.65   10.08
   0   1   4  168.16    9.99
   0   1   4  170.17   10.10
   0   1   4  160.35   10.08
   0   1  -4  164.17   10.07
   1  -1   4   84.78    5.58
   1  -1   4   89.62    5.38
  -1  -1  -4   75.91    5.42
  -1  -1  -4   94.33    5.49
   1  -1   4   94.12    5.66
  -1  -1  -4   94.62    5.45
  -1  -1  -4   97.34    5.50
  -1  -1  -4   87.72    5.40
  -1   1  -4   79.85    5.55
  -1   1  -4   87.49    5.41
   1   1   4   94.06    5.42
   1   1   4   87.81    5.39
   1   1   4   92.96    5.40
  -1   1  -4   97.30    5.60
   1   1   4   91.52    5.58
  -1   1  -4   88.48    5.37
   2  -1   4   10.39    0.67
  -2  -1  -4    8.65    0.79
  -2  -1  -4   10.31    0.85
   2  -1   4   10.32    0.70
   2  -1   4    9.20    1.06
  -2  -1  -4   10.85    0.94
   2  -1   4    9.29    0.98
  -2  -1  -4   10.66    0.68
  -2  -1  -4   11.14    0.71
   2   1   4   11.39    0.71
  -2   1  -4    9.33    0.94
  -2   1  -4   10.24    0.83
  -2   1  -4   10.37    0.69
   2   1   4   12.11    0.88
  -2   1  -4   12.18    1.02
   2   1   4   11.69    0.78
  -2   1  -4   11.82    0.68
   2   1   4   10.74    0.65
   3  -1   4   93.57    5.52
  -3  -1  -4   96.00    6.01
   3  -1   4   86.02    5.80
  -3  -1  -4   91.54    5.49
   3  -1   4   86.84    5.43
  -3  -1  -4   80.04    5.63
  -3   1  -4   78.27    5.66
   3   1   4   96.80    5.70
  -3   1  -4   88.47    5.76
   3   1   4   91.79    5.70
  -3   1  -4  103.23    6.09
  -3   1  -4   89.89    5.48
   3   1   4   95.17    5.51
  -3   1  -4   90.15    5.42
   4  -1   4  159.39    8.93
  -4  -1  -4  149.94    8.87
  -4  -1  -4  143.63    9.06
   4  -1   4  158.73    9.28
  -4  -1  -4  141.61    9.59
   4   1   4  146.79    9.14
  -4   1  -4  131.59    9.10
  -4   1  -4  144.88    8.85
  -4   1  -4  147.64    9.16
   4   1   4  149.00    8.90
   4   1   4  141.51    9.10
  -5  -1  -4    3.01    1.03
   5  -1   4    1.97    0.38
  -5  -1  -4    3.05    0.40
  -5  -1  -4    1.94    0.49
  -5  -1  -4    1.79    0.55
   5  -1   4    0.89    0.77
   5  -1   4    2.28    0.57
  -5   1  -4    1.70    0.59
   5   1   4    2.65    0.46
  -5   1  -4    2.88    0.38
   5   1   4    1.64    0.50
   5   1   4    2.78    0.78
  -5   1  -4    1.80    0.51
   5   1   4    0.57    0.70
  -6  -1  -4   48.46    3.80
   6  -1   4   50.25    3.94
  -6  -1  -4   55.92    3.77
  -6   1  -4   56.61    3.47
   6   1   4   57.24    3.92
  -6   1  -4   59.37    3.86
  -6   1  -4   57.16    4.02
  -7  -1  -4   23.52    1.74
  -7  -1  -4   22.20    2.09
  -7   1  -4   27.10    1.74
  -7   1  -4   25.41    2.18
   8  -1   4    1.10    1.74
  -8  -1  -4    1.51    0.45
  -8  -1  -4    1.13    0.88
   8   1   4    0.49    1.90
  -8   1  -4    1.62    0.45
  -8   1  -4    1.25    0.91
   9  -2  -4   45.25    4.15
   9   2  -4   58.49    5.85
  -9   2   4   46.98    3.23
  -9   2   4   48.16    3.37
  -9   2   4   50.68    3.74
   9   2  -4   55.66    4.10
  -8  -2   4   44.32    3.00
   8  -2  -4   39.61    3.58
   8  -2  -4   41.55    5.10
  -8  -2   4   50.41    3.39
  -8   2   4   43.09    3.01
   8   2  -4   49.05    3.64
  -8   2   4   45.29    2.91
  -8   2   4   47.06    3.34
   8   2  -4   45.36    4.90
  -7  -2   4   11.64    0.88
  -7  -2   4   11.31    1.00
   7  -2  -4   11.30    2.66
   7  -2  -4    9.50    1.48
   7  -2  -4   11.87    1.28
   7   2  -4    9.92    2.32
  -7   2   4   10.89    1.35
   7   2  -4    9.45    1.09
  -7   2   4    9.16    0.97
   7   2  -4   10.33    1.48
  -6  -2   4  135.59    8.84
   6  -2  -4  117.96   10.14
  -6  -2   4  139.39    8.68
  -6  -2   4  140.72    8.88
   6  -2  -4  148.96    8.89
  -6  -2   4  150.34    8.71
   6  -2  -4  149.26    8.93
  -6   2   4  149.39    8.77
   6   2  -4  151.90    9.94
  -6   2   4  149.41    8.84
  -6   2   4  143.52    8.90
   6   2  -4  141.29    9.09
  -5  -2   4  103.85    6.63
   5  -2  -4  112.58    6.76
  -5  -2   4  112.29    6.77
  -5  -2   4  105.77    6.70
  -5  -2   4   96.31    6.59
   5  -2  -4  110.25    6.65
   5  -2  -4  107.56    6.84
   5   2  -4  103.53    6.61
  -5   2   4  108.37    6.66
   5   2  -4  112.88    7.47
  -5   2   4  115.41    6.79
   5   2  -4  110.60    6.74
  -5   2   4  112.39    6.77
  -5   2   4  120.66    6.91
   5   2  -4  102.64    6.91
  -4  -2   4  130.37    7.38
   4  -2  -4  127.49    7.45
   4  -2  -4  100.86    7.63
  -4  -2   4  124.05    7.57
  -4  -2   4  112.56    7.46
   4  -2  -4  122.47    7.65
   4  -2  -4  129.10    7.54
  -4  -2   4  118.13    7.52
  -4   2   4  138.63    7.63
  -4   2   4  117.82    7.53
   4   2  -4  125.75    8.01
  -4   2   4  130.03    7.47
  -4   2   4  130.91    7.62
   4   2  -4  110.66    7.51
   4   2  -4  121.53    7.66
   4   2  -4  128.81    7.38
  -3  -2   4  568.60   35.81
  -3  -2   4  531.21   35.53
  -3  -2   4  591.28   35.43
  -3  -2   4  586.25   35.46
   3  -2  -4  644.74   35.47
   3  -2  -4  527.83   35.96
   3  -2  -4  613.96   35.59
   3  -2  -4  594.59   35.38
   3  -2  -4  542.77   35.53
  -3   2   4  581.58   35.39
  -3   2   4  603.30   35.54
   3   2  -4  607.77   35.53
   3   2  -4  588.79   35.45
  -3   2   4  658.69   35.49
   3   2  -4  616.98   35.44
  -3   2   4  629.38   35.45
   2  -2  -4    1.85    0.27
  -2  -2   4    1.50    0.37
   2  -2  -4    1.97    0.18
  -2  -2   4    1.44    0.27
   2  -2  -4    1.75    0.45
   2  -2  -4    1.91    0.28
  -2  -2   4    1.70    0.24
  -2  -2   4    1.92    0.26
   2  -2  -4    1.62    0.34
  -2   2   4    1.72    0.19
   2   2  -4    2.05    0.26
  -2   2   4    1.91    0.22
   2   2  -4    1.37    0.21
  -2   2   4    1.83    0.26
  -2   2   4    2.46    0.37
   2   2  -4    2.40    0.45
   1  -2  -4  133.89    9.10
  -1  -2   4  149.18    9.01
   1  -2  -4  160.29    9.13
  -1  -2   4  149.11    9.01
   1  -2  -4  167.04    9.14
  -1  -2   4  155.55    8.99
   1  -2  -4  152.69    8.99
  -1  -2   4  144.64    8.99
  -1  -2   4  140.66    8.99
  -1   2   4  154.24    9.15
  -1   2   4  151.62    9.04
   1   2  -4  145.16    8.99
  -1   2   4  158.50    8.98
  -1   2   4  147.94    8.97
   1   2  -4  149.38    9.01
  -1   2   4  147.64    8.97
   1   2  -4  140.96    8.96
   0  -2   4   38.79    2.48
   0  -2  -4   45.90    2.66
   0  -2   4   42.67    2.53
   0  -2   4   39.85    2.67
   0  -2   4   43.44    2.55
   0  -2   4   40.40    2.50
   0  -2  -4   36.08    2.69
   0  -2   4   38.94    2.63
   0  -2   4   39.60    2.54
   0   2   4   40.17    2.62
   0   2   4   40.20    2.52
   0   2   4   46.25    2.60
   0   2   4   43.27    2.54
   0   2  -4   41.22    2.54
   0   2  -4   42.56    2.55
   0   2   4   44.13    2.59
   1  -2   4  120.69    7.40
   1  -2   4  109.53    7.60
   1  -2   4  126.31    7.37
   1  -2   4  125.25    7.49
  -1  -2  -4  132.61    7.44
  -1  -2  -4  122.62    7.40
   1  -2   4  129.33    7.71
  -1  -2  -4  120.16    7.53
   1   2   4  105.18    7.51
  -1   2  -4  132.19    7.62
   1   2   4  135.60    7.51
   1   2   4  124.58    7.56
  -1   2  -4  105.32    7.59
   1   2   4  124.95    7.41
  -1   2  -4  130.05    7.45
   1   2   4  127.99    7.41
  -1   2  -4  129.72    7.42
  -1   2  -4  117.66    7.36
   1   2   4  123.52    7.40
   2  -2   4   16.82    1.09
  -2  -2  -4   16.09    1.19
   2  -2   4   14.47    1.22
  -2  -2  -4   16.07    1.08
  -2  -2  -4   16.25    1.17
  -2  -2  -4   18.09    1.28
   2  -2   4   13.94    1.46
   2  -2   4   15.00    1.09
   2  -2   4   16.29    1.41
  -2   2  -4   18.28    1.08
   2   2   4   18.18    1.05
   2   2   4   19.28    1.10
  -2   2  -4   15.87    1.39
   2   2   4   17.37    1.21
   2   2   4   18.64    1.12
  -2   2  -4   18.83    1.42
   3  -2   4  800.80   45.23
  -3  -2  -4  745.43   45.00
  -3  -2  -4  629.57   44.99
   3  -2   4  777.54   44.89
  -3  -2  -4  780.44   45.35
  -3   2  -4  751.91   45.18
  -3   2  -4  806.68   45.45
   3   2   4  742.52   45.03
   3   2   4  750.73   44.89
  -3   2  -4  736.33   45.03
  -4  -2  -4   29.32    2.65
  -4  -2  -4   29.94    1.98
  -4  -2  -4   30.25    2.15
   4  -2   4   34.01    2.02
   4  -2   4   30.56    2.42
  -4   2  -4   33.60    2.23
   4   2   4   31.91    2.16
   4   2   4   30.22    2.21
  -4   2  -4   30.99    2.35
  -4   2  -4   28.81    1.96
  -4   2  -4   29.65    1.90
  -4   2  -4   31.24    2.75
   4   2   4   31.17    2.02
  -5  -2  -4  400.02   23.87
  -5  -2  -4  356.02   24.51
  -5  -2  -4  416.26   23.69
   5  -2   4  364.81   23.65
   5   2   4  402.87   23.96
  -5   2  -4  412.06   24.04
  -5   2  -4  391.60   23.97
  -5   2  -4  403.26   23.56
  -5   2  -4  406.50   23.66
  -6  -2  -4   51.35    3.64
  -6  -2  -4   49.15    3.39
   6  -2   4   47.01    3.86
  -6   2  -4   55.71    3.39
  -6   2  -4   56.58    3.81
  -6   2  -4   56.51    3.24
   6   2   4   53.43    3.76
  -6   2  -4   58.10    3.82
  -7  -2  -4   30.57    2.07
  -7  -2  -4   29.55    2.36
  -7   2  -4   30.49    2.51
  -7   2  -4   33.24    2.04
   7   2   4   22.88    3.68
  -8  -2  -4   26.40    2.23
  -8  -2  -4   23.69    1.80
  -8   2  -4   25.04    1.74
  -8   2  -4   23.80    2.37
   8   2   4   20.17    4.03
   8  -3  -4   14.35    1.66
   8  -3  -4    9.58    1.92
  -8  -3   4   12.42    1.02
  -8  -3   4   12.12    1.16
   8   3  -4   13.29    3.01
   8   3  -4   13.61    1.80
  -8   3   4   13.10    1.20
  -8   3   4   10.24    1.48
  -7  -3   4   73.34    4.43
   7  -3  -4   59.36    6.08
  -7  -3   4   76.04    4.34
   7  -3  -4   58.85    4.81
  -7   3   4   73.11    4.42
   7   3  -4   76.21    4.83
   7   3  -4   74.74    5.83
   7   3  -4   59.78    4.43
   6  -3  -4    2.66    1.56
  -6  -3   4    3.93    0.56
   6  -3  -4    2.55    0.73
  -6  -3   4    4.30    0.51
   6  -3  -4    3.62    0.72
  -6  -3   4    2.82    0.62
  -6   3   4    2.33    0.44
   6   3  -4    3.57    0.59
   6   3  -4    4.92    0.82
   6   3  -4    3.35    1.08
  -6   3   4    3.93    0.74
  -5  -3   4  215.18   13.46
  -5  -3   4  224.36   13.52
   5  -3  -4  222.86   13.44
  -5  -3   4  226.90   13.57
   5  -3  -4  219.04   13.65
   5  -3  -4  234.14   13.61
   5   3  -4  204.44   13.39
  -5   3   4  245.18   13.62
  -5   3   4  225.94   13.46
   5   3  -4  227.14   13.70
  -5   3   4  211.54   13.57
  -4  -3   4    3.15    0.82
  -4  -3   4    3.62    0.47
   4  -3  -4    4.05    0.38
  -4  -3   4    3.62    0.61
  -4  -3   4    3.86    0.45
   4  -3  -4    2.70    1.05
   4  -3  -4    3.95    0.56
   4  -3  -4    4.63    0.69
   4  -3  -4    4.78    0.67
  -4   3   4    4.19    0.50
   4   3  -4    3.40    0.43
  -4   3   4    3.75    0.55
   4   3  -4    5.01    0.54
  -4   3   4    5.04    0.64
  -4   3   4    2.52    0.92
  -4   3   4    3.91    0.39
   4   3  -4    4.88    0.58
  -3  -3   4   97.94    5.94
  -3  -3   4   86.62    6.01
   3  -3  -4   96.47    5.87
  -3  -3   4   93.14    6.30
  -3  -3   4   84.53    5.93
   3  -3  -4   94.53    6.04
   3  -3  -4   93.19    6.06
   3  -3  -4  100.53    5.99
   3   3  -4  105.42    5.95
   3   3  -4   91.23    5.96
  -3   3   4  112.05    6.08
  -3   3   4   93.89    5.88
  -3   3   4   97.92    5.97
   3   3  -4  107.50    6.01
  -3   3   4  105.18    5.97
  -2  -3   4   27.40    1.91
  -2  -3   4   23.94    1.65
  -2  -3   4   26.12    1.70
  -2  -3   4   26.35    1.67
   2  -3  -4   26.51    1.80
   2  -3  -4   27.59    1.72
  -2  -3   4   25.01    1.58
   2  -3  -4   21.33    1.97
   2  -3  -4   28.57    1.71
  -2   3   4   29.46    1.79
  -2   3   4   24.62    1.60
   2   3  -4   21.57    1.61
   2   3  -4   28.39    1.68
  -2   3   4   24.10    1.68
  -2   3   4   27.93    1.66
   2   3  -4   25.39    1.66
  -2   3   4   25.72    1.62
   1  -3  -4   68.88    4.32
   1  -3  -4   70.23    4.20
   1  -3  -4   69.11    4.28
  -1  -3   4   68.86    4.17
  -1  -3   4   75.97    4.23
   1  -3  -4   65.58    4.33
  -1  -3   4   71.30    4.21
   1  -3  -4   67.55    4.17
  -1  -3   4   68.42    4.21
  -1  -3   4   67.89    4.17
   1   3  -4   72.32    4.21
   1   3  -4   67.87    4.19
  -1   3   4   67.23    4.25
  -1   3   4   69.00    4.19
   1   3  -4   57.33    4.24
  -1   3   4   68.42    4.16
  -1   3   4   74.41    4.28
   1   3  -4   69.83    4.16
   0  -3   4   34.93    2.08
   0  -3  -4   31.24    2.06
   0  -3  -4   33.12    2.08
   0  -3   4   34.69    2.26
   0  -3   4   29.89    2.07
   0  -3  -4   33.72    2.05
   0  -3   4   32.37    2.10
   0  -3  -4   33.63    2.18
   0  -3  -4   37.38    2.21
   0  -3   4   27.48    2.12
   0   3   4   34.38    2.16
   0   3   4   34.64    2.11
   0   3  -4   35.42    2.09
   0   3   4   35.76    2.05
   1  -3   4  360.94   19.49
  -1  -3  -4  305.96   19.30
   1  -3   4  339.12   19.67
  -1  -3  -4  307.10   19.32
   1  -3   4  309.07   19.31
  -1  -3  -4  331.39   19.39
   1  -3   4  329.45   19.48
  -1   3  -4  335.72   19.53
   1   3   4  301.60   19.31
   1   3   4  331.89   19.39
   1   3   4  344.13   19.46
   1   3   4  315.69   19.30
  -1   3  -4  281.31   19.51
  -1   3  -4  329.79   19.33
   2  -3   4    4.51    0.27
  -2  -3  -4    4.15    0.34
   2  -3   4    5.45    0.74
  -2  -3  -4    4.62    0.45
  -2  -3  -4    4.37    0.43
   2  -3   4    4.71    0.49
   2  -3   4    3.49    0.77
   2  -3   4    3.41    0.34
  -2   3  -4    2.41    0.57
   2   3   4    3.66    0.47
   2   3   4    3.32    0.55
   2   3   4    3.83    0.31
   2   3   4    3.40    0.34
   2   3   4    3.68    0.34
  -2   3  -4    3.51    0.39
  -2   3  -4    3.98    0.35
  -2   3  -4    3.50    0.59
   3  -3   4   87.40    5.46
  -3  -3  -4   92.16    5.63
   3  -3   4   80.44    5.70
  -3  -3  -4   91.38    5.50
   3  -3   4   87.14    5.82
  -3  -3  -4   89.75    5.50
  -3  -3  -4   84.24    5.63
  -3  -3  -4   88.73    5.88
   3  -3   4   88.63    5.49
   3   3   4   96.08    5.65
   3   3   4   80.42    5.73
  -3   3  -4   88.55    5.46
   3   3   4   96.61    5.53
  -3   3  -4   99.93    6.07
  -3   3  -4   93.61    5.49
  -3   3  -4   88.16    5.83
  -3   3  -4   97.27    5.65
   3   3   4   96.07    5.58
   3   3   4   92.46    5.44
  -4  -3  -4   26.88    2.05
  -4  -3  -4   28.72    2.49
   4  -3   4   24.99    2.12
  -4  -3  -4   29.50    1.87
   4  -3   4   28.12    2.40
   4  -3   4   30.24    1.86
  -4  -3  -4   31.10    2.03
  -4  -3  -4   27.51    1.90
   4  -3   4   30.13    1.85
   4   3   4   29.82    1.77
  -4   3  -4   29.58    1.82
  -4   3  -4   27.36    2.25
  -4   3  -4   26.51    1.83
  -4   3  -4   29.87    2.07
   4   3   4   29.50    1.99
  -4   3  -4   30.61    2.67
   4   3   4   29.29    1.92
   4   3   4   27.78    2.08
  -5  -3  -4   16.81    2.18
   5  -3   4   21.64    1.37
   5  -3   4   18.55    1.35
  -5  -3  -4   20.75    1.25
  -5  -3  -4   16.57    1.60
  -5  -3  -4   20.79    1.38
  -5  -3  -4   18.72    1.56
  -5   3  -4   21.41    1.68
   5   3   4   20.60    1.57
  -5   3  -4   19.95    1.34
  -5   3  -4   19.52    1.87
  -5   3  -4   20.20    1.28
   5   3   4   15.20    2.32
   6  -3   4   27.85    2.77
  -6  -3  -4   33.16    2.30
   6  -3   4   35.58    2.29
   6  -3   4   38.44    2.32
  -6   3  -4   35.92    2.16
  -6   3  -4   34.25    2.68
   6   3   4   28.67    3.57
  -6   3  -4   32.52    2.71
  -6   3  -4   35.40    2.26
   6   3   4   40.32    2.66
  -7  -3  -4   98.29    6.11
  -7  -3  -4   97.33    5.90
  -7   3  -4   98.43    6.34
   7   3   4   83.28    7.37
  -8  -3  -4    1.71    0.50
   8  -3   4    0.52    1.74
  -8  -3  -4    2.21    0.89
  -8   3  -4    2.27    1.05
   8   3   4    3.73    2.18
  -8   3  -4    2.00    0.46
   8  -4  -4    7.83    2.53
  -8  -4   4    8.37    1.02
   8  -4  -4    9.02    1.32
   8  -4  -4    8.06    1.69
  -8  -4   4    8.41    0.89
  -8   4   4    8.93    1.06
   8   4  -4   10.21    2.39
  -8   4   4    9.23    1.48
   8   4  -4   11.23    1.65
  -7  -4   4   31.12    2.15
   7  -4  -4   29.88    2.48
  -7  -4   4   30.03    2.15
   7   4  -4   30.37    2.49
  -7   4   4   32.47    2.53
  -7   4   4   27.72    2.11
   7   4  -4   33.40    3.49
   6  -4  -4   79.14    5.30
   6  -4  -4   68.69    5.43
  -6  -4   4   81.79    5.11
  -6  -4   4   87.75    5.07
   6   4  -4   83.80    5.35
  -6   4   4   78.85    5.31
  -6   4   4   86.91    5.09
   6   4  -4   82.48    5.01
  -5  -4   4    6.19    0.65
   5  -4  -4    6.88    0.98
   5  -4  -4    5.40    1.72
  -5  -4   4    5.36    0.93
  -5  -4   4    7.60    0.71
  -5  -4   4    4.43    1.41
   5  -4  -4    6.56    0.91
  -5   4   4    6.83    0.88
   5   4  -4    6.39    0.69
   5   4  -4    7.90    0.51
   5   4  -4    6.74    0.84
   5   4  -4    9.15    1.28
   5   4  -4    6.01    0.60
  -5   4   4    7.17    0.62
   4  -4  -4   15.52    1.22
  -4  -4   4   14.22    1.07
   4  -4  -4   14.49    1.28
  -4  -4   4   12.98    1.07
  -4  -4   4   12.56    1.52
  -4  -4   4   13.89    1.21
   4  -4  -4   14.75    1.25
   4  -4  -4   15.60    0.99
  -4   4   4   15.87    1.24
  -4   4   4   13.88    1.00
  -4   4   4   14.24    1.18
  -4   4   4   11.32    1.88
   4   4  -4   14.55    1.15
   4   4  -4   14.60    1.16
  -4   4   4   16.10    1.15
   4   4  -4   14.97    1.07
   4   4  -4   17.89    1.53
   3  -4  -4   98.43    6.02
   3  -4  -4   91.92    6.06
   3  -4  -4   97.23    6.04
  -3  -4   4   88.73    6.01
  -3  -4   4   90.84    6.29
  -3  -4   4   92.71    5.93
  -3  -4   4   92.43    5.92
  -3   4   4  104.53    5.97
   3   4  -4  103.32    5.98
  -3   4   4  106.62    6.06
   3   4  -4   90.83    5.97
  -3   4   4   97.71    5.99
   3   4  -4  101.40    5.93
   3   4  -4  100.68    5.83
  -3   4   4  100.82    5.88
  -3   4   4   94.01    5.87
  -2  -4   4  138.37    8.68
  -2  -4   4  152.17    8.99
   2  -4  -4  136.44    8.83
  -2  -4   4  137.70    8.65
   2  -4  -4  152.21    8.77
   2  -4  -4  144.16    8.79
  -2  -4   4  144.97    8.76
  -2  -4   4  138.77    8.72
  -2   4   4  151.78    8.67
  -2   4   4  144.34    8.77
  -2   4   4  148.97    8.72
   2   4  -4  147.92    8.72
  -2   4   4  154.97    8.82
   2   4  -4  124.45    8.71
  -2   4   4  139.72    8.66
   2   4  -4  149.11    8.73
   2   4  -4  145.14    8.73
  -1  -4   4  162.38    9.87
  -1  -4   4  163.14    9.74
   1  -4  -4  154.58    9.69
   1  -4  -4  173.60    9.84
  -1  -4   4  170.19    9.75
   1  -4  -4  160.68    9.84
  -1  -4   4  164.87    9.70
   1  -4  -4  158.87    9.73
  -1  -4   4  159.17    9.73
   1  -4  -4  140.23    9.84
   1   4  -4  151.22    9.72
  -1   4   4  173.99    9.69
   1   4  -4  168.55    9.74
   1   4  -4  162.75    9.81
  -1   4   4  162.07    9.79
  -1   4   4  171.85    9.79
   1   4  -4  148.01    9.70
   0  -4   4  638.35   39.17
   0  -4  -4  703.76   39.31
   0  -4  -4  651.48   39.26
   0  -4   4  618.92   39.19
   0   4   4  665.04   39.19
   0   4  -4  612.49   39.30
   0   4   4  654.75   39.25
   0   4  -4  704.45   39.19
  -1  -4  -4    5.18    0.41
  -1  -4  -4    5.29    0.60
   1  -4   4    4.95    0.45
  -1  -4  -4    6.18    0.57
   1  -4   4    5.69    0.62
   1  -4   4    4.33    0.73
   1  -4   4    5.24    0.50
   1   4   4    6.41    0.54
  -1   4  -4    5.84    0.64
  -1   4  -4    4.82    0.71
   1   4   4    5.18    0.44
  -1   4  -4    5.70    0.48
  -1   4  -4    4.71    0.45
   1   4   4    5.84    0.42
   1   4   4    5.01    0.57
   2  -4   4  340.85   22.98
   2  -4   4  369.51   22.92
   2  -4   4  349.12   23.34
  -2  -4  -4  377.53   22.84
  -2  -4  -4  373.52   22.84
   2  -4   4  386.20   22.80
  -2  -4  -4  390.72   22.78
  -2  -4  -4  359.94   22.76
  -2   4  -4  420.04   23.15
   2   4   4  380.01   22.76
   2   4   4  403.06   22.97
   2   4   4  404.66   22.79
   2   4   4  397.04   22.89
  -2   4  -4  400.67   22.80
  -2   4  -4  399.06   22.86
   2   4   4  384.28   22.81
   2   4   4  372.38   22.81
  -2   4  -4  345.15   23.04
   3  -4   4   19.82    1.23
  -3  -4  -4   18.20    1.43
   3  -4   4   18.12    1.52
  -3  -4  -4   18.96    1.31
   3  -4   4   19.30    1.33
  -3  -4  -4   18.49    1.36
  -3  -4  -4   18.08    1.58
  -3   4  -4   22.18    1.84
  -3   4  -4   23.30    1.46
   3   4   4   21.06    1.36
   3   4   4   17.70    1.69
   3   4   4   19.92    1.46
   3   4   4   21.31    1.62
   3   4   4   21.47    1.37
  -3   4  -4   18.57    1.27
   3   4   4   22.30    1.28
  -3   4  -4   21.70    1.34
  -3   4  -4   17.99    1.70
  -4  -4  -4    6.10    0.75
  -4  -4  -4    4.99    0.58
   4  -4   4    5.17    0.82
   4  -4   4    5.79    0.58
  -4  -4  -4    5.85    0.55
   4  -4   4    5.82    0.46
   4  -4   4    3.91    1.19
  -4  -4  -4    7.38    1.17
   4   4   4    7.76    0.89
   4   4   4    6.34    0.62
  -4   4  -4    5.77    0.52
  -4   4  -4    7.07    1.06
  -4   4  -4    7.60    0.57
   4   4   4    5.74    0.91
  -4   4  -4    6.20    0.71
   4   4   4    6.61    0.47
   4   4   4    5.98    1.27
  -5  -4  -4   21.11    1.93
   5  -4   4   26.64    1.63
   5  -4   4   24.68    1.72
  -5  -4  -4   25.37    1.70
  -5  -4  -4   24.71    1.64
  -5   4  -4   20.61    2.05
  -5   4  -4   26.39    1.65
   5   4   4   24.18    2.65
  -5   4  -4   27.40    2.21
   5   4   4   26.66    2.22
  -5   4  -4   27.20    1.66
  -6  -4  -4   95.64    5.68
   6  -4   4   93.42    5.75
   6  -4   4   98.00    5.83
  -6  -4  -4   78.30    6.69
  -6  -4  -4   96.79    5.83
   6   4   4   92.85    7.06
   6   4   4   83.09    6.27
  -6   4  -4  101.00    6.31
  -6   4  -4  101.75    5.77
  -7  -4  -4    3.24    0.57
   7   4   4    3.78    1.81
   7   4   4    4.77    1.21
  -7   4  -4    3.13    1.07
  -7   4  -4    3.28    0.49
  -8  -5   4   80.07    5.20
  -8  -5   4   81.56    5.13
   8  -5  -4   90.58    5.67
  -8   5   4   75.04    5.69
   8   5  -4   87.23    5.66
  -8   5   4   76.95    5.21
  -7  -5   4    4.24    0.57
  -7  -5   4    2.96    0.56
   7  -5  -4    2.76    1.08
   7  -5  -4    3.91    2.07
   7  -5  -4    3.68    1.01
   7   5  -4    6.24    1.55
  -7   5   4    2.85    0.55
   7   5  -4    3.76    1.20
  -7   5   4    3.59    1.03
  -6  -5   4   10.22    0.98
   6  -5  -4    7.65    1.44
   6  -5  -4   11.04    1.36
  -6   5   4   10.25    0.91
   6   5  -4   11.13    1.18
   6   5  -4   12.49    1.78
  -6   5   4   11.54    1.32
  -5  -5   4    7.28    0.71
   5  -5  -4    7.40    1.01
   5  -5  -4    6.49    1.03
  -5  -5   4    6.37    0.69
  -5   5   4    6.91    1.03
   5   5  -4    7.72    0.83
  -5   5   4    5.87    0.61
   5   5  -4    6.53    0.67
   4  -5  -4  122.18    7.39
  -4  -5   4  110.22    7.35
  -4  -5   4  113.64    7.19
   4  -5  -4  110.42    7.38
  -4  -5   4   98.42    7.66
  -4  -5   4  119.34    7.22
   4   5  -4  131.35    7.12
   4   5  -4  125.09    7.30
  -4   5   4  121.32    7.14
  -4   5   4   98.30    8.05
  -4   5   4  119.70    7.14
  -4   5   4  123.71    7.28
   4   5  -4  127.96    7.29
   4   5  -4  121.24    7.28
  -4   5   4  122.26    7.35
  -3  -5   4    5.00    0.62
   3  -5  -4    3.86    0.62
   3  -5  -4    5.10    0.69
  -3  -5   4    5.65    0.48
  -3  -5   4    5.25    0.90
   3  -5  -4    5.55    0.66
  -3  -5   4    5.30    0.55
  -3   5   4    4.77    0.63
  -3   5   4    5.06    0.43
   3   5  -4    6.73    0.64
  -3   5   4    5.59    0.45
   3   5  -4    5.05    0.54
  -3   5   4    4.98    1.14
  -3   5   4    5.74    0.74
   3   5  -4    5.85    0.56
   3   5  -4    6.18    0.42
  -3   5   4    4.68    0.55
   3   5  -4    5.43    0.59
   2  -5  -4  375.96   22.10
   2  -5  -4  361.19   22.13
  -2  -5   4  368.67   22.04
   2  -5  -4  368.10   22.04
  -2  -5   4  360.02   22.00
  -2  -5   4  406.06   22.31
  -2  -5   4  353.41   22.01
  -2  -5   4  360.57   21.92
  -2  -5   4  367.98   21.95
   2   5  -4  321.51   22.00
  -2   5   4  379.17   21.93
   2   5  -4  360.93   22.00
  -2   5   4  405.84   22.09
   2   5  -4  347.25   22.00
   2   5  -4  387.53   22.00
  -2   5   4  371.40   22.01
  -2   5   4  379.24   22.07
  -2   5   4  343.00   22.36
  -2   5   4  353.62   21.92
  -1  -5   4   47.81    2.85
  -1  -5   4   46.25    2.83
  -1  -5   4   46.09    2.80
  -1  -5   4   48.23    2.84
  -1  -5   4   42.83    2.72
   1  -5  -4   44.31    2.83
   1  -5  -4   43.91    2.92
   1  -5  -4   42.80    2.76
   1  -5  -4   44.09    2.94
  -1  -5   4   45.41    2.99
   1   5  -4   44.95    2.83
   1   5  -4   47.21    2.93
  -1   5   4   48.02    2.76
  -1   5   4   48.02    2.88
  -1   5   4   45.26    2.89
  -1   5   4   40.90    2.88
   1   5  -4   37.79    2.78
   0  -5   4   74.51    4.60
   0  -5   4   73.11    4.58
   0  -5  -4   73.87    4.52
   0  -5   4   78.42    4.86
   0  -5  -4   77.36    4.72
   0  -5   4   77.15    4.61
   0  -5   4   76.64    4.58
   0  -5  -4   75.26    4.57
   0  -5  -4   74.02    4.59
   0  -5  -4   72.90    4.68
   0  -5   4   68.61    4.46
   0   5   4   77.51    4.60
   0   5   4   77.38    4.53
   0   5  -4   62.98    4.49
   0   5  -4   80.60    4.60
   0   5   4   75.26    4.66
   0   5  -4   73.01    4.73
   1  -5   4   52.12    3.09
  -1  -5  -4   46.99    3.16
   1  -5   4   50.28    3.52
   1  -5   4   49.40    3.13
  -1  -5  -4   51.88    3.26
  -1  -5  -4   50.15    3.08
   1  -5   4   51.58    3.18
  -1  -5  -4   50.96    3.03
  -1   5  -4   45.02    3.27
  -1   5  -4   50.11    3.12
  -1   5  -4   51.20    3.29
  -1   5  -4   48.23    3.08
   1   5   4   46.61    3.05
   1   5   4   48.91    3.03
   1   5   4   44.54    3.16
   2  -5   4   62.55    3.97
  -2  -5  -4   61.79    3.83
  -2  -5  -4   59.48    3.86
   2  -5   4   61.70    3.92
   2  -5   4   51.48    4.34
  -2  -5  -4   58.01    3.74
   2  -5   4   56.71    3.79
   2   5   4   59.37    3.93
  -2   5  -4   66.39    3.86
   2   5   4   63.54    3.88
  -2   5  -4   60.56    4.08
  -2   5  -4   65.50    3.81
  -2   5  -4   65.46    4.11
   2   5   4   61.58    3.75
   2   5   4   62.20    3.77
   3  -5   4   25.31    1.63
  -3  -5  -4   22.57    1.65
  -3  -5  -4   26.15    1.72
  -3  -5  -4   24.41    1.56
  -3  -5  -4   22.58    1.72
   3  -5   4   22.10    1.78
   3  -5   4   19.27    2.31
   3   5   4   24.70    1.74
   3   5   4   24.62    1.84
   3   5   4   25.14    1.62
  -3   5  -4   24.04    1.46
   3   5   4   25.09    1.54
  -3   5  -4   23.84    1.68
  -3   5  -4   25.63    1.62
  -3   5  -4   21.23    1.98
   4  -5   4  172.99   10.54
  -4  -5  -4  153.95   10.89
  -4  -5  -4  156.53   10.52
   4  -5   4  151.17   10.78
  -4  -5  -4  162.63   10.68
  -4   5  -4  188.36   10.70
   4   5   4  190.02   10.61
  -4   5  -4  188.74   10.53
   4   5   4  193.51   10.45
  -4   5  -4  170.52   10.43
   4   5   4  177.35   10.85
   4   5   4  176.85   10.80
   5  -5   4    0.16    0.93
   5  -5   4    0.44    0.35
  -5  -5  -4    1.14    0.35
   5  -5   4    0.56    0.20
   5  -5   4    0.97    0.82
  -5  -5  -4    1.74    0.84
  -5  -5  -4    0.48    0.28
   5   5   4    0.99    0.22
  -5   5  -4    1.18    0.32
   5   5   4    1.13    0.39
  -5   5  -4    1.13    0.46
  -5   5  -4    0.48    0.73
  -5   5  -4    0.52    0.26
   5   5   4    1.44    0.80
   5   5   4    1.48    0.84
   6  -5   4   33.90    2.38
  -6  -5  -4   33.26    2.48
  -6  -5  -4   33.73    2.33
  -6   5  -4   31.87    2.91
   6   5   4   36.14    3.38
   6   5   4   34.55    2.97
  -6   5  -4   36.32    2.25
   7  -5   4    3.69    2.07
  -7  -5  -4    7.30    0.88
  -7   5  -4    7.30    1.41
   7   5   4    5.49    1.50
   7   5   4    7.56    2.11
   7  -6  -4    2.66    1.21
  -7  -6   4    3.69    0.56
   7  -6  -4    4.36    1.08
   7  -6  -4    1.60    1.96
  -7  -6   4    3.57    0.59
   7   6  -4    1.75    0.64
   7   6  -4    2.03    1.27
  -7   6   4    2.64    0.54
  -7   6   4    2.46    1.02
   6  -6  -4   89.39    6.51
  -6  -6   4   91.85    6.07
   6  -6  -4   98.43    6.35
  -6  -6   4  101.45    6.10
  -6   6   4  101.64    6.38
  -6   6   4  103.82    6.06
  -5  -6   4   24.50    1.78
  -5  -6   4   25.28    1.81
   5  -6  -4   23.71    2.04
   5  -6  -4   25.11    2.15
   5   6  -4   25.24    1.72
  -5   6   4   25.97    2.08
   5   6  -4   28.40    1.94
  -5   6   4   25.78    1.86
  -4  -6   4  118.39    7.37
  -4  -6   4  117.38    7.30
   4  -6  -4  111.96    7.53
  -4   6   4  118.80    7.26
   4   6  -4  118.71    7.29
   4   6  -4  120.28    7.25
   4   6  -4  136.77    7.62
  -4   6   4  116.30    8.28
  -4   6   4  113.39    7.52
   4   6  -4  126.70    7.42
   3  -6  -4  113.05    6.85
  -3  -6   4  103.87    7.10
  -3  -6   4  106.60    6.74
  -3  -6   4  109.58    6.65
   3  -6  -4   99.00    6.86
  -3  -6   4  109.18    6.83
  -3   6   4  110.54    6.63
   3   6  -4  117.12    6.77
   3   6  -4  111.86    6.73
  -3   6   4  109.20    6.63
   3   6  -4  111.54    6.79
  -3   6   4  108.62    7.31
  -3   6   4  114.36    6.85
  -2  -6   4   15.07    0.96
  -2  -6   4   16.24    1.12
  -2  -6   4   13.14    1.09
   2  -6  -4   14.49    1.24
  -2  -6   4   15.45    1.37
  -2  -6   4   14.37    1.22
   2  -6  -4   14.55    1.12
  -2  -6   4   15.42    1.12
  -2  -6   4   13.12    1.03
  -2   6   4   15.04    0.98
   2   6  -4   13.72    1.23
   2   6  -4   15.19    1.09
  -2   6   4   15.65    1.34
  -2   6   4   15.46    0.99
  -2   6   4   14.97    1.19
   2   6  -4   14.10    1.10
  -2   6   4   13.93    1.10
  -1  -6   4   86.48    5.05
  -1  -6   4   77.53    4.92
  -1  -6   4   89.71    5.30
   1  -6  -4   84.45    5.08
   1  -6  -4   79.46    5.18
  -1  -6   4   71.29    5.07
  -1  -6   4   78.70    5.06
   1  -6  -4   77.40    5.18
  -1  -6   4   86.44    5.08
   1  -6  -4   78.62    4.98
   1   6  -4   81.62    5.06
  -1   6   4   86.76    5.15
   1   6  -4   83.98    5.18
  -1   6   4   84.88    5.04
  -1   6   4   82.55    4.98
   0  -6   4   24.47    1.56
   0  -6   4   26.68    1.75
   0  -6  -4   23.77    1.68
   0  -6  -4   25.71    1.73
   0  -6  -4   23.39    1.86
   0  -6  -4   25.28    1.85
   0  -6   4   27.52    2.06
   0  -6  -4   24.48    1.63
   0  -6   4   24.55    1.72
   0  -6   4   26.02    1.74
   0  -6   4   26.86    1.72
   0   6  -4   24.94    1.62
   0   6   4   24.61    1.80
   0   6  -4   26.41    1.74
   0   6   4   29.38    1.66
   0   6   4   26.25    1.72
   0   6  -4   29.14    1.94
   1  -6   4   13.33    0.99
  -1  -6  -4   12.74    1.22
  -1  -6  -4   11.61    1.02
   1  -6   4   14.31    1.12
  -1  -6  -4   13.33    1.13
   1  -6   4   12.04    1.44
   1  -6   4   13.20    1.02
  -1  -6  -4   13.35    0.93
   1  -6   4   15.73    1.09
  -1  -6  -4   13.01    0.98
  -1   6  -4   16.09    1.07
  -1   6  -4   13.11    1.31
   1   6   4   13.78    0.95
  -1   6  -4   14.30    1.21
   1   6   4   14.22    1.00
   1   6   4   14.67    1.14
  -1   6  -4   14.19    1.04
  -2  -6  -4   49.35    3.34
   2  -6   4   48.08    3.42
   2  -6   4   43.38    3.87
  -2  -6  -4   49.23    3.18
  -2  -6  -4   51.29    3.28
   2  -6   4   49.06    3.26
  -2   6  -4   58.76    3.34
   2   6   4   48.17    3.36
  -2   6  -4   56.16    3.29
   2   6   4   51.79    3.34
   2   6   4   54.48    3.21
  -2   6  -4   54.52    3.57
  -2   6  -4   53.99    3.58
   3  -6   4  142.42    8.99
  -3  -6  -4  139.73    8.91
   3  -6   4  134.64    9.15
  -3  -6  -4  137.24    9.02
  -3  -6  -4  151.81    9.08
   3   6   4  153.44    9.16
  -3   6  -4  158.92    9.00
  -3   6  -4  144.52    9.33
   3   6   4  154.25    9.00
   3   6   4  156.76    8.91
  -4  -6  -4    1.83    0.33
  -4  -6  -4    1.70    0.48
   4  -6   4    1.60    0.41
   4  -6   4    0.70    0.94
   4  -6   4    0.95    0.53
  -4  -6  -4    1.35    0.41
  -4  -6  -4    1.39    0.57
   4   6   4    1.60    0.27
   4   6   4    1.78    0.65
  -4   6  -4    1.49    0.41
  -4   6  -4    1.81    0.28
  -4   6  -4    1.39    0.19
  -4   6  -4    1.21    0.42
   4   6   4    2.26    0.50
  -4   6  -4    1.39    0.73
   4   6   4    0.97    0.28
  -5  -6  -4  147.59    8.49
   5  -6   4  140.92    8.56
   5  -6   4  119.58    8.88
  -5  -6  -4  138.49    8.51
   5   6   4  142.45    8.86
  -5   6  -4  147.24    8.40
  -5   6  -4  134.35    8.99
   6  -6   4   27.35    2.03
  -6  -6  -4   25.92    1.87
   6   6   4   24.18    2.49
  -6   6  -4   26.88    2.66
  -7  -6  -4   11.59    1.31
  -7   6  -4   10.43    1.91
   7   6   4   10.88    1.79
   7  -7  -4   71.21    5.61
  -7  -7   4   72.33    4.91
  -7  -7   4   79.44    4.94
   7  -7  -4   78.93    5.40
  -7   7   4   81.67    5.45
  -7   7   4   80.54    4.91
   6  -7  -4    1.61    1.84
   6  -7  -4    3.15    0.88
  -6  -7   4    3.95    0.59
  -6  -7   4    4.71    0.69
   6  -7  -4    3.38    0.91
   6   7  -4    5.56    0.85
  -6   7   4    4.43    1.08
  -6   7   4    5.31    0.66
  -5  -7   4  173.98   11.07
   5  -7  -4  171.32   11.26
   5  -7  -4  163.19   11.33
  -5  -7   4  182.13   11.00
  -5   7   4  186.10   10.97
  -5   7   4  185.03   11.32
   5   7  -4  205.51   11.21
   4  -7  -4   23.81    2.16
  -4  -7   4   26.94    1.97
   4  -7  -4   29.11    2.19
  -4  -7   4   27.32    1.83
   4   7  -4   28.27    1.99
   4   7  -4   29.44    2.00
   4   7  -4   27.87    1.84
  -4   7   4   27.44    2.19
  -4   7   4   31.51    2.92
  -4   7   4   27.08    1.82
  -3  -7   4   44.45    3.01
  -3  -7   4   48.33    3.23
  -3  -7   4   47.51    2.93
   3  -7  -4   45.30    3.16
  -3  -7   4   44.90    3.46
   3  -7  -4   45.68    3.24
  -3  -7   4   45.53    3.08
  -3  -7   4   45.37    3.09
  -3   7   4   47.86    3.20
   3   7  -4   48.51    3.12
   3   7  -4   49.55    3.09
   3   7  -4   49.58    3.15
  -3   7   4   50.96    3.51
  -3   7   4   47.29    2.93
  -2  -7   4   42.60    2.72
  -2  -7   4   37.31    2.75
  -2  -7   4   44.81    3.08
  -2  -7   4   43.27    2.94
   2  -7  -4   44.69    2.87
  -2  -7   4   39.43    2.59
  -2  -7   4   48.98    3.24
  -2   7   4   43.55    2.67
   2   7  -4   40.28    2.75
   2   7  -4   35.85    2.85
  -2   7   4   40.45    2.62
  -2   7   4   46.67    2.89
   1  -7  -4   65.72    4.52
  -1  -7   4   73.07    4.67
  -1  -7   4   68.14    4.40
  -1  -7   4   67.98    4.39
  -1  -7   4   73.56    4.38
   1  -7  -4   64.32    4.28
   1  -7  -4   66.22    4.36
   1  -7  -4   68.27    4.40
  -1  -7   4   66.40    4.22
   1   7  -4   78.01    4.60
  -1   7   4   72.23    4.29
  -1   7   4   78.43    4.32
   1   7  -4   70.32    4.34
  -1   7   4   68.15    4.46
   0  -7   4    0.79    0.12
   0  -7  -4    1.68    0.24
   0  -7  -4    0.93    0.20
   0  -7  -4    1.59    0.45
   0  -7   4    0.89    0.31
   0  -7   4    0.60    0.32
   0  -7   4    1.10    0.29
   0  -7   4    0.60    0.30
   0  -7   4    1.27    0.51
   0  -7  -4    1.19    0.31
   0  -7   4    1.56    0.57
   0   7  -4    1.84    0.69
   0   7  -4    1.39    0.23
   0   7   4    1.00    0.41
  -1  -7  -4  204.67   12.39
   1  -7   4  197.55   12.40
   1  -7   4  204.86   13.01
   1  -7   4  217.93   12.59
  -1  -7  -4  196.82   12.50
  -1  -7  -4  199.43   12.42
  -1  -7  -4  198.39   12.30
   1   7   4  195.75   12.48
  -1   7  -4  215.88   12.46
  -1   7  -4  216.45   12.66
  -2  -7  -4   30.33    2.09
   2  -7   4   34.09    2.40
  -2  -7  -4   30.96    2.12
  -2  -7  -4   29.85    2.01
  -2  -7  -4   29.74    2.18
   2  -7   4   26.49    2.79
   2  -7   4   30.11    2.09
   2   7   4   30.39    2.20
  -2   7  -4   31.20    2.46
  -2   7  -4   34.16    2.15
  -3  -7  -4   22.23    1.51
   3  -7   4   23.88    1.68
  -3  -7  -4   21.14    1.71
   3  -7   4   20.71    1.85
  -3  -7  -4   23.00    1.71
  -3   7  -4   22.61    2.09
  -3   7  -4   24.68    1.71
   4  -7   4   39.87    3.06
  -4  -7  -4   44.25    2.65
  -4  -7  -4   37.88    2.77
   4   7   4   43.73    3.00
  -4   7  -4   38.03    3.21
  -5  -7  -4   36.89    2.46
  -5  -7  -4   35.30    2.56
   5  -7   4   39.21    2.64
   5   7   4   41.87    2.95
  -5   7  -4   31.83    3.15
  -6  -7  -4   21.15    1.62
   6  -7   4   22.52    1.92
   6   7   4   21.34    2.34
  -6   7  -4   19.91    2.52
   6  -8  -4    9.85    1.47
  -6  -8   4    9.16    0.97
   6  -8  -4    7.50    2.66
  -6  -8   4   10.24    1.18
   6  -8  -4    6.50    1.30
  -6   8   4    7.57    1.39
   6   8  -4    9.71    1.32
  -6   8   4   10.34    0.93
   5  -8  -4    0.60    0.69
   5  -8  -4    1.28    0.76
  -5  -8   4    1.20    0.37
  -5  -8   4    2.17    0.59
   5  -8  -4    0.53    1.79
  -5   8   4    3.46    1.00
  -5   8   4    1.63    0.35
   5   8  -4    2.42    1.10
   5   8  -4    2.13    0.58
  -4  -8   4    4.90    0.83
  -4  -8   4    4.25    0.79
   4  -8  -4    3.86    0.88
  -4  -8   4    5.60    0.77
   4  -8  -4    3.09    1.63
   4  -8  -4    4.04    0.76
   4   8  -4    5.20    0.85
  -4   8   4    4.60    0.98
   4   8  -4    4.00    0.73
  -4   8   4    4.91    0.54
  -3  -8   4   63.04    4.34
  -3  -8   4   69.03    4.53
  -3  -8   4   65.75    4.30
  -3  -8   4   67.59    4.15
   3  -8  -4   63.08    4.51
  -3  -8   4   64.49    4.35
  -3   8   4   75.74    4.63
   3   8  -4   66.69    4.45
  -3   8   4   66.60    4.32
  -3   8   4   73.80    4.53
   3   8  -4   70.02    4.42
  -2  -8   4   10.35    1.34
  -2  -8   4    8.14    1.04
  -2  -8   4    9.90    0.90
  -2  -8   4    6.93    0.87
  -2  -8   4    8.62    0.89
  -2  -8   4    7.89    0.61
   2  -8  -4    6.97    1.09
   2  -8  -4    8.26    0.91
  -2   8   4    8.53    0.67
  -2   8   4    9.88    0.88
  -2   8   4    8.48    1.07
   2   8  -4    8.10    1.22
   2   8  -4   10.28    0.96
   1  -8  -4  101.71    6.86
  -1  -8   4  115.43    7.36
   1  -8  -4  114.90    6.98
  -1  -8   4  111.41    6.99
   1  -8  -4  101.44    7.13
  -1  -8   4  108.03    7.01
   1  -8  -4  113.94    7.03
  -1  -8   4  117.32    7.04
  -1  -8   4  114.64    6.80
   1   8  -4  118.34    6.95
   1   8  -4  129.01    7.24
  -1   8   4  113.50    7.10
   0  -8  -4   60.86    4.08
   0  -8   4   59.56    3.92
   0  -8   4   59.95    3.70
   0  -8  -4   57.55    3.78
   0  -8   4   63.79    3.97
   0  -8   4   61.03    4.42
   0  -8  -4   62.91    3.94
   0  -8  -4   60.52    3.89
   0   8  -4   65.50    4.19
   0   8   4   63.54    4.02
   1  -8   4   10.58    1.71
  -1  -8  -4   13.14    1.11
  -1  -8  -4   11.76    1.24
  -1  -8  -4   13.32    1.02
  -1  -8  -4   11.42    0.89
   1  -8   4   13.13    1.15
   1  -8   4   12.42    1.07
   1   8   4   13.03    1.21
  -1   8  -4   12.43    1.48
  -2  -8  -4   52.14    3.93
  -2  -8  -4   58.83    3.58
  -2  -8  -4   58.23    3.86
   2  -8   4   56.55    3.72
   2  -8   4   48.07    4.59
   2  -8   4   58.27    3.84
   2   8   4   57.77    3.84
  -2   8  -4   62.71    3.79
  -2   8  -4   66.11    4.14
  -3  -8  -4   15.52    1.15
  -3  -8  -4   17.06    1.49
   3  -8   4   16.24    1.61
   3  -8   4   15.57    1.39
  -3   8  -4   16.86    1.92
   3   8   4   16.31    1.53
  -4  -8  -4    3.36    0.73
   4  -8   4    3.12    1.44
   4  -8   4    4.62    0.77
  -4  -8  -4    4.96    0.59
   4   8   4    6.61    1.01
  -4   8  -4    5.05    1.23
   5  -8   4   35.54    2.75
  -5  -8  -4   37.23    2.51
  -5  -8  -4   36.42    2.70
   5   8   4   41.08    3.03
  -5   8  -4   39.37    3.38
   5  -9  -4    7.15    1.32
   5  -9  -4    4.36    1.18
  -5  -9   4    8.64    1.28
   5  -9  -4    4.86    2.36
  -5  -9   4    6.76    0.79
  -5  -9   4    8.29    1.19
  -5   9   4    7.64    0.78
   5   9  -4    9.09    1.19
  -5   9   4    5.21    1.19
  -4  -9   4   59.06    4.12
  -4  -9   4   62.07    3.66
   4  -9  -4   56.71    4.10
  -4  -9   4   58.42    3.93
   4  -9  -4   51.46    4.14
  -4   9   4   58.23    4.20
  -4   9   4   61.10    3.67
   3  -9  -4    6.10    1.09
  -3  -9   4    6.32    1.07
  -3  -9   4    6.01    0.55
   3  -9  -4    3.28    1.61
   3  -9  -4    5.91    1.02
  -3  -9   4    5.90    0.83
  -3   9   4    8.50    1.24
  -3   9   4    6.72    0.60
   3   9  -4    8.04    1.18
  -2  -9   4  144.60    8.82
  -2  -9   4  141.45    9.10
   2  -9  -4  136.64    8.84
  -2  -9   4  140.22    8.81
  -2  -9   4  140.70    8.55
   2  -9  -4  129.80    8.93
  -2   9   4  145.37    8.92
   2   9  -4  156.90    9.02
  -2   9   4  144.60    8.60
  -1  -9   4   66.24    4.64
  -1  -9   4   64.51    4.21
   1  -9  -4   56.81    4.33
   1  -9  -4   64.35    4.21
  -1  -9   4   65.88    3.93
  -1  -9   4   60.61    4.18
   1   9  -4   72.62    4.47
  -1   9   4   65.88    4.31
  -1   9   4   65.95    3.99
   0  -9  -4   16.77    1.71
   0  -9  -4   19.09    1.52
   0  -9   4   19.80    2.15
   0  -9   4   20.94    1.54
   0  -9  -4   18.33    1.30
   0  -9   4   16.37    1.51
   0   9  -4   18.79    1.19
   0   9   4   21.65    1.66
   0   9  -4   21.84    2.00
   1  -9   4   63.68    5.30
   1  -9   4   73.48    4.65
  -1  -9  -4   71.48    4.58
  -1  -9  -4   69.39    4.38
  -1  -9  -4   66.37    4.70
   1  -9   4   72.04    4.58
  -1   9  -4   76.50    4.94
   1   9   4   75.93    4.68
  -2  -9  -4   29.71    2.05
  -2  -9  -4   25.22    1.77
   2  -9   4   26.83    2.01
   2  -9   4   22.64    2.95
  -2  -9  -4   26.65    2.17
  -2   9  -4   31.52    2.56
   2   9   4   26.34    2.16
  -3  -9  -4   14.52    1.10
  -3  -9  -4   15.77    1.45
   3  -9   4   13.75    1.44
   3  -9   4   11.23    2.38
  -3  -9  -4   12.84    1.52
  -3   9  -4   20.83    2.12
   3   9   4   16.03    1.63
  -4  -9  -4   70.14    4.32
   4  -9   4   69.98    4.59
  -4  -9  -4   57.87    4.54
  -4   9  -4   73.48    5.14
   4   9   4   74.12    4.73
  -3 -10   4   12.35    1.83
   3 -10  -4   11.69    1.78
  -3 -10   4   12.49    1.40
  -3 -10   4   12.43    0.91
   3 -10  -4   11.29    1.52
  -3  10   4   12.36    0.96
  -3  10   4   11.81    1.58
  -2 -10   4    2.62    1.15
   2 -10  -4    2.73    0.85
  -2 -10   4    3.24    0.76
   2 -10  -4    3.29    0.74
  -2  10   4    3.10    0.94
  -2  10   4    2.77    0.39
  -1 -10   4   12.41    1.90
   1 -10  -4    9.83    1.56
   1 -10  -4   11.75    1.30
  -1 -10   4   11.38    1.29
  -1  10   4   14.74    1.54
   1  10  -4   15.33    1.94
  -1  10   4   12.90    0.93
   0 -10  -4   31.13    2.27
   0 -10   4   27.02    2.99
   0 -10  -4   30.48    2.02
   0 -10   4   30.32    2.28
   0 -10  -4   29.05    2.50
   0  10  -4   35.33    2.79
   0  10   4   32.17    2.41
  -1 -10  -4    0.37    0.27
   1 -10   4    0.63    0.55
  -1 -10  -4    0.28    0.70
  -1 -10  -4   -0.36    0.46
   1 -10   4    1.50    1.20
  -1  10  -4    0.48    1.01
   1  10   4    0.38    0.70
  -2 -10  -4   48.35    3.25
   2 -10   4   44.54    3.25
  -2 -10  -4   43.15    3.40
  -2 -10  -4   44.41    2.96
  -2  10  -4   50.17    3.80
   2  10   4   50.38    3.38
   3 -10   4    8.62    2.19
   3 -10   4   13.82    1.54
  -3 -10  -4   13.01    1.46
  -3 -10  -4   11.26    1.66
  -3 -10  -4   12.48    1.01
  -3  10  -4   12.83    1.87
   3  10   4   13.81    1.71
  -9   0   5   -0.19    0.37
   9   0  -5   -0.37    0.88
   9   0  -5   -0.44    1.96
  -9   0   5   -0.29    0.43
   8   0  -5   -0.18    1.40
  -8   0   5   -0.41    0.50
  -8   0   5    0.38    0.29
   8   0  -5    0.42    0.77
  -8   0   5    0.33    0.42
  -7   0   5   -0.14    0.26
  -7   0   5   -0.01    0.29
  -7   0   5   -0.73    0.43
   7   0  -5    0.28    0.54
   7   0  -5   -0.27    0.51
   7   0  -5   -0.55    1.11
  -6   0   5    0.06    0.22
   6   0  -5    0.38    0.34
  -6   0   5   -0.06    0.25
  -6   0   5    0.47    0.43
   6   0  -5   -0.02    0.92
  -6   0   5    0.65    0.38
   6   0  -5    0.02    0.43
  -5   0   5    0.11    0.18
   5   0  -5    0.10    0.35
  -5   0   5    0.28    0.20
   5   0  -5   -0.04    0.20
  -5   0   5    0.05    0.37
   5   0  -5    0.37    0.61
  -5   0   5    0.81    0.64
  -5   0   5    0.90    0.37
   5   0  -5    0.30    0.23
  -5   0   5   -0.25    0.29
  -4   0   5    0.58    0.20
   4   0  -5    0.49    0.15
  -4   0   5    0.35    0.17
  -4   0   5    0.07    0.29
  -4   0   5    0.14    0.48
   4   0  -5    0.29    0.29
   4   0  -5    0.58    0.20
   4   0  -5    0.67    0.47
  -4   0   5    0.58    0.23
  -4   0   5    0.55    0.31
  -3   0   5    0.23    0.33
   3   0  -5    0.16    0.10
   3   0  -5    0.11    0.22
  -3   0   5    0.01    0.18
  -3   0   5    0.26    0.15
   3   0  -5    0.35    0.12
  -3   0   5    0.40    0.13
  -3   0   5    0.15    0.11
   3   0  -5    0.23    0.28
  -3   0   5    0.45    0.27
   2   0  -5    0.18    0.11
  -2   0   5   -0.02    0.20
   2   0  -5    0.01    0.22
  -2   0   5    0.32    0.09
  -2   0   5    0.19    0.09
   2   0  -5    0.19    0.21
  -2   0   5    0.08    0.19
  -2   0   5   -0.01    0.11
   2   0  -5    0.24    0.07
  -2   0   5    0.02    0.10
   2   0  -5    0.07    0.16
   1   0  -5    0.08    0.16
  -1   0   5    0.06    0.05
  -1   0   5    0.09    0.11
  -1   0   5    0.10    0.05
  -1   0   5    0.18    0.11
   1   0  -5    0.14    0.17
  -1   0   5    0.18    0.15
  -1   0   5    0.15    0.09
  -1   0   5   -0.07    0.16
   1   0  -5    0.11    0.09
   0   0  -5    0.00    0.05
   0   0   5   -0.11    0.13
   0   0   5    0.15    0.05
   0   0  -5    0.28    0.12
   0   0   5    0.03    0.12
   0   0   5    0.07    0.11
   0   0   5    0.20    0.10
   1   0   5    0.16    0.16
   1   0   5    0.15    0.06
  -1   0  -5    0.40    0.18
   1   0   5    0.21    0.06
  -1   0  -5    0.09    0.06
   1   0   5    0.15    0.18
   1   0   5    0.23    0.12
  -1   0  -5    0.18    0.13
   1   0   5    0.08    0.08
   2   0   5    0.65    0.07
   2   0   5    0.40    0.10
  -2   0  -5    0.67    0.27
  -2   0  -5    0.38    0.10
   2   0   5    0.52    0.11
   2   0   5    0.65    0.34
   2   0   5    0.70    0.18
   2   0   5    0.51    0.28
  -2   0  -5    0.65    0.27
  -3   0  -5    0.05    0.22
   3   0   5    0.76    0.37
  -3   0  -5    0.37    0.12
  -3   0  -5    0.34    0.38
   3   0   5    0.10    0.37
  -3   0  -5    0.30    0.31
   3   0   5    0.24    0.13
   3   0   5    0.01    0.21
   4   0   5    1.19    0.38
  -4   0  -5    0.88    0.20
   4   0   5    0.78    0.54
   4   0   5    0.42    0.57
  -4   0  -5    0.35    0.59
  -4   0  -5    0.42    0.41
  -4   0  -5    0.30    0.31
   4   0   5    0.78    0.21
   5   0   5    0.07    0.39
  -5   0  -5    0.26    0.19
  -5   0  -5    0.08    0.43
  -5   0  -5    0.88    1.14
  -5   0  -5    0.00    0.43
   5   0   5   -0.17    0.65
   5   0   5    0.49    0.29
  -6   0  -5    1.27    0.58
  -6   0  -5    0.09    0.52
   6   0   5    0.64    0.54
   6   0   5    0.29    1.00
  -6   0  -5    0.01    0.25
  -7   0  -5    0.34    0.68
   7   0   5   -0.40    1.31
  -7   0  -5   -0.66    0.28
  -8   0  -5    1.78    0.89
  -8   0  -5    0.16    0.38
   8   0   5   -0.13    1.75
   9  -1  -5   18.11    2.52
  -9  -1   5   18.47    1.42
  -9  -1   5   17.26    1.56
   9  -1  -5   17.76    4.40
   9   1  -5   18.32    3.92
  -9   1   5   19.32    1.59
  -9   1   5   17.88    1.43
   9   1  -5   22.72    2.38
  -8  -1   5    2.94    0.55
   8  -1  -5    1.32    1.85
   8  -1  -5    2.23    1.00
  -8  -1   5    1.80    0.51
  -8  -1   5    1.46    0.38
   8   1  -5    2.59    0.93
  -8   1   5    1.92    0.40
   8   1  -5    1.65    1.54
  -8   1   5    1.87    0.74
  -8   1   5    2.03    0.50
   7  -1  -5   59.30    5.78
  -7  -1   5   65.42    4.24
  -7  -1   5   69.60    4.15
   7  -1  -5   61.61    4.65
  -7  -1   5   71.30    4.19
   7  -1  -5   66.54    4.34
   7   1  -5   65.14    4.21
  -7   1   5   63.57    4.24
  -7   1   5   70.95    4.37
   7   1  -5   63.08    5.66
   7   1  -5   67.47    4.68
  -7   1   5   68.00    4.16
   6  -1  -5   22.00    1.57
  -6  -1   5   20.48    1.64
  -6  -1   5   19.88    1.52
  -6  -1   5   19.84    1.44
   6  -1  -5   16.92    1.79
  -6  -1   5   22.22    1.43
   6  -1  -5   17.26    2.83
  -6   1   5   20.17    1.65
  -6   1   5   20.32    1.60
   6   1  -5   20.10    1.84
  -6   1   5   19.53    1.49
  -6   1   5   22.07    1.44
   6   1  -5   21.53    1.45
   6   1  -5   22.24    2.59
  -5  -1   5   70.30    4.85
  -5  -1   5   83.08    4.89
   5  -1  -5   79.27    4.89
  -5  -1   5   72.65    5.14
  -5  -1   5   82.96    5.04
   5  -1  -5   86.29    4.93
  -5  -1   5   73.07    4.91
   5  -1  -5   87.97    5.11
   5  -1  -5   70.76    5.83
  -5   1   5   80.36    4.90
   5   1  -5   76.43    5.66
   5   1  -5   75.31    4.91
  -5   1   5   82.87    5.14
  -5   1   5   85.15    4.96
   5   1  -5   84.90    4.83
  -5   1   5   83.22    5.03
   5   1  -5   69.02    5.14
  -4  -1   5  116.26    8.26
   4  -1  -5  118.35    8.72
   4  -1  -5  139.60    8.09
   4  -1  -5  131.76    8.26
  -4  -1   5  139.03    8.04
  -4  -1   5  139.06    8.23
  -4  -1   5  133.79    8.09
  -4  -1   5  133.63    8.11
  -4   1   5  129.13    8.09
  -4   1   5  146.78    8.24
  -4   1   5  135.25    8.07
   4   1  -5  133.90    8.63
   4   1  -5  135.30    7.99
   3  -1  -5   21.87    1.65
  -3  -1   5   23.18    1.60
   3  -1  -5   23.67    1.42
  -3  -1   5   22.53    1.46
   3  -1  -5   22.54    1.87
  -3  -1   5   22.29    1.38
   3  -1  -5   23.15    1.46
  -3  -1   5   20.23    1.46
  -3  -1   5   18.32    1.79
  -3  -1   5   19.00    1.58
  -3   1   5   23.28    1.61
  -3   1   5   22.53    1.44
   3   1  -5   23.98    1.45
   3   1  -5   23.57    1.38
  -3   1   5   25.62    1.53
  -3   1   5   22.49    1.43
   3   1  -5   19.93    1.57
   3   1  -5   22.86    1.80
  -2  -1   5   88.59    5.37
   2  -1  -5   95.06    5.70
   2  -1  -5   93.04    5.40
  -2  -1   5   93.69    5.74
  -2  -1   5   82.58    5.45
  -2  -1   5   96.72    5.58
   2  -1  -5   92.63    5.47
   2  -1  -5   79.97    5.48
  -2  -1   5   90.07    5.42
  -2  -1   5   95.09    5.39
  -2   1   5   98.81    5.42
   2   1  -5   86.88    5.48
  -2   1   5   90.68    5.43
  -2   1   5   84.05    5.55
   2   1  -5   89.58    5.41
  -2   1   5   89.87    5.41
  -2   1   5   76.88    5.71
  -1  -1   5   28.32    1.64
  -1  -1   5   26.37    1.66
   1  -1  -5   25.80    1.84
   1  -1  -5   25.18    1.75
  -1  -1   5   26.73    1.71
  -1  -1   5   26.55    1.72
   1  -1  -5   27.97    1.66
  -1   1   5   27.14    1.67
   1   1  -5   26.06    1.73
  -1   1   5   26.98    1.66
  -1   1   5   26.13    1.73
   1   1  -5   28.01    1.67
   1   1  -5   27.53    1.65
  -1   1   5   28.86    1.88
   0  -1  -5   29.77    2.17
   0  -1   5   33.47    2.19
   0  -1  -5   34.87    2.05
   0  -1  -5   30.28    2.02
   0  -1   5   32.73    2.18
   0  -1   5   36.08    2.02
   0  -1   5   36.02    2.03
   0  -1   5   32.78    2.07
   0  -1   5   29.51    2.04
   0  -1   5   34.53    2.02
   0   1  -5   34.26    2.09
   0   1  -5   35.58    2.04
   0   1  -5   35.28    2.14
   0   1   5   34.31    2.14
   0   1   5   32.54    2.17
   1  -1   5    2.45    0.43
  -1  -1  -5    2.28    0.21
  -1  -1  -5    2.46    0.30
  -1  -1  -5    2.68    0.35
   1  -1   5    2.38    0.21
   1  -1   5    2.48    0.45
   1  -1   5    2.52    0.19
  -1  -1  -5    2.50    0.31
  -1   1  -5    2.81    0.38
   1   1   5    2.54    0.21
  -1   1  -5    2.11    0.37
   1   1   5    2.87    0.36
  -1   1  -5    3.14    0.29
   1   1   5    2.50    0.19
  -1   1  -5    2.34    0.23
   1   1   5    2.61    0.41
   1   1   5    2.80    0.26
  -1   1  -5    2.45    0.19
  -2  -1  -5    6.98    0.45
  -2  -1  -5    6.35    0.63
   2  -1   5    6.62    0.41
   2  -1   5    4.79    0.59
   2  -1   5    5.24    0.81
   2  -1   5    5.96    0.44
   2  -1   5    4.77    0.74
  -2   1  -5    5.98    0.43
   2   1   5    6.77    0.46
  -2   1  -5    6.41    0.43
   2   1   5    6.75    0.63
  -2   1  -5    5.64    0.71
   2   1   5    6.93    0.49
   2   1   5    4.72    0.75
  -2   1  -5    6.30    0.71
   2   1   5    6.68    0.41
  -2   1  -5    6.06    0.58
  -3  -1  -5    3.10    0.67
   3  -1   5    3.20    0.24
   3  -1   5    2.81    0.52
   3  -1   5    3.28    0.34
   3  -1   5    2.94    0.64
  -3  -1  -5    3.26    0.32
  -3  -1  -5    3.26    0.54
  -3  -1  -5    3.37    0.50
  -3   1  -5    3.70    0.73
   3   1   5    3.73    0.44
   3   1   5    3.08    0.34
  -3   1  -5    3.37    0.24
  -3   1  -5    3.99    0.31
  -3   1  -5    2.21    0.56
   3   1   5    3.86    0.62
  -4  -1  -5    2.19    0.49
  -4  -1  -5    1.88    0.50
   4  -1   5    1.66    0.71
   4  -1   5    2.13    0.73
  -4  -1  -5    3.88    0.92
   4  -1   5    3.50    0.44
  -4  -1  -5    3.27    0.37
   4   1   5    3.63    0.70
  -4   1  -5    3.54    0.35
  -4   1  -5    3.30    0.68
  -4   1  -5    3.11    0.86
   4   1   5    3.44    0.55
  -4   1  -5    3.66    0.63
   4   1   5    3.40    0.42
   5  -1   5    3.20    0.45
  -5  -1  -5    3.50    0.69
   5  -1   5    1.74    0.90
  -5  -1  -5    3.60    0.43
   5  -1   5    2.50    0.60
  -5  -1  -5    3.21    1.09
  -5  -1  -5    2.79    0.65
  -5   1  -5    3.19    0.41
   5   1   5    1.93    0.94
  -5   1  -5    4.16    0.73
  -5   1  -5    2.52    0.66
   5   1   5    3.11    0.58
   6  -1   5   16.45    1.66
  -6  -1  -5   12.66    1.51
  -6  -1  -5   15.13    1.20
  -6  -1  -5   17.14    1.59
   6   1   5   12.42    2.36
  -6   1  -5   17.33    1.66
  -6   1  -5   17.84    1.66
  -6   1  -5   16.16    1.17
   6   1   5   17.70    1.63
  -7  -1  -5    0.42    0.35
  -7  -1  -5   -0.03    0.71
   7  -1   5   -0.03    1.29
   7   1   5    0.57    1.40
  -7   1  -5    0.70    0.35
  -7   1  -5    0.81    0.75
  -8  -1  -5   20.49    2.17
  -8  -1  -5   19.26    1.55
   8   1   5   14.80    3.83
  -8   1  -5   22.37    1.55
  -8   1  -5   21.40    2.17
   9   2  -5    1.97    2.15
  -8  -2   5    0.39    0.35
  -8  -2   5   -0.04    0.37
   8  -2  -5   -0.45    0.86
   8  -2  -5    1.07    1.79
   8   2  -5    0.27    1.38
  -8   2   5    0.21    0.31
   8   2  -5    0.88    0.86
  -8   2   5    0.77    0.42
  -8   2   5    0.71    0.81
   7  -2  -5    0.07    0.71
  -7  -2   5    0.52    0.33
  -7  -2   5    1.13    0.32
   7  -2  -5   -0.55    1.41
  -7  -2   5    0.82    0.34
  -7   2   5    0.14    0.32
   7   2  -5    0.20    0.61
  -7   2   5    1.45    0.65
   7   2  -5    0.86    1.09
   6  -2  -5    6.34    0.91
   6  -2  -5    6.07    0.92
  -6  -2   5    6.68    0.65
  -6  -2   5    7.12    0.75
   6   2  -5    7.20    1.08
  -6   2   5    8.09    0.95
   6   2  -5    6.18    0.60
  -5  -2   5   12.35    1.02
   5  -2  -5   13.67    1.08
   5  -2  -5   10.48    1.23
   5  -2  -5   12.66    1.01
   5  -2  -5   11.33    2.02
  -5  -2   5   11.45    0.83
  -5  -2   5   11.51    1.13
  -5  -2   5   13.66    0.97
   5  -2  -5   13.20    1.23
   5   2  -5   12.50    1.05
  -5   2   5   13.46    0.96
  -5   2   5   13.34    1.17
   5   2  -5   13.65    1.64
   5   2  -5   13.35    0.83
  -5   2   5   13.60    1.08
  -5   2   5   14.59    1.20
   5   2  -5   11.28    1.20
   4  -2  -5    4.39    0.66
   4  -2  -5    4.84    0.73
   4  -2  -5    5.39    0.45
  -4  -2   5    3.68    0.93
   4  -2  -5    4.24    1.12
  -4  -2   5    4.55    0.52
  -4  -2   5    4.49    0.48
   4  -2  -5    5.40    0.56
  -4  -2   5    4.12    0.67
  -4  -2   5    4.87    0.63
  -4   2   5    5.84    0.59
  -4   2   5    3.14    0.55
   4   2  -5    6.49    0.95
  -4   2   5    5.54    0.46
  -4   2   5    5.39    0.55
   4   2  -5    4.74    0.65
  -3  -2   5   14.74    1.50
   3  -2  -5   15.44    1.61
  -3  -2   5   15.72    1.18
   3  -2  -5   16.38    1.29
   3  -2  -5   17.45    1.13
   3  -2  -5   18.04    1.40
   3  -2  -5   18.13    1.22
  -3  -2   5   15.70    1.20
   3   2  -5   18.25    1.18
  -3   2   5   17.45    1.14
  -3   2   5   17.93    1.20
  -3   2   5   18.74    1.34
   3   2  -5   17.32    1.26
   3   2  -5   18.68    1.21
  -3   2   5   20.00    1.21
   3   2  -5   20.52    1.55
  -2  -2   5    0.53    0.15
   2  -2  -5    0.64    0.17
  -2  -2   5    0.59    0.19
   2  -2  -5    0.64    0.20
  -2  -2   5    0.44    0.23
  -2  -2   5    1.13    0.19
   2  -2  -5    0.78    0.29
   2  -2  -5    0.46    0.30
   2   2  -5    0.70    0.19
   2   2  -5    0.75    0.31
  -2   2   5    0.79    0.18
  -2   2   5    0.72    0.13
  -2   2   5    0.46    0.24
  -2   2   5    0.83    0.14
  -1  -2   5    0.85    0.16
  -1  -2   5    0.60    0.18
  -1  -2   5    0.82    0.18
   1  -2  -5    0.72    0.21
   1  -2  -5    1.01    0.31
  -1  -2   5    1.08    0.30
   1  -2  -5    1.18    0.15
  -1  -2   5    0.91    0.13
  -1  -2   5    1.06    0.14
  -1   2   5    1.04    0.14
  -1   2   5    0.96    0.24
   1   2  -5    0.92    0.30
  -1   2   5    0.69    0.19
   1   2  -5    0.45    0.16
   1   2  -5    0.87    0.18
   0  -2   5   53.37    3.60
   0  -2   5   60.47    3.46
   0  -2  -5   50.79    3.43
   0  -2   5   56.52    3.40
   0  -2   5   58.61    3.43
   0  -2   5   54.35    3.39
   0  -2  -5   59.40    3.59
   0  -2   5   50.88    3.57
   0  -2  -5   60.97    3.44
   0  -2   5   53.78    3.45
   0   2   5   59.46    3.56
   0   2   5   61.30    3.51
   0   2   5   60.68    3.43
   0   2   5   57.79    3.51
   0   2  -5   51.73    3.57
   0   2  -5   56.00    3.47
  -1  -2  -5   54.78    3.08
   1  -2   5   48.51    2.98
  -1  -2  -5   50.46    3.04
   1  -2   5   48.80    3.11
   1  -2   5   45.76    3.25
  -1  -2  -5   47.39    3.02
  -1  -2  -5   49.76    3.12
   1  -2   5   47.92    3.02
   1  -2   5   53.13    3.35
  -1   2  -5   41.57    3.23
  -1   2  -5   52.84    3.05
  -1   2  -5   53.83    3.26
   1   2   5   50.09    3.02
   1   2   5   48.18    3.17
   1   2   5   46.66    3.20
   1   2   5   50.93    3.14
   1   2   5   51.32    3.04
   2  -2   5   19.67    1.22
  -2  -2  -5   21.44    1.39
   2  -2   5   17.35    1.67
   2  -2   5   19.26    1.59
  -2  -2  -5   18.01    1.30
  -2  -2  -5   20.85    1.27
  -2  -2  -5   19.58    1.36
   2  -2   5   19.26    1.21
   2  -2   5   16.11    1.36
  -2  -2  -5   19.64    1.22
  -2   2  -5   19.59    1.22
   2   2   5   16.55    1.34
   2   2   5   19.51    1.23
   2   2   5   19.33    1.19
  -2   2  -5   19.41    1.18
   2   2   5   20.16    1.24
  -2   2  -5   20.02    1.33
  -2   2  -5   19.46    1.53
  -2   2  -5   16.37    1.52
   3  -2   5   52.75    3.17
  -3  -2  -5   54.24    3.52
  -3  -2  -5   49.09    3.14
  -3  -2  -5   46.39    3.29
   3  -2   5   60.23    3.61
   3   2   5   50.85    3.06
   3   2   5   50.11    3.34
   3   2   5   52.46    3.22
  -3   2  -5   46.22    3.46
  -3   2  -5   49.17    3.10
  -3   2  -5   49.67    3.10
   3   2   5   50.14    3.16
  -3   2  -5   53.63    3.65
  -4  -2  -5    1.32    0.41
   4  -2   5    1.27    0.20
   4  -2   5    1.64    0.29
   4  -2   5    1.51    0.75
   4  -2   5    0.61    0.59
  -4  -2  -5    1.45    0.23
  -4  -2  -5    1.57    0.65
  -4  -2  -5    1.22    0.38
   4  -2   5    0.82    0.38
  -4   2  -5    1.44    0.71
  -4   2  -5    1.24    0.18
   4   2   5    1.38    0.28
  -4   2  -5    1.62    0.56
  -4   2  -5    1.32    0.22
  -4   2  -5    1.22    0.36
   4   2   5    1.49    0.48
   4   2   5    1.14    0.28
   4   2   5    0.73    0.64
  -5  -2  -5    4.18    0.76
  -5  -2  -5    5.45    0.83
  -5  -2  -5    6.63    1.38
   5  -2   5    5.66    0.48
   5  -2   5    7.27    0.65
   5  -2   5    4.99    0.89
  -5  -2  -5    5.05    0.57
  -5   2  -5    6.10    0.39
   5   2   5    6.41    0.78
  -5   2  -5    6.62    1.04
  -5   2  -5    6.12    0.90
   5   2   5    3.42    1.25
  -5   2  -5    5.79    0.53
  -6  -2  -5    4.12    0.56
  -6  -2  -5    2.45    0.69
   6  -2   5    3.33    0.82
   6  -2   5    1.78    1.12
  -6  -2  -5    3.82    0.78
  -6   2  -5    3.38    0.49
   6   2   5    4.20    0.78
  -6   2  -5    4.53    0.92
  -6   2  -5    3.46    0.84
   6   2   5    1.65    1.27
   7  -2   5    1.09    1.40
  -7  -2  -5    3.01    0.51
  -7  -2  -5    1.77    0.78
   7   2   5    2.28    1.71
  -7   2  -5    2.16    0.44
  -7   2  -5    3.15    0.97
  -8  -2  -5    3.15    1.04
  -8  -2  -5    3.08    0.57
   8  -2   5    1.25    1.88
  -8   2  -5    1.98    1.02
  -8   2  -5    2.57    0.51
   8   2   5    3.46    2.09
  -8  -3   5   10.06    0.89
  -8  -3   5    8.38    0.99
   8  -3  -5    9.77    1.81
   8  -3  -5    6.92    2.47
   8  -3  -5   10.06    1.36
   8   3  -5    9.77    1.71
  -8   3   5    7.53    1.03
  -8   3   5    9.12    1.38
   8   3  -5    9.18    2.28
   7  -3  -5   39.93    4.83
  -7  -3   5   51.69    3.13
   7  -3  -5   54.59    3.43
  -7  -3   5   46.37    3.06
   7  -3  -5   38.90    3.51
  -7   3   5   44.53    3.60
   7   3  -5   42.83    4.11
   7   3  -5   56.49    4.60
  -7   3   5   46.73    3.09
   6  -3  -5    0.99    0.59
  -6  -3   5    0.93    0.33
   6  -3  -5   -0.26    1.19
   6  -3  -5    0.66    0.62
  -6  -3   5    0.55    0.29
  -6   3   5    0.83    0.48
   6   3  -5    0.72    0.86
   6   3  -5    0.47    0.46
  -6   3   5    0.37    0.26
  -5  -3   5   19.80    1.42
   5  -3  -5   21.22    1.58
   5  -3  -5   14.68    2.45
  -5  -3   5   19.92    1.46
   5  -3  -5   19.54    1.67
  -5   3   5   19.55    1.61
   5   3  -5   21.42    1.63
  -5   3   5   19.78    1.52
  -5   3   5   19.47    1.39
  -5   3   5   24.60    2.00
   5   3  -5   21.88    2.08
  -4  -3   5   52.98    3.35
  -4  -3   5   50.64    3.31
   4  -3  -5   55.33    3.53
   4  -3  -5   46.82    3.47
   4  -3  -5   53.10    3.39
   4  -3  -5   50.50    3.25
   4   3  -5   54.29    3.33
   4   3  -5   53.11    3.43
  -4   3   5   51.37    3.45
   4   3  -5   47.43    3.33
  -4   3   5   51.95    3.27
  -4   3   5   53.68    3.37
  -4   3   5   57.61    3.38
   4   3  -5   59.85    3.82
   3  -3  -5    5.11    1.02
   3  -3  -5    5.91    0.46
  -3  -3   5    5.47    0.54
  -3  -3   5    5.60    0.62
  -3  -3   5    5.38    0.55
  -3  -3   5    6.15    0.86
   3  -3  -5    7.25    0.61
   3  -3  -5    5.82    0.62
   3  -3  -5    6.51    0.76
   3   3  -5    6.55    0.58
   3   3  -5    5.81    0.53
   3   3  -5    7.73    0.90
  -3   3   5    6.12    0.47
  -3   3   5    5.81    0.48
   3   3  -5    5.94    0.54
  -3   3   5    5.55    0.57
  -3   3   5    6.38    0.53
  -3   3   5    6.46    0.71
   2  -3  -5  159.21    9.14
  -2  -3   5  132.97    9.06
   2  -3  -5  136.20    9.31
   2  -3  -5  155.51    9.10
  -2  -3   5  148.61    8.97
  -2  -3   5  149.47    9.07
  -2  -3   5  145.18    9.11
   2  -3  -5  156.73    9.24
   2   3  -5  151.63    9.06
   2   3  -5  152.21    9.04
   2   3  -5  150.70    8.98
  -2   3   5  157.22    9.05
  -2   3   5  144.46    9.01
  -2   3   5  148.67    9.10
  -2   3   5  159.10    9.03
   2   3  -5  155.35    9.08
  -1  -3   5   21.89    1.58
  -1  -3   5   23.39    1.45
  -1  -3   5   21.07    1.45
   1  -3  -5   25.85    1.55
   1  -3  -5   22.47    1.55
  -1  -3   5   23.28    1.44
   1  -3  -5   23.10    1.44
   1  -3  -5   20.79    1.41
  -1  -3   5   19.74    1.41
   1  -3  -5   23.38    1.62
  -1  -3   5   22.82    1.43
   1   3  -5   21.76    1.38
   1   3  -5   23.75    1.47
   1   3  -5   21.48    1.43
   1   3  -5   20.80    1.53
  -1   3   5   21.15    1.50
  -1   3   5   25.03    1.55
  -1   3   5   23.22    1.41
   0  -3   5  123.32    7.81
   0  -3   5  134.79    7.64
   0  -3   5  123.75    7.61
   0  -3   5  128.76    7.61
   0  -3  -5  128.55    7.59
   0  -3   5  117.99    7.77
   0  -3  -5  114.50    7.60
   0  -3  -5  137.68    7.76
   0  -3  -5  128.41    7.76
   0   3  -5  133.36    7.64
   0   3  -5  125.43    7.62
   0   3   5  129.24    7.59
   0   3   5  133.90    7.66
   0   3   5  133.18    7.59
   0   3   5  106.56    7.66
   0   3   5  122.87    7.71
   1  -3   5    3.85    0.40
   1  -3   5    4.77    0.63
  -1  -3  -5    3.45    0.32
   1  -3   5    3.50    0.34
  -1  -3  -5    4.65    0.33
   1  -3   5    3.82    0.63
  -1  -3  -5    3.96    0.51
  -1   3  -5    3.54    0.35
   1   3   5    3.72    0.53
  -1   3  -5    3.91    0.36
   1   3   5    3.64    0.34
   1   3   5    4.25    0.33
  -1   3  -5    4.30    0.66
   1   3   5    4.79    0.47
  -1   3  -5    4.16    0.53
  -2  -3  -5   38.31    2.34
   2  -3   5   37.33    2.34
   2  -3   5   34.95    2.85
   2  -3   5   36.06    2.63
   2  -3   5   34.09    2.48
  -2  -3  -5   37.19    2.42
   2  -3   5   36.76    2.28
  -2  -3  -5   41.22    2.42
  -2  -3  -5   36.96    2.41
   2   3   5   39.56    2.35
  -2   3  -5   40.25    2.68
  -2   3  -5   34.58    2.67
   2   3   5   38.39    2.32
   2   3   5   38.47    2.60
   2   3   5   38.86    2.36
  -2   3  -5   38.74    2.35
   2   3   5   38.15    2.48
  -3  -3  -5    7.47    0.68
   3  -3   5    8.04    1.14
  -3  -3  -5    9.36    0.83
   3  -3   5    8.51    0.63
   3  -3   5    7.39    1.28
   3  -3   5    8.29    0.60
  -3  -3  -5    8.28    0.63
   3  -3   5    7.54    0.84
  -3   3  -5    9.09    1.11
   3   3   5    8.65    0.57
   3   3   5    8.82    0.67
  -3   3  -5    9.05    0.63
  -3   3  -5    9.76    1.13
   3   3   5    8.23    0.85
  -3   3  -5    8.50    0.58
   3   3   5    9.14    0.68
  -3   3  -5    9.54    0.77
   3   3   5    8.06    0.98
   4  -3   5    4.45    0.46
   4  -3   5    3.94    0.45
  -4  -3  -5    4.85    0.71
   4  -3   5    3.19    1.11
  -4  -3  -5    5.06    1.03
  -4  -3  -5    5.48    0.49
  -4  -3  -5    4.29    0.66
  -4   3  -5    4.91    0.44
   4   3   5    5.49    0.76
   4   3   5    5.00    0.34
  -4   3  -5    3.55    0.79
   4   3   5    5.34    0.57
  -4   3  -5    4.49    0.42
   4   3   5    2.72    0.98
  -4   3  -5    5.47    0.67
  -5  -3  -5    4.09    0.68
  -5  -3  -5    4.42    1.14
  -5  -3  -5    4.23    0.75
   5  -3   5    4.59    0.52
   5  -3   5    3.40    0.51
   5  -3   5    3.36    0.75
  -5  -3  -5    4.50    0.64
  -5   3  -5    5.60    0.85
  -5   3  -5    4.55    0.47
   5   3   5    4.67    1.31
  -5   3  -5    3.85    0.85
   5   3   5    4.99    0.68
   6  -3   5    3.72    0.50
  -6  -3  -5    2.26    0.43
   6  -3   5    2.20    1.22
   6  -3   5    2.13    0.73
  -6  -3  -5    3.01    0.75
   6  -3   5    4.66    0.65
  -6   3  -5    3.13    0.42
  -6   3  -5    3.79    0.97
   6   3   5    2.75    1.42
   6   3   5    5.21    1.07
   7  -3   5    0.00    1.30
  -7  -3  -5    0.15    0.33
  -7  -3  -5   -0.29    0.70
  -7   3  -5    1.36    0.94
   7   3   5   -0.86    1.52
   8  -4  -5    6.86    2.63
  -8  -4   5   10.31    0.96
   8  -4  -5    8.07    1.63
  -8  -4   5    9.35    1.09
   8  -4  -5   11.67    1.51
   8   4  -5   11.86    1.72
   8   4  -5    8.98    2.27
  -8   4   5   10.41    1.54
  -8   4   5    9.75    1.11
  -7  -4   5   10.27    1.01
   7  -4  -5   10.62    1.49
  -7  -4   5   11.06    0.92
   7  -4  -5    8.77    1.69
  -7   4   5   10.67    1.35
   7   4  -5    8.67    1.36
  -7   4   5    8.43    0.97
   7   4  -5   13.29    2.38
  -6  -4   5    3.30    0.51
  -6  -4   5    2.85    0.51
   6  -4  -5    3.70    0.84
   6  -4  -5    1.44    1.37
   6  -4  -5    1.96    0.72
  -6   4   5    3.96    0.78
  -6   4   5    3.76    0.50
   6   4  -5    4.35    0.84
   6   4  -5    2.98    1.03
  -5  -4   5    0.43    0.26
   5  -4  -5    0.81    0.44
  -5  -4   5   -0.04    0.25
   5  -4  -5    0.14    0.95
   5  -4  -5    1.12    0.52
  -5   4   5    0.59    0.43
   5   4  -5    0.04    0.48
   5   4  -5    0.19    0.30
  -5   4   5    0.35    0.23
   4  -4  -5    3.83    0.60
   4  -4  -5    3.92    0.65
  -4  -4   5    3.07    0.47
  -4  -4   5    2.74    0.52
  -4  -4   5    3.46    0.47
   4  -4  -5    2.27    0.99
  -4  -4   5    2.72    0.83
   4  -4  -5    3.77    0.64
   4  -4  -5    3.40    0.37
  -4   4   5    3.45    0.37
   4   4  -5    3.14    0.44
   4   4  -5    2.57    0.42
   4   4  -5    4.09    0.85
  -4   4   5    3.68    0.41
   4   4  -5    3.64    0.51
  -4   4   5    2.76    0.96
  -4   4   5    4.68    0.68
  -4   4   5    3.37    0.49
  -4   4   5    4.32    0.59
  -3  -4   5   11.12    0.87
   3  -4  -5    8.36    1.38
  -3  -4   5   10.46    0.84
   3  -4  -5   11.66    0.96
   3  -4  -5   10.75    1.02
  -3  -4   5   11.43    0.94
  -3  -4   5   10.90    1.17
   3  -4  -5   12.21    0.97
  -3   4   5   12.78    1.02
   3   4  -5   11.74    0.87
   3   4  -5    9.43    0.85
  -3   4   5   11.02    0.78
  -3   4   5   10.95    0.91
   3   4  -5   12.25    0.87
  -3   4   5   11.79    0.85
  -3   4   5   11.94    0.79
   2  -4  -5  142.58    8.48
  -2  -4   5  138.95    8.40
  -2  -4   5  123.81    8.38
   2  -4  -5  138.31    8.55
   2  -4  -5  138.74    8.42
  -2  -4   5  146.72    8.70
  -2  -4   5  133.58    8.35
  -2  -4   5  132.47    8.30
  -2  -4   5  136.32    8.43
  -2   4   5  150.77    8.50
  -2   4   5  142.30    8.38
  -2   4   5  142.12    8.44
   2   4  -5  133.72    8.36
   2   4  -5  137.73    8.39
  -2   4   5  147.70    8.34
   2   4  -5  141.30    8.40
  -2   4   5  129.66    8.32
   1  -4  -5   16.50    1.11
   1  -4  -5   16.14    1.31
  -1  -4   5   16.09    1.15
   1  -4  -5   18.59    1.22
  -1  -4   5   15.98    1.30
  -1  -4   5   16.87    1.07
  -1  -4   5   17.12    1.12
  -1  -4   5   17.30    1.15
   1  -4  -5   17.98    1.28
   1  -4  -5   17.11    1.14
  -1   4   5   17.22    1.22
  -1   4   5   18.28    1.23
   1   4  -5   16.27    1.07
   1   4  -5   17.61    1.16
  -1   4   5   16.78    1.09
   0  -4  -5   56.05    3.67
   0  -4  -5   56.83    3.69
   0  -4  -5   60.01    3.85
   0  -4   5   63.90    3.77
   0  -4   5   61.24    3.95
   0  -4  -5   58.65    3.66
   0  -4  -5   62.19    3.84
   0  -4   5   60.21    3.72
   0  -4   5   61.47    3.70
   0  -4   5   62.15    3.70
   0   4   5   62.33    3.73
   0   4  -5   64.47    3.72
   0   4   5   59.03    3.79
   0   4   5   62.34    3.66
   0   4  -5   50.58    3.87
   1  -4   5    2.03    0.44
  -1  -4  -5    3.24    0.47
  -1  -4  -5    2.39    0.26
  -1  -4  -5    1.92    0.24
   1  -4   5    2.64    0.60
   1  -4   5    2.45    0.29
  -1   4  -5    2.67    0.32
  -1   4  -5    2.91    0.48
   1   4   5    2.65    0.27
   1   4   5    1.75    0.28
   1   4   5    2.24    0.40
  -1   4  -5    2.54    0.56
   1   4   5    2.84    0.42
  -1   4  -5    2.07    0.29
   2  -4   5    0.89    0.26
   2  -4   5    0.28    0.41
  -2  -4  -5    0.85    0.17
   2  -4   5    0.63    0.46
  -2  -4  -5    0.93    0.15
  -2  -4  -5    0.91    0.29
   2  -4   5    0.74    0.19
  -2   4  -5    0.93    0.21
   2   4   5    1.17    0.18
  -2   4  -5    1.01    0.22
  -2   4  -5    0.92    0.38
  -2   4  -5    1.14    0.55
   2   4   5    0.86    0.19
   2   4   5    0.95    0.18
   2   4   5    1.20    0.41
   2   4   5    0.80    0.29
   3  -4   5   53.61    3.27
   3  -4   5   53.62    3.16
  -3  -4  -5   51.48    3.39
  -3  -4  -5   55.73    3.43
   3  -4   5   48.90    3.48
  -3  -4  -5   53.70    3.26
   3  -4   5   43.02    3.95
  -3  -4  -5   47.44    3.30
  -3   4  -5   56.03    3.39
   3   4   5   55.56    3.21
   3   4   5   55.90    3.31
  -3   4  -5   54.85    3.27
   3   4   5   53.42    3.43
   3   4   5   49.75    3.55
  -3   4  -5   53.49    3.75
  -3   4  -5   52.15    3.67
   3   4   5   51.82    3.28
   4  -4   5   48.10    2.90
  -4  -4  -5   47.13    2.96
  -4  -4  -5   52.31    3.45
  -4  -4  -5   48.18    2.96
  -4  -4  -5   39.49    3.12
   4  -4   5   43.18    2.95
  -4   4  -5   47.17    2.93
  -4   4  -5   51.33    3.15
   4   4   5   44.29    3.35
  -4   4  -5   44.04    2.88
   4   4   5   49.83    3.07
  -4   4  -5   49.02    3.46
  -5  -4  -5   30.56    2.78
  -5  -4  -5   29.91    1.94
   5  -4   5   30.89    2.02
   5  -4   5   30.56    1.93
  -5  -4  -5   31.85    2.03
   5   4   5   33.98    2.19
   5   4   5   23.26    2.91
  -5   4  -5   29.98    1.95
  -5   4  -5   28.22    1.94
   5   4   5   32.25    1.88
  -5   4  -5   27.48    2.53
  -5   4  -5   31.65    2.27
  -6  -4  -5   40.79    2.64
  -6  -4  -5   42.96    4.50
   6  -4   5   41.50    2.64
  -6   4  -5   38.69    2.55
   6   4   5   36.98    3.28
   6   4   5   35.27    3.91
  -6   4  -5   43.28    3.22
  -7  -4  -5    4.26    0.63
   7  -4   5    1.42    1.67
  -7   4  -5    4.70    1.08
   7   4   5    5.23    1.46
   7   4   5    5.74    1.99
  -7   4  -5    4.91    0.65
   8  -5  -5    0.79    2.19
  -8  -5   5    0.69    0.47
   8  -5  -5    1.90    1.05
  -8  -5   5    1.13    0.52
   8  -5  -5    0.88    1.22
  -8   5   5    0.83    0.50
   8   5  -5    0.03    0.79
  -8   5   5    1.50    1.13
   8   5  -5    0.85    1.44
   7  -5  -5   14.27    2.13
   7  -5  -5   18.84    1.92
  -7  -5   5   18.14    1.37
   7  -5  -5   14.83    3.33
  -7  -5   5   17.77    1.44
  -7   5   5   17.24    1.87
  -7   5   5   16.07    1.37
   7   5  -5   19.18    1.76
  -6  -5   5   11.01    1.03
   6  -5  -5    8.79    1.56
  -6  -5   5   11.14    1.00
   6  -5  -5    8.52    2.42
   6  -5  -5   12.74    1.42
  -6   5   5   11.65    0.95
   6   5  -5   12.05    1.23
  -6   5   5   12.66    1.35
  -5  -5   5   47.81    3.11
  -5  -5   5   44.13    3.09
   5  -5  -5   44.06    3.38
   5  -5  -5   50.52    3.39
   5   5  -5   52.97    3.25
  -5   5   5   48.74    3.05
   4  -5  -5   31.59    2.36
   4  -5  -5   33.26    2.41
  -4  -5   5   34.66    2.21
  -4  -5   5   28.07    2.69
  -4  -5   5   31.75    2.16
  -4   5   5   26.75    3.12
  -4   5   5   35.66    2.12
  -4   5   5   36.44    2.33
   4   5  -5   33.44    2.26
   4   5  -5   36.88    2.26
  -3  -5   5   67.58    4.10
  -3  -5   5   65.09    4.15
  -3  -5   5   61.14    4.50
  -3  -5   5   63.90    4.23
   3  -5  -5   67.67    4.25
   3  -5  -5   63.24    4.31
   3  -5  -5   64.85    4.26
  -3   5   5   73.03    4.08
  -3   5   5   68.02    4.23
   3   5  -5   62.57    4.16
  -3   5   5   68.14    4.16
  -3   5   5   67.63    4.07
   3   5  -5   68.98    4.02
   3   5  -5   63.43    4.14
   3   5  -5   70.66    4.18
  -2  -5   5   14.69    1.01
  -2  -5   5   11.72    0.93
  -2  -5   5   13.53    1.23
  -2  -5   5   12.90    0.87
   2  -5  -5   13.29    0.99
   2  -5  -5   12.99    1.09
   2  -5  -5   11.50    1.13
  -2  -5   5   12.60    0.86
  -2  -5   5   13.80    1.12
  -2  -5   5   12.64    0.95
  -2   5   5   13.12    0.87
   2   5  -5   11.27    0.92
   2   5  -5   10.34    1.05
  -2   5   5   13.90    0.88
  -2   5   5   14.55    1.09
   2   5  -5   13.07    0.94
  -2   5   5   12.40    1.02
  -2   5   5   12.18    0.94
   2   5  -5   12.55    0.96
   1  -5  -5   13.48    0.95
   1  -5  -5   13.61    0.89
  -1  -5   5   12.17    0.82
  -1  -5   5   12.96    0.95
  -1  -5   5   13.56    0.92
  -1  -5   5   13.61    0.95
  -1  -5   5   12.91    1.12
   1  -5  -5   13.44    1.14
   1  -5  -5   13.21    1.11
  -1  -5   5   13.88    0.95
   1   5  -5   13.21    0.87
  -1   5   5   13.57    1.02
  -1   5   5   13.97    0.88
  -1   5   5   11.93    1.01
   1   5  -5   13.49    0.97
  -1   5   5   13.12    1.04
   1   5  -5   10.23    1.11
   0  -5   5    1.48    0.27
   0  -5  -5    1.36    0.38
   0  -5  -5    1.51    0.22
   0  -5  -5    1.48    0.39
   0  -5   5    1.29    0.27
   0  -5  -5    1.61    0.27
   0  -5   5    1.35    0.41
   0  -5   5    1.56    0.25
   0  -5   5    0.89    0.21
   0   5  -5    1.18    0.23
   0   5   5    0.89    0.24
   0   5   5    0.95    0.29
   0   5   5    1.19    0.19
   0   5  -5    1.39    0.27
   0   5  -5    1.27    0.46
  -1  -5  -5    1.26    0.42
  -1  -5  -5    0.89    0.33
   1  -5   5    1.52    0.50
   1  -5   5    1.39    0.26
  -1  -5  -5    1.24    0.20
   1  -5   5    1.03    0.34
   1  -5   5    1.23    0.24
   1  -5   5    1.87    0.34
   1   5   5    1.74    0.27
  -1   5  -5    1.70    0.29
   1   5   5    1.56    0.36
   1   5   5    1.28    0.21
  -1   5  -5    1.17    0.54
  -1   5  -5    1.23    0.25
  -1   5  -5    1.10    0.34
   1   5   5    1.60    0.37
  -2  -5  -5    1.47    0.23
  -2  -5  -5    1.38    0.27
   2  -5   5    0.39    0.48
   2  -5   5    1.29    0.31
   2  -5   5    0.75    0.22
  -2  -5  -5    1.08    0.34
   2  -5   5    0.83    0.57
  -2   5  -5    1.26    0.42
   2   5   5    1.39    0.25
   2   5   5    1.31    0.22
  -2   5  -5    1.59    0.29
   2   5   5    1.30    0.40
  -2   5  -5    0.83    0.56
  -2   5  -5    1.06    0.25
   2   5   5    0.91    0.35
  -3  -5  -5   23.00    1.45
   3  -5   5   17.86    2.23
  -3  -5  -5   20.75    1.55
   3  -5   5   19.45    1.65
  -3  -5  -5   21.43    1.43
   3  -5   5   20.23    1.46
  -3  -5  -5   21.03    1.56
  -3   5  -5   19.18    1.92
  -3   5  -5   22.58    1.48
   3   5   5   22.77    1.61
   3   5   5   23.67    1.41
   3   5   5   21.73    1.75
  -3   5  -5   23.51    1.57
  -4  -5  -5    7.47    0.92
   4  -5   5    8.29    0.79
  -4  -5  -5    9.18    0.74
  -4  -5  -5    8.35    0.84
   4  -5   5    6.78    1.72
  -4  -5  -5   10.35    1.15
   4  -5   5    9.88    0.59
   4  -5   5    7.98    1.05
   4   5   5    9.86    1.26
   4   5   5    9.16    0.80
   4   5   5    9.78    0.66
  -4   5  -5    9.05    0.64
  -4   5  -5    8.44    0.78
  -4   5  -5    8.16    1.22
  -4   5  -5    9.12    0.91
   4   5   5    9.35    1.23
   5  -5   5    8.90    0.69
  -5  -5  -5    9.61    1.53
   5  -5   5    9.73    0.90
  -5  -5  -5    8.39    0.85
   5  -5   5    7.83    1.26
  -5  -5  -5    9.31    0.82
   5   5   5    9.95    0.73
  -5   5  -5    8.73    0.83
   5   5   5    9.40    1.34
   5   5   5    9.88    0.95
   5   5   5    9.46    1.73
  -5   5  -5   11.87    1.60
  -5   5  -5    8.36    0.72
   6  -5   5   10.81    1.12
  -6  -5  -5   11.53    1.03
   6   5   5   10.62    1.70
  -6   5  -5   11.90    0.92
  -6   5  -5   10.52    1.56
   6   5   5   13.44    2.32
  -7  -5  -5    5.58    0.76
  -7   5  -5    6.61    1.39
   7   5   5    5.32    1.62
   7  -6  -5    0.41    0.88
  -7  -6   5    0.90    0.44
   7  -6  -5   -0.34    1.89
   7  -6  -5    0.15    1.02
  -7  -6   5   -0.30    0.42
  -7   6   5    0.37    0.39
   7   6  -5   -0.25    1.12
  -7   6   5    1.14    0.89
   7   6  -5    0.55    0.66
  -6  -6   5    1.37    0.44
   6  -6  -5    0.82    0.74
   6  -6  -5    0.60    1.63
  -6  -6   5    1.62    0.46
   6  -6  -5    2.35    0.75
   6   6  -5    2.77    0.61
  -6   6   5    2.23    0.41
  -6   6   5    2.06    0.78
   6   6  -5    3.81    1.16
  -5  -6   5   25.74    1.80
   5  -6  -5   24.84    2.08
   5  -6  -5   18.93    2.36
  -5  -6   5   22.70    1.82
   5   6  -5   29.90    1.92
  -5   6   5   22.43    2.00
  -5   6   5   26.37    1.69
   4  -6  -5    0.81    1.08
   4  -6  -5    1.69    0.60
  -4  -6   5    2.66    0.38
   4  -6  -5    3.20    0.64
  -4  -6   5    1.54    0.45
  -4   6   5    2.24    0.32
   4   6  -5    2.68    0.33
   4   6  -5    2.85    0.49
  -4   6   5    2.59    1.20
   4   6  -5    1.27    0.45
  -4   6   5    2.41    0.59
   4   6  -5    2.25    0.54
   3  -6  -5   18.09    1.50
   3  -6  -5   17.56    1.34
  -3  -6   5   15.70    1.12
  -3  -6   5   15.40    1.22
  -3  -6   5   17.40    1.26
  -3  -6   5   14.14    1.57
  -3  -6   5   15.89    1.14
  -3   6   5   16.26    1.85
   3   6  -5   14.26    1.35
  -3   6   5   18.30    1.12
   3   6  -5   18.21    1.24
  -3   6   5   16.64    1.34
   3   6  -5   17.90    1.30
  -2  -6   5    5.13    0.41
  -2  -6   5    5.51    0.86
   2  -6  -5    5.63    0.80
  -2  -6   5    4.84    0.53
  -2  -6   5    5.28    0.60
  -2  -6   5    5.79    0.74
  -2  -6   5    4.74    0.58
  -2  -6   5    5.33    0.51
   2  -6  -5    4.04    0.96
   2  -6  -5    6.26    0.62
   2   6  -5    4.23    0.57
  -2   6   5    5.47    0.67
  -2   6   5    5.51    0.45
  -2   6   5    5.98    0.47
  -2   6   5    5.98    0.85
   2   6  -5    6.13    0.76
   1  -6  -5    6.38    0.83
  -1  -6   5    5.73    0.45
  -1  -6   5    7.16    0.62
  -1  -6   5    7.15    0.63
   1  -6  -5    6.67    0.54
  -1  -6   5    6.69    0.64
  -1  -6   5    7.17    0.84
  -1  -6   5    6.77    0.62
   1  -6  -5    7.82    0.65
  -1   6   5    5.99    0.70
   1   6  -5    7.24    0.56
  -1   6   5    6.43    0.72
  -1   6   5    7.28    0.56
  -1   6   5    6.94    0.54
   1   6  -5    6.90    0.91
   0  -6   5   29.67    2.00
   0  -6  -5   31.88    2.18
   0  -6   5   29.60    2.02
   0  -6   5   31.17    2.00
   0  -6  -5   31.63    2.02
   0  -6   5   29.78    2.34
   0  -6  -5   30.93    1.93
   0  -6   5   29.35    2.02
   0  -6  -5   31.99    1.98
   0   6  -5   26.83    2.25
   0   6   5   29.44    2.01
   0   6  -5   30.45    2.02
   0   6   5   31.67    1.94
   0   6   5   31.61    2.12
  -1  -6  -5  121.22    7.57
  -1  -6  -5  117.85    7.45
   1  -6   5  121.02    7.43
   1  -6   5  111.54    7.41
   1  -6   5  124.21    7.98
   1  -6   5  124.53    7.51
  -1  -6  -5  115.27    7.35
  -1  -6  -5  120.94    7.42
   1  -6   5  127.49    7.51
  -1   6  -5  129.24    7.49
  -1   6  -5  126.40    7.68
  -1   6  -5  122.26    7.44
   1   6   5  120.63    7.40
   1   6   5  123.72    7.55
  -1   6  -5  119.90    7.72
   2  -6   5   15.75    1.90
  -2  -6  -5   17.01    1.37
   2  -6   5   17.10    1.22
  -2  -6  -5   15.85    1.13
  -2  -6  -5   17.08    1.23
   2  -6   5   16.21    1.33
   2   6   5   15.97    1.38
  -2   6  -5   17.23    1.26
  -2   6  -5   13.80    1.63
   2   6   5   18.26    1.17
  -2   6  -5   18.31    1.27
   3  -6   5   95.24    6.29
  -3  -6  -5   97.02    6.02
  -3  -6  -5   98.61    6.18
  -3  -6  -5   91.42    6.15
   3  -6   5   98.69    6.09
   3   6   5  102.58    6.01
  -3   6  -5  106.67    6.18
   3   6   5   94.45    6.29
   3   6   5  100.14    6.10
  -3   6  -5  101.34    6.10
   4  -6   5   -0.10    0.44
  -4  -6  -5    0.77    0.33
   4  -6   5    0.36    0.33
  -4  -6  -5    0.31    0.33
   4  -6   5    0.37    0.93
  -4  -6  -5    0.79    0.26
  -4  -6  -5    0.10    0.37
   4   6   5    0.50    0.40
   4   6   5    0.49    0.22
  -4   6  -5    0.16    0.40
   4   6   5    0.67    0.25
   4   6   5    0.82    0.64
  -4   6  -5   -0.33    0.86
  -4   6  -5    0.68    0.38
   5  -6   5    7.68    0.93
  -5  -6  -5    7.19    0.78
  -5  -6  -5    9.46    0.94
   5   6   5    7.48    1.33
  -5   6  -5    8.71    1.45
   5   6   5    9.81    1.37
   6  -6   5   12.33    1.26
  -6  -6  -5   10.87    1.04
  -6   6  -5    8.57    1.55
   6   6   5   15.20    2.00
   7  -7  -5    3.12    1.27
  -7  -7   5    2.60    0.63
  -7  -7   5    3.36    0.63
   7  -7  -5    3.49    1.20
   7  -7  -5    2.23    2.17
  -7   7   5    3.12    1.12
   7   7  -5    3.35    0.83
  -7   7   5    2.08    0.55
   6  -7  -5    1.74    1.88
  -6  -7   5    4.91    0.64
   6  -7  -5    5.60    1.11
  -6  -7   5    4.34    0.71
   6  -7  -5    3.73    1.02
  -6   7   5    4.29    0.99
  -6   7   5    4.44    0.66
   6   7  -5    5.28    1.03
   5  -7  -5    0.01    0.62
   5  -7  -5    1.15    0.65
  -5  -7   5    1.53    0.39
  -5  -7   5    1.08    0.46
  -5   7   5    0.95    0.29
   5   7  -5    1.56    0.48
  -5   7   5    0.82    0.65
   5   7  -5    2.24    0.98
   4  -7  -5    0.56    1.12
  -4  -7   5    0.35    0.36
   4  -7  -5   -0.17    0.43
  -4  -7   5    0.22    0.34
   4  -7  -5    0.42    0.59
  -4  -7   5   -0.10    0.21
   4   7  -5   -0.27    0.54
   4   7  -5    0.04    0.26
  -4   7   5    0.09    0.58
   4   7  -5    0.42    0.65
  -4   7   5    1.60    1.04
  -4   7   5    0.16    0.20
  -3  -7   5    0.33    0.30
  -3  -7   5    0.40    0.32
   3  -7  -5   -0.34    0.81
  -3  -7   5    0.14    0.15
   3  -7  -5    0.45    0.35
  -3  -7   5    0.15    0.32
   3  -7  -5    0.66    0.54
  -3  -7   5   -0.05    0.29
  -3   7   5   -0.23    0.59
  -3   7   5    0.84    0.48
   3   7  -5    0.09    0.40
   3   7  -5   -0.06    0.23
   3   7  -5    0.54    0.57
  -3   7   5   -0.23    0.15
  -2  -7   5   15.56    1.59
  -2  -7   5   13.96    0.99
  -2  -7   5   15.63    1.27
   2  -7  -5   15.28    1.43
  -2  -7   5   14.16    1.37
   2  -7  -5   15.38    1.23
  -2  -7   5   15.79    1.21
  -2  -7   5   16.44    1.14
   2   7  -5   14.76    1.19
   2   7  -5   15.34    1.46
  -2   7   5   15.28    1.04
  -2   7   5   16.57    1.34
  -2   7   5   17.11    1.30
  -1  -7   5    1.24    0.31
   1  -7  -5    0.82    0.21
  -1  -7   5    0.57    0.25
  -1  -7   5    1.08    0.55
   1  -7  -5    0.86    0.21
   1  -7  -5    0.79    0.43
  -1  -7   5    0.62    0.12
   1  -7  -5    0.72    0.31
  -1  -7   5    0.86    0.47
   1   7  -5    0.99    0.36
   1   7  -5    1.83    0.58
   0  -7  -5   45.79    3.00
   0  -7  -5   48.68    3.12
   0  -7   5   51.92    3.57
   0  -7   5   45.97    3.12
   0  -7  -5   47.16    3.28
   0  -7  -5   48.38    3.07
   0  -7   5   47.84    3.11
   0  -7   5   48.74    3.12
   0   7   5   51.37    3.25
   0   7  -5   47.46    3.37
  -1  -7  -5    4.81    0.51
   1  -7   5    4.55    0.62
  -1  -7  -5    4.94    0.77
   1  -7   5    4.72    1.09
   1  -7   5    5.16    0.59
  -1  -7  -5    4.30    0.44
  -1  -7  -5    4.74    0.62
  -1   7  -5    6.42    1.05
   1   7   5    4.91    0.81
  -1   7  -5    5.06    0.60
  -2  -7  -5   37.30    2.81
   2  -7   5   39.71    2.67
  -2  -7  -5   42.76    2.70
   2  -7   5   35.77    3.65
   2  -7   5   34.87    2.79
  -2  -7  -5   40.88    2.57
  -2  -7  -5   41.42    2.72
   2   7   5   45.73    2.89
  -2   7  -5   47.62    2.90
  -2   7  -5   40.74    3.13
  -3  -7  -5    0.66    0.39
  -3  -7  -5    1.57    0.49
   3  -7   5    1.67    0.55
   3  -7   5    1.50    1.07
  -3  -7  -5    1.36    0.28
   3  -7   5    2.04    0.52
  -3   7  -5    0.57    0.78
  -3   7  -5    1.10    0.37
   3   7   5    1.44    0.55
  -4  -7  -5   12.73    0.98
  -4  -7  -5   11.06    1.20
   4  -7   5   12.15    1.27
   4   7   5   12.82    1.50
  -4   7  -5   13.01    1.87
  -5  -7  -5    0.66    0.53
   5  -7   5    0.42    0.54
  -5  -7  -5    0.42    0.32
   5  -7   5    1.09    1.34
  -5   7  -5   -0.47    1.08
   5   7   5   -0.25    0.84
   6  -7   5    2.31    0.88
  -6  -7  -5    1.11    0.49
   6  -7   5   -0.17    1.55
   6   7   5    0.42    1.13
  -6   7  -5    0.92    1.22
   6  -8  -5    1.58    1.01
  -6  -8   5    1.85    0.62
   6  -8  -5    1.21    0.89
   6  -8  -5   -1.21    2.02
  -6  -8   5    1.06    0.46
  -6   8   5    1.23    0.42
  -6   8   5    1.47    1.01
   6   8  -5    1.42    0.65
   6   8  -5    3.73    1.43
   5  -8  -5   -0.13    1.62
   5  -8  -5    1.28    0.68
   5  -8  -5    0.10    0.78
  -5  -8   5    0.88    0.35
  -5  -8   5    0.63    0.49
  -5   8   5   -0.31    0.86
   5   8  -5    0.58    0.52
   5   8  -5    1.26    1.07
  -5   8   5    0.42    0.31
   4  -8  -5    6.44    1.10
  -4  -8   5    5.67    0.79
   4  -8  -5    6.64    1.11
   4  -8  -5    4.11    1.59
  -4  -8   5    6.77    0.99
  -4  -8   5    6.73    0.62
  -4   8   5    6.03    0.97
   4   8  -5    6.56    0.85
  -4   8   5    6.15    0.61
  -3  -8   5    1.41    0.57
  -3  -8   5    1.69    0.26
  -3  -8   5    1.56    0.46
   3  -8  -5    1.57    0.71
  -3  -8   5    1.28    0.43
   3  -8  -5    0.86    1.04
   3  -8  -5    1.54    0.51
  -3   8   5    0.59    0.63
  -3   8   5    1.27    0.27
   3   8  -5    1.63    0.77
   3   8  -5    2.11    0.59
   2  -8  -5   43.38    3.24
  -2  -8   5   45.10    3.06
  -2  -8   5   44.20    2.99
  -2  -8   5   47.58    3.31
  -2  -8   5   45.72    3.05
   2  -8  -5   47.75    3.11
  -2  -8   5   43.13    2.82
   2   8  -5   45.55    3.01
  -2   8   5   47.50    3.16
   2   8  -5   47.76    3.28
  -2   8   5   44.95    2.87
  -2   8   5   50.10    3.02
   1  -8  -5    0.86    0.25
  -1  -8   5    1.27    0.19
  -1  -8   5    0.76    0.38
  -1  -8   5    1.11    0.42
   1  -8  -5    0.80    0.25
  -1  -8   5    1.04    0.55
   1  -8  -5    1.66    0.56
   1  -8  -5    0.99    0.36
  -1   8   5    1.04    0.46
   1   8  -5    1.22    0.35
   1   8  -5    0.78    0.69
   0  -8  -5   32.43    2.56
   0  -8   5   33.44    2.37
   0  -8  -5   34.20    2.40
   0  -8   5   33.91    2.42
   0  -8   5   36.36    2.92
   0  -8  -5   37.34    2.34
   0  -8  -5   36.52    2.25
   0   8   5   36.20    2.50
   0   8  -5   34.65    2.73
  -1  -8  -5    8.96    0.71
   1  -8   5    8.11    0.95
  -1  -8  -5    9.53    0.92
   1  -8   5    8.03    0.88
  -1  -8  -5    7.90    1.13
   1   8   5   10.64    1.11
  -1   8  -5    9.75    1.50
  -2  -8  -5    0.45    0.22
   2  -8   5    0.94    0.89
  -2  -8  -5    0.04    0.53
  -2  -8  -5    0.67    0.39
   2  -8   5    0.81    0.39
  -2   8  -5    2.20    0.93
   2   8   5    0.57    0.54
   3  -8   5   16.10    2.75
   3  -8   5   23.14    1.66
  -3  -8  -5   20.44    1.42
  -3  -8  -5   19.55    1.77
   3   8   5   22.71    1.87
  -3   8  -5   18.20    2.17
   4  -8   5   24.50    1.83
  -4  -8  -5   23.41    1.91
  -4  -8  -5   21.75    1.58
  -4   8  -5   24.17    2.50
   4   8   5   19.46    2.07
  -5  -8  -5   11.72    1.05
   5  -8   5   11.91    1.43
   5   8   5   12.18    1.80
  -5   8  -5    9.86    1.77
  -5  -9   5    3.15    0.87
  -5  -9   5    3.49    0.77
   5  -9  -5    0.87    3.28
   5  -9  -5    2.88    1.00
   5  -9  -5    2.16    1.01
  -5  -9   5    3.26    0.51
  -5   9   5    3.81    0.52
  -5   9   5    2.28    1.15
   5   9  -5    3.97    0.79
  -4  -9   5    1.57    0.61
  -4  -9   5    1.03    0.29
   4  -9  -5    0.74    0.68
  -4  -9   5    0.71    0.67
   4  -9  -5    0.19    2.78
   4  -9  -5    0.28    0.91
  -4   9   5    0.88    0.31
  -4   9   5    1.45    0.84
  -3  -9   5   12.88    0.93
   3  -9  -5   10.17    1.62
  -3  -9   5   13.24    1.29
  -3  -9   5   13.69    1.54
   3  -9  -5   13.81    1.42
  -3   9   5   15.31    1.60
  -3   9   5   13.82    1.00
   2  -9  -5    1.54    0.78
  -2  -9   5    1.48    0.70
  -2  -9   5    1.80    0.52
  -2  -9   5    1.70    0.24
   2  -9  -5    1.80    0.53
  -2   9   5    0.96    0.63
  -2   9   5    1.39    0.29
   2   9  -5    0.91    0.90
   1  -9  -5   18.32    1.52
   1  -9  -5   16.15    1.72
  -1  -9   5   19.22    2.00
  -1  -9   5   16.40    1.48
  -1  -9   5   18.50    1.16
   1   9  -5   17.15    1.97
  -1   9   5   18.86    1.25
  -1   9   5   20.72    1.68
   0  -9  -5    1.02    0.39
   0  -9   5    1.09    0.48
   0  -9  -5    0.25    0.63
   0  -9  -5    1.23    0.30
   0  -9   5    1.57    0.89
   0   9   5    1.26    0.61
   0   9  -5    0.49    0.92
   1  -9   5    2.99    1.12
   1  -9   5    1.57    0.50
  -1  -9  -5    2.56    0.54
  -1  -9  -5    2.30    0.37
  -1  -9  -5    2.30    0.72
   1   9   5    2.45    0.71
  -1   9  -5    1.46    0.98
  -2  -9  -5    8.29    0.74
  -2  -9  -5    9.88    1.40
  -2  -9  -5    8.45    1.04
   2  -9   5    9.08    1.04
   2  -9   5    8.50    2.15
  -2   9  -5    7.77    1.42
   2   9   5    9.38    1.28
  -3  -9  -5    1.81    0.61
   3  -9   5    1.11    1.43
  -3  -9  -5    2.48    0.82
   3  -9   5    2.61    0.72
  -3  -9  -5    2.13    0.39
  -3   9  -5    1.59    1.12
   3   9   5    1.94    0.82
  -4  -9  -5    7.71    0.83
   4  -9   5    5.70    2.08
   4  -9   5    8.85    1.32
  -4  -9  -5   10.45    1.49
   4   9   5    8.41    1.27
  -4   9  -5    9.06    1.67
  -3 -10   5    0.66    0.83
   3 -10  -5    0.14    0.94
   3 -10  -5    0.96    0.68
  -3 -10   5    1.23    0.66
  -3  10   5    0.00    0.86
  -3  10   5    0.84    0.32
  -2 -10   5    3.17    1.03
   2 -10  -5    2.62    0.94
  -2 -10   5    2.37    0.68
   2 -10  -5    3.42    0.78
  -2  10   5    3.36    0.92
  -2  10   5    3.94    0.51
  -1 -10   5    3.59    0.75
   1 -10  -5    3.18    1.01
   1 -10  -5    3.42    0.74
  -1 -10   5    3.73    1.18
  -1  10   5    3.75    0.49
  -1  10   5    3.72    0.92
   1  10  -5    2.52    1.22
   0 -10  -5    1.79    0.50
   0 -10  -5    1.41    0.87
   0 -10   5    2.69    1.18
   0 -10  -5    2.01    0.40
   0 -10   5    1.76    0.59
   0  10   5    3.53    0.86
   0  10  -5    2.33    1.17
  -1 -10  -5   20.21    2.14
   1 -10   5   20.94    2.89
  -1 -10  -5   20.66    1.50
   1 -10   5   22.73    1.80
  -1 -10  -5   21.12    1.78
  -1  10  -5   21.33    2.49
   1  10   5   23.22    2.00
  -2 -10  -5    0.18    0.86
   2 -10   5    0.77    1.47
  -2 -10  -5    0.72    0.53
   2 -10   5    1.03    0.63
  -2 -10  -5    1.11    0.35
  -2  10  -5    1.86    1.30
   2  10   5    0.29    0.81
   9   0  -6   18.07    5.09
  -9   0   6   13.55    1.24
  -9   0   6   15.13    1.69
   9   0  -6   18.73    2.34
  -8   0   6   59.15    3.72
   8   0  -6   55.59    4.28
   8   0  -6   57.69    5.70
  -8   0   6   56.06    3.59
  -8   0   6   53.53    3.70
  -7   0   6   73.70    4.44
  -7   0   6   63.14    4.42
   7   0  -6   68.52    4.88
   7   0  -6   72.59    4.44
  -7   0   6   71.84    4.44
   7   0  -6   64.32    5.86
  -6   0   6    5.99    0.60
   6   0  -6    4.57    1.41
  -6   0   6    5.69    0.79
   6   0  -6    5.79    0.67
   6   0  -6    4.24    0.82
  -6   0   6    5.33    0.73
  -5   0   6   99.37    5.99
  -5   0   6  101.53    6.00
  -5   0   6   93.11    6.23
   5   0  -6  102.08    6.85
  -5   0   6  101.11    6.15
   5   0  -6   84.08    6.24
  -5   0   6   99.64    5.99
  -4   0   6  284.23   17.58
  -4   0   6  281.46   17.56
  -4   0   6  313.26   17.38
   4   0  -6  309.08   17.37
   4   0  -6  281.40   17.96
  -4   0   6  269.66   17.42
   4   0  -6  299.62   17.39
  -4   0   6  279.21   17.40
  -3   0   6   44.95    3.02
  -3   0   6   40.04    3.36
  -3   0   6   49.62    3.16
   3   0  -6   49.81    3.36
   3   0  -6   50.74    2.97
   3   0  -6   49.90    2.95
  -3   0   6   46.71    2.97
  -3   0   6   51.81    3.08
   2   0  -6  547.86   34.20
  -2   0   6  596.27   34.22
  -2   0   6  612.95   34.60
  -2   0   6  536.37   34.39
  -1   0   6    1.29    0.22
  -1   0   6    2.32    0.27
  -1   0   6    1.97    0.18
  -1   0   6    1.87    0.29
   1   0  -6    1.79    0.22
  -1   0   6    1.96    0.37
  -1   0   6    1.39    0.19
  -1   0   6    1.89    0.36
   0   0  -6   95.94    5.91
   0   0   6  105.30    5.96
   0   0   6   98.62    5.81
   0   0   6   99.68    5.97
   0   0  -6   98.20    5.82
   0   0   6   86.85    5.95
   0   0   6   94.00    5.86
   1   0   6   25.31    1.64
  -1   0  -6   27.78    1.74
  -1   0  -6   25.08    1.55
   1   0   6   24.47    1.81
  -1   0  -6   23.51    1.70
   1   0   6   24.67    1.56
  -2   0  -6  416.80   24.87
   2   0   6  394.31   25.10
   2   0   6  408.23   24.66
   2   0   6  407.14   24.74
   2   0   6  405.21   24.65
  -2   0  -6  446.27   24.94
  -3   0  -6    3.82    0.62
  -3   0  -6    3.45    0.57
   3   0   6    4.14    0.39
   3   0   6    4.46    0.55
  -3   0  -6    4.77    0.78
   3   0   6    3.42    0.85
  -3   0  -6    4.49    0.36
   3   0   6    3.47    0.65
   4   0   6  667.19   40.19
  -4   0  -6  695.80   39.58
  -4   0  -6  586.82   39.83
   4   0   6  699.81   39.63
  -5   0  -6   13.92    1.01
  -5   0  -6   12.57    1.33
  -5   0  -6   15.73    1.64
   5   0   6   15.66    1.40
   5   0   6   12.93    1.12
   6   0   6  254.59   14.90
  -6   0  -6  211.03   14.34
  -7   0  -6   17.08    1.32
  -7   0  -6   17.40    1.86
  -8   0  -6    0.50    0.44
   8   0   6   -0.25    1.95
  -8   0  -6    1.17    0.95
   9  -1  -6   22.74    2.77
  -9  -1   6   21.24    1.67
  -9   1   6   26.27    2.42
  -9   1   6   23.13    1.72
   9   1  -6   26.54    2.68
  -8  -1   6    0.23    0.36
   8  -1  -6    1.55    0.88
  -8  -1   6    0.57    0.43
   8  -1  -6    0.93    1.76
   8   1  -6    1.04    1.49
  -8   1   6    0.12    0.36
  -8   1   6   -0.24    0.64
   8   1  -6    0.50    0.80
  -8   1   6    0.23    0.44
   7  -1  -6   35.61    2.56
   7  -1  -6   31.76    2.85
   7  -1  -6   32.18    3.93
  -7  -1   6   36.24    2.44
  -7  -1   6   36.58    2.36
  -7  -1   6   37.63    2.34
  -7   1   6   33.84    2.42
   7   1  -6   35.77    2.89
   7   1  -6   32.12    3.64
  -7   1   6   37.49    2.57
  -7   1   6   37.74    2.37
  -6  -1   6   90.45    5.57
   6  -1  -6   96.37    5.70
   6  -1  -6   83.44    7.22
  -6  -1   6   91.44    5.61
  -6  -1   6   85.07    5.71
  -6   1   6   89.60    5.71
   6   1  -6  103.15    5.57
   6   1  -6   85.18    5.98
  -6   1   6   89.85    5.62
   6   1  -6   93.63    6.78
  -6   1   6   88.63    5.65
  -5  -1   6    1.04    0.48
   5  -1  -6    1.25    0.74
   5  -1  -6    0.69    0.43
  -5  -1   6    1.39    0.29
  -5  -1   6    1.66    0.34
  -5  -1   6    1.54    0.29
  -5  -1   6    1.12    0.47
   5  -1  -6    1.80    0.54
   5   1  -6    0.95    0.61
  -5   1   6    1.00    0.83
   5   1  -6    1.19    0.33
   5   1  -6    1.61    0.52
  -5   1   6    0.59    0.40
  -5   1   6    0.97    0.45
   5   1  -6    1.36    0.21
  -5   1   6    1.31    0.35
  -5   1   6    1.23    0.28
  -4  -1   6  129.54    9.06
  -4  -1   6  137.68    8.81
   4  -1  -6  149.24    8.85
   4  -1  -6  152.65    8.89
  -4  -1   6  138.35    8.89
  -4  -1   6  144.19    9.05
  -4  -1   6  144.38    8.90
   4  -1  -6  146.24    9.10
   4  -1  -6  139.58    9.48
   4   1  -6  122.39    9.04
  -4   1   6  159.14    9.06
  -4   1   6  165.21    9.02
  -4   1   6  143.93    8.87
   4   1  -6  165.11    9.48
  -4   1   6  150.10    8.88
   4   1  -6  152.76    8.88
   4   1  -6  152.09    8.79
  -3  -1   6   36.66    2.67
  -3  -1   6   43.79    2.57
  -3  -1   6   43.42    2.66
  -3  -1   6   36.25    2.77
   3  -1  -6   42.66    2.88
  -3  -1   6   45.58    2.58
  -3  -1   6   42.13    2.81
   3  -1  -6   42.29    3.03
   3  -1  -6   44.35    2.62
  -3  -1   6   38.31    3.04
   3   1  -6   44.41    2.63
  -3   1   6   43.96    2.64
  -3   1   6   44.06    2.63
   3   1  -6   40.09    2.77
  -3   1   6   41.26    2.81
  -3   1   6   47.36    2.69
  -2  -1   6   62.99    3.81
  -2  -1   6   63.10    3.59
  -2  -1   6   60.41    3.61
  -2  -1   6   56.97    3.66
  -2  -1   6   58.97    3.61
   2  -1  -6   62.72    3.60
   2  -1  -6   60.99    3.69
   2  -1  -6   55.86    3.82
  -2  -1   6   64.21    3.97
   2  -1  -6   50.36    3.66
  -2   1   6   56.33    3.77
  -2   1   6   60.78    3.61
  -2   1   6   60.62    3.64
   2   1  -6   61.19    3.59
   2   1  -6   60.24    3.67
  -2   1   6   51.89    3.92
   1  -1  -6  137.86    9.28
  -1  -1   6  154.57    9.09
  -1  -1   6  159.42    9.29
  -1  -1   6  137.49    9.14
   1  -1  -6  150.01    9.09
  -1  -1   6  152.03    9.18
  -1  -1   6  151.21    9.10
  -1   1   6  139.72    9.24
   1   1  -6  153.74    9.08
   1   1  -6  155.60    9.09
  -1   1   6  156.38    9.19
  -1   1   6  152.34    9.17
  -1   1   6  171.26    9.38
  -1   1   6  159.25    9.10
  -1   1   6  146.88    9.10
   0  -1   6   84.90    5.11
   0  -1  -6   84.11    5.08
   0  -1   6   84.55    5.26
   0  -1  -6   75.05    5.21
   0  -1   6   84.51    5.05
   0  -1   6   75.02    5.29
   0  -1  -6   82.01    5.04
   0   1   6   88.27    5.19
   0   1  -6   80.96    5.09
   0   1   6   87.15    5.24
   0   1   6   87.86    5.19
   0   1  -6   85.99    5.18
   0   1   6   91.66    5.19
   0   1   6   88.52    5.08
  -1  -1  -6   66.12    3.88
   1  -1   6   64.14    3.88
   1  -1   6   61.60    4.12
  -1  -1  -6   60.12    3.96
   1  -1   6   63.96    4.18
  -1  -1  -6   71.93    4.03
   1  -1   6   62.95    3.86
   1   1   6   67.04    4.03
  -1   1  -6   61.53    3.86
   1   1   6   65.82    3.88
  -1   1  -6   64.45    3.94
  -1   1  -6   57.13    3.90
   1   1   6   65.37    3.93
  -1   1  -6   68.21    4.10
   1   1   6   65.59    4.11
  -1   1  -6   60.19    4.05
   2  -1   6  164.97   10.16
   2  -1   6  170.80   10.51
   2  -1   6  172.18   10.18
  -2  -1  -6  175.93   10.37
  -2  -1  -6  188.05   10.42
   2  -1   6  171.57   10.70
  -2  -1  -6  168.86   10.19
  -2   1  -6  173.61   10.16
   2   1   6  174.21   10.20
  -2   1  -6  167.34   10.44
  -2   1  -6  191.80   10.53
   2   1   6  163.68   10.16
   2   1   6  144.66   10.53
   2   1   6  177.24   10.21
  -2   1  -6  150.43   10.17
   2   1   6  163.69   10.16
   3  -1   6    7.40    1.20
  -3  -1  -6   10.42    0.68
  -3  -1  -6   11.75    1.08
   3  -1   6    9.62    0.91
   3  -1   6   11.07    0.65
  -3  -1  -6    9.68    0.94
   3  -1   6    9.96    1.14
   3  -1   6    9.33    0.59
  -3   1  -6    9.09    0.64
  -3   1  -6    6.43    0.96
   3   1   6    9.20    0.76
  -3   1  -6    7.33    0.84
   3   1   6    9.41    0.69
  -3   1  -6    8.81    1.07
  -4  -1  -6   56.84    4.00
  -4  -1  -6   60.45    3.74
  -4  -1  -6   67.98    4.40
   4  -1   6   53.84    4.02
   4  -1   6   62.81    3.78
   4   1   6   61.63    3.94
  -4   1  -6   55.87    4.05
  -4   1  -6   61.92    3.72
  -4   1  -6   62.70    4.43
   4   1   6   60.02    3.77
  -5  -1  -6   62.43    4.65
   5  -1   6   76.31    4.43
  -5  -1  -6   76.12    4.36
  -5  -1  -6   58.25    4.60
  -5  -1  -6   77.38    5.33
   5  -1   6   69.14    4.73
   5   1   6   70.58    4.64
  -5   1  -6   71.80    4.33
  -5   1  -6   68.63    4.68
  -6  -1  -6   12.25    1.43
  -6  -1  -6   10.04    0.90
   6  -1   6   12.37    1.54
  -6   1  -6   10.94    1.43
   6   1   6    7.22    1.87
  -6   1  -6   11.17    0.88
  -7  -1  -6   24.74    1.85
  -7  -1  -6   25.86    2.35
  -7   1  -6   27.18    1.83
  -7   1  -6   28.14    2.41
  -8  -1  -6   47.87    3.10
  -8  -1  -6   44.22    3.60
  -8   1  -6   44.91    3.61
  -8   1  -6   48.21    3.07
  -8  -2   6   27.57    2.00
  -8  -2   6   28.13    1.88
   8  -2  -6   22.72    2.59
   8  -2  -6   22.64    4.02
   8   2  -6   32.68    2.67
  -8   2   6   24.99    2.00
   8   2  -6   28.97    3.80
  -8   2   6   27.06    1.90
   7  -2  -6   36.15    3.33
   7  -2  -6   45.39    3.39
   7  -2  -6   41.28    4.67
  -7  -2   6   44.85    2.96
  -7  -2   6   45.45    2.87
   7  -2  -6   45.52    3.23
   7   2  -6   47.52    4.30
  -7   2   6   43.17    3.11
  -7   2   6   44.56    2.94
   7   2  -6   48.04    3.43
   6  -2  -6    0.54    0.55
   6  -2  -6    0.24    0.46
  -6  -2   6    0.72    0.31
   6  -2  -6    0.81    0.49
   6  -2  -6    0.46    1.07
  -6  -2   6    0.96    0.34
   6   2  -6    0.57    0.50
  -6   2   6    1.39    0.46
   6   2  -6    0.36    0.70
  -6   2   6    0.63    0.28
   5  -2  -6  119.02    6.84
  -5  -2   6  104.95    6.91
   5  -2  -6   98.13    7.71
   5  -2  -6  112.27    7.01
  -5  -2   6  105.14    6.75
  -5  -2   6  109.07    6.80
  -5   2   6  111.46    6.93
   5   2  -6  106.18    6.99
  -5   2   6  119.39    6.83
   5   2  -6  117.33    7.49
  -5   2   6  109.57    6.74
   4  -2  -6   66.18    5.06
   4  -2  -6   58.56    4.57
  -4  -2   6   65.55    4.45
   4  -2  -6   73.14    4.38
  -4  -2   6   63.61    4.42
   4  -2  -6   75.32    4.70
  -4  -2   6   70.33    4.57
   4  -2  -6   80.27    4.49
   4   2  -6   73.47    4.59
  -4   2   6   75.69    4.61
  -4   2   6   79.07    4.50
  -4   2   6   76.86    4.45
  -4   2   6   71.84    4.40
   4   2  -6   72.55    4.90
   3  -2  -6    1.65    0.49
  -3  -2   6    1.41    0.38
   3  -2  -6    2.14    0.34
  -3  -2   6    1.45    0.51
   3  -2  -6    1.46    0.21
   3  -2  -6    1.80    0.35
   3  -2  -6    2.01    0.49
  -3  -2   6    1.68    0.36
  -3   2   6    1.89    0.28
   3   2  -6    1.68    0.25
  -3   2   6    1.12    0.19
   3   2  -6    2.11    0.32
  -3   2   6    1.94    0.27
   3   2  -6    1.52    0.30
  -3   2   6    2.22    0.44
   3   2  -6    2.52    0.61
   2  -2  -6  143.13    9.09
   2  -2  -6  160.05    9.33
   2  -2  -6  152.49    9.30
  -2  -2   6  133.44    9.12
  -2  -2   6  168.99    9.43
  -2  -2   6  149.25    9.09
  -2  -2   6  155.09    9.02
  -2  -2   6  152.80    9.01
   2  -2  -6  151.08    9.14
  -2  -2   6  138.63    9.06
  -2   2   6  150.23    9.10
  -2   2   6  152.05    9.03
  -2   2   6  146.99    9.20
   2   2  -6  147.14    9.07
   2   2  -6  146.88    9.03
  -2   2   6  146.15    9.03
  -2   2   6  159.17    9.05
   2   2  -6  155.92    9.13
   1  -2  -6  511.85   29.90
  -1  -2   6  470.31   29.72
  -1  -2   6  446.97   29.76
   1  -2  -6  539.66   29.84
  -1  -2   6  470.67   29.70
  -1   2   6  493.17   29.93
  -1   2   6  511.17   29.68
   1   2  -6  498.04   29.74
  -1   2   6  532.37   29.78
  -1   2   6  528.67   29.83
   1   2  -6  469.60   29.71
   0  -2   6   97.15    5.75
   0  -2   6   97.02    5.97
   0  -2   6   99.73    5.79
   0  -2  -6   94.17    5.76
   0  -2   6   87.80    5.73
   0  -2  -6   92.04    5.93
   0  -2   6   92.63    5.78
   0  -2   6   89.97    5.71
   0   2  -6   99.25    5.82
   0   2   6  100.36    5.85
   0   2   6   96.71    5.91
   0   2   6  100.42    5.76
   0   2   6   95.78    5.85
   0   2  -6   97.08    5.80
   0   2  -6   94.34    5.90
  -1  -2  -6  846.91   48.85
   1  -2   6  749.64   48.99
   1  -2   6  828.22   49.08
   1   2   6  851.91   48.77
  -1   2  -6  728.45   48.80
   1   2   6  824.38   48.95
   1   2   6  841.04   48.94
   1   2   6  855.34   48.87
  -1   2  -6  872.85   48.99
  -1   2  -6  774.07   48.95
   2  -2   6    3.32    0.31
   2  -2   6    2.83    0.49
  -2  -2  -6    4.01    0.45
  -2  -2  -6    3.99    0.44
   2  -2   6    3.07    0.75
  -2  -2  -6    4.08    0.34
   2  -2   6    4.08    0.74
  -2  -2  -6    4.26    0.52
   2  -2   6    3.98    0.31
  -2   2  -6    4.19    0.34
   2   2   6    4.51    0.35
  -2   2  -6    3.74    0.29
   2   2   6    4.02    0.32
  -2   2  -6    3.64    0.68
   2   2   6    3.52    0.50
   2   2   6    4.16    0.31
  -2   2  -6    3.40    0.59
  -2   2  -6    4.56    0.43
   3  -2   6  186.05   10.93
  -3  -2  -6  186.89   10.80
   3  -2   6  167.89   10.44
  -3  -2  -6  180.35   10.68
  -3  -2  -6  159.33   10.42
  -3  -2  -6  173.62   10.47
   3   2   6  178.46   10.54
  -3   2  -6  165.56   10.44
  -3   2  -6  179.52   10.66
  -3   2  -6  164.90   10.81
   3   2   6  165.21   10.39
   3   2   6  164.26   10.68
  -3   2  -6  173.76   10.43
  -3   2  -6  188.11   10.98
   3   2   6  180.61   10.50
  -4  -2  -6    5.42    1.04
   4  -2   6    6.24    0.59
  -4  -2  -6    5.10    0.53
  -4  -2  -6    5.36    0.82
  -4   2  -6    8.67    1.09
   4   2   6    5.42    0.62
   4   2   6    7.06    0.66
  -4   2  -6    6.34    0.79
  -4   2  -6    6.99    0.44
  -4   2  -6    6.08    0.50
  -5  -2  -6   32.48    2.14
  -5  -2  -6   32.95    2.97
  -5   2  -6   31.29    2.58
  -5   2  -6   31.65    2.09
  -5   2  -6   33.58    2.46
   5   2   6   34.07    2.36
  -6  -2  -6    3.70    0.82
   6  -2   6    2.09    1.32
  -6  -2  -6    3.92    0.52
   6   2   6    2.28    1.35
  -6   2  -6    3.74    0.97
  -6   2  -6    3.66    0.51
  -7  -2  -6  167.19   10.74
  -7  -2  -6  159.64   10.44
  -7   2  -6  178.22   10.88
  -7   2  -6  180.63   10.42
  -8  -3   6   -0.03    0.33
   8  -3  -6   -0.72    1.67
   8  -3  -6    0.09    0.82
   8  -3  -6    0.38    0.93
  -8  -3   6    0.21    0.39
   8   3  -6   -1.17    1.36
  -8   3   6    0.82    0.45
   8   3  -6    0.40    0.73
  -8   3   6   -0.01    0.92
   7  -3  -6   70.74    4.76
  -7  -3   6   68.97    4.48
  -7  -3   6   73.93    4.43
   7  -3  -6   57.91    6.16
   7   3  -6   80.81    5.87
  -7   3   6   67.70    4.68
  -7   3   6   70.49    4.47
   7   3  -6   68.93    4.85
   6  -3  -6   11.98    1.56
  -6  -3   6   14.47    1.19
  -6  -3   6   14.20    1.12
  -6   3   6   15.18    1.13
   6   3  -6   15.85    1.48
  -6   3   6   14.25    1.32
   5  -3  -6    3.82    0.58
   5  -3  -6    2.68    0.62
   5  -3  -6    4.06    0.79
  -5  -3   6    3.82    0.50
  -5  -3   6    3.64    0.53
   5  -3  -6    3.23    1.17
  -5   3   6    2.77    0.42
   5   3  -6    3.71    0.91
  -5   3   6    2.89    0.55
   5   3  -6    2.02    0.49
   4  -3  -6   31.80    2.03
   4  -3  -6   29.10    2.12
  -4  -3   6   29.79    1.97
   4  -3  -6   31.08    2.22
  -4  -3   6   28.09    1.94
   4  -3  -6   26.61    2.66
   4  -3  -6   29.43    1.87
  -4  -3   6   23.70    2.41
   4   3  -6   30.56    1.96
  -4   3   6   31.92    1.99
  -4   3   6   31.20    2.13
  -4   3   6   28.75    1.88
   4   3  -6   27.84    1.94
  -4   3   6   31.13    1.97
   4   3  -6   29.74    2.04
  -3  -3   6  145.72    9.62
  -3  -3   6  146.54    9.24
   3  -3  -6  142.50    9.65
   3  -3  -6  147.84    9.32
  -3  -3   6  131.22    9.30
   3  -3  -6  156.72    9.30
  -3  -3   6  148.96    9.24
   3  -3  -6  156.11    9.46
   3   3  -6  153.78    9.21
  -3   3   6  163.40    9.19
   3   3  -6  154.31    9.26
   3   3  -6  158.96    9.27
  -3   3   6  160.35    9.26
  -3   3   6  148.89    9.18
  -3   3   6  163.32    9.22
  -3   3   6  160.87    9.39
  -2  -3   6    1.15    0.25
  -2  -3   6    0.85    0.12
  -2  -3   6    1.05    0.19
   2  -3  -6    1.14    0.38
   2  -3  -6    0.71    0.25
  -2  -3   6    0.91    0.21
  -2  -3   6    0.94    0.36
   2  -3  -6    0.82    0.19
  -2  -3   6    0.60    0.19
   2  -3  -6    1.12    0.36
   2   3  -6    0.92    0.14
  -2   3   6    0.76    0.40
  -2   3   6    1.69    0.36
   2   3  -6    1.05    0.24
  -2   3   6    1.00    0.18
  -2   3   6    0.99    0.16
  -2   3   6    0.75    0.14
   2   3  -6    0.88    0.18
  -2   3   6    0.95    0.25
   2   3  -6    1.28    0.40
   2   3  -6    1.21    0.17
  -1  -3   6  317.98   19.05
  -1  -3   6  310.32   18.88
   1  -3  -6  327.24   19.01
  -1  -3   6  330.08   18.85
   1  -3  -6  287.12   18.84
   1  -3  -6  338.71   19.08
  -1  -3   6  308.52   18.87
  -1  -3   6  302.77   18.88
   1  -3  -6  306.14   18.85
  -1   3   6  326.65   18.83
  -1   3   6  353.60   18.99
  -1   3   6  310.84   18.94
   1   3  -6  330.58   18.90
   1   3  -6  297.15   18.79
   1   3  -6  301.69   18.85
   1   3  -6  294.32   18.91
   0  -3  -6   36.63    2.32
   0  -3   6   40.21    2.58
   0  -3   6   36.90    2.33
   0  -3  -6   35.27    2.49
   0  -3   6   40.50    2.36
   0  -3  -6   37.36    2.31
   0  -3   6   32.03    2.26
   0  -3   6   39.46    2.32
   0  -3   6   40.29    2.48
   0  -3  -6   40.26    2.52
   0  -3   6   37.35    2.24
   0   3  -6   30.61    2.49
   0   3  -6   38.36    2.36
   0   3   6   38.01    2.41
   0   3   6   35.80    2.42
   0   3   6   35.01    2.45
   0   3   6   39.52    2.39
   0   3   6   38.63    2.31
   0   3   6   38.74    2.35
   1  -3   6   85.50    5.40
  -1  -3  -6   87.32    5.39
   1  -3   6   88.99    5.64
  -1  -3  -6   90.27    5.54
  -1  -3  -6   86.60    5.41
   1  -3   6   92.97    5.80
   1  -3   6   86.88    5.49
  -1   3  -6   90.59    5.43
   1   3   6   86.53    5.41
   1   3   6   91.30    5.53
  -1   3  -6   99.94    5.69
  -1   3  -6   78.32    5.65
   1   3   6   86.82    5.59
   1   3   6   92.78    5.40
  -1   3  -6   91.70    5.44
   2  -3   6  104.99    6.70
  -2  -3  -6   97.97    6.16
   2  -3   6   91.14    6.23
  -2  -3  -6   99.30    6.07
   2  -3   6  104.92    6.07
  -2  -3  -6  105.04    6.14
   2  -3   6   98.04    6.40
  -2  -3  -6  103.93    6.16
   2  -3   6   96.33    6.01
  -2   3  -6  102.51    6.16
  -2   3  -6  103.79    6.41
   2   3   6  100.87    6.36
  -2   3  -6   94.94    6.41
  -2   3  -6  104.64    6.09
   2   3   6   94.98    6.22
   2   3   6  103.20    6.08
   2   3   6   97.85    6.05
   2   3   6  100.54    6.08
   3  -3   6   44.92    3.08
   3  -3   6   40.63    2.55
  -3  -3  -6   41.66    2.77
  -3  -3  -6   44.80    2.81
  -3  -3  -6   35.78    2.71
  -3  -3  -6   41.72    2.59
   3  -3   6   42.43    2.57
  -3  -3  -6   41.42    2.61
   3  -3   6   33.73    3.24
   3   3   6   39.85    2.95
  -3   3  -6   41.31    3.05
   3   3   6   43.84    2.62
   3   3   6   39.34    2.79
  -3   3  -6   42.36    2.51
   3   3   6   42.78    2.52
   3   3   6   41.92    2.61
  -3   3  -6   41.45    3.01
  -3   3  -6   43.85    2.58
   4  -3   6   31.24    1.86
  -4  -3  -6   29.07    2.31
  -4  -3  -6   27.67    1.78
   4  -3   6   25.60    1.83
  -4  -3  -6   29.40    2.11
  -4  -3  -6   28.13    1.87
   4   3   6   29.51    1.75
   4   3   6   30.41    1.97
  -4   3  -6   28.56    2.34
  -4   3  -6   28.54    1.81
  -4   3  -6   29.38    2.07
  -5  -3  -6  122.74    7.56
  -5  -3  -6  114.04    7.76
   5  -3   6  119.23    7.49
  -5  -3  -6  126.25    8.26
  -5   3  -6  123.50    7.99
  -5   3  -6  131.59    7.86
   5   3   6  132.48    7.75
  -5   3  -6  120.80    7.50
  -5   3  -6  123.64    7.44
  -6  -3  -6    2.27    0.76
   6  -3   6    3.23    0.75
  -6  -3  -6    2.09    0.42
   6  -3   6    1.13    1.29
  -6   3  -6    1.99    0.37
  -6   3  -6    2.17    0.84
   6   3   6    1.77    1.38
   7  -3   6   12.68    3.01
  -7  -3  -6   14.42    1.74
  -7  -3  -6   14.60    1.23
   7   3   6   13.53    3.26
  -7   3  -6   16.03    1.91
   8  -4  -6   34.34    2.85
  -8  -4   6   30.60    2.20
  -8  -4   6   31.98    2.31
  -8   4   6   30.13    2.78
  -8   4   6   30.65    2.31
   8   4  -6   33.93    4.08
   8   4  -6   34.62    2.84
  -7  -4   6   61.71    3.94
   7  -4  -6   65.78    4.36
   7  -4  -6   51.10    5.86
  -7  -4   6   61.77    3.99
  -7   4   6   62.40    4.24
  -7   4   6   61.87    3.98
   7   4  -6   65.47    4.34
   6  -4  -6    1.50    1.38
  -6  -4   6    2.05    0.41
  -6  -4   6    1.84    0.40
   6  -4  -6    1.20    0.71
   6  -4  -6    1.55    0.71
   6   4  -6    1.12    0.77
  -6   4   6    1.05    0.33
  -6   4   6    1.38    0.58
   6   4  -6    1.50    0.64
   5  -4  -6  134.90    9.18
  -5  -4   6  158.12    8.98
   5  -4  -6  156.29    9.23
  -5  -4   6  148.55    8.94
   5  -4  -6  121.94   10.00
   5   4  -6  160.21    9.11
  -5   4   6  151.18    8.90
  -5   4   6  138.75    9.03
   4  -4  -6   96.53    6.23
   4  -4  -6   93.66    6.16
   4  -4  -6  101.62    6.11
  -4  -4   6   94.94    6.00
   4  -4  -6   81.46    6.71
  -4  -4   6  100.31    6.53
  -4  -4   6   97.70    6.00
  -4   4   6   99.12    5.93
   4   4  -6   93.74    6.00
  -4   4   6   99.63    6.05
   4   4  -6  110.79    6.09
  -3  -4   6   75.29    5.25
   3  -4  -6   76.20    5.62
   3  -4  -6   88.71    5.28
  -3  -4   6   79.96    5.56
  -3  -4   6   79.06    5.17
  -3  -4   6   87.83    5.20
   3  -4  -6   87.89    5.29
   3  -4  -6   84.32    5.40
   3   4  -6   87.56    5.20
  -3   4   6   83.89    5.22
  -3   4   6   85.24    5.16
  -3   4   6   83.50    5.11
   3   4  -6   87.82    5.21
   3   4  -6   83.51    5.16
  -3   4   6   84.04    5.12
  -3   4   6   91.34    5.35
   2  -4  -6  234.70   14.00
   2  -4  -6  235.97   13.91
  -2  -4   6  230.25   13.83
  -2  -4   6  219.76   13.75
   2  -4  -6  216.88   13.99
   2  -4  -6  237.49   13.82
  -2  -4   6  213.26   13.69
  -2  -4   6  260.02   14.17
  -2  -4   6  226.03   13.80
  -2  -4   6  209.65   13.77
  -2   4   6  219.38   13.84
  -2   4   6  223.77   13.76
   2   4  -6  228.51   13.80
  -2   4   6  216.14   13.72
   2   4  -6  230.55   13.78
   2   4  -6  230.83   13.73
  -2   4   6  235.02   13.74
  -2   4   6  258.47   13.93
  -1  -4   6    2.06    0.26
   1  -4  -6    1.57    0.38
  -1  -4   6    1.06    0.22
  -1  -4   6    1.28    0.24
  -1  -4   6    1.26    0.34
   1  -4  -6    1.02    0.17
   1  -4  -6    1.90    0.33
  -1  -4   6    1.69    0.44
   1  -4  -6    1.42    0.25
  -1  -4   6    1.93    0.20
   1  -4  -6    1.73    0.47
  -1  -4   6    1.39    0.23
  -1   4   6    1.77    0.21
  -1   4   6    0.87    0.27
   1   4  -6    1.42    0.26
  -1   4   6    2.02    0.35
  -1   4   6    0.85    0.39
   1   4  -6    1.43    0.38
   1   4  -6    1.87    0.15
   0  -4   6   15.83    1.14
   0  -4   6   17.43    1.41
   0  -4   6   15.90    1.24
   0  -4   6   17.68    1.16
   0  -4  -6   16.51    1.10
   0  -4   6   18.44    1.13
   0  -4  -6   16.81    1.14
   0  -4  -6   17.50    1.35
   0  -4  -6   15.79    1.32
   0   4  -6   16.05    1.15
   0   4   6   17.18    1.18
   0   4   6   17.76    1.27
   0   4  -6   14.13    1.37
   0   4   6   18.07    1.11
   0   4  -6   17.66    1.17
   1  -4   6   43.59    3.01
   1  -4   6   43.74    2.81
  -1  -4  -6   44.11    2.81
  -1  -4  -6   42.55    2.96
  -1  -4  -6   44.49    2.79
   1  -4   6   43.89    2.81
   1  -4   6   43.59    3.22
   1  -4   6   47.00    2.90
  -1   4  -6   51.24    3.10
  -1   4  -6   48.27    2.85
   1   4   6   46.42    2.93
   1   4   6   43.58    2.99
  -1   4  -6   39.81    3.11
   1   4   6   46.00    2.82
   1   4   6   47.90    2.80
  -2  -4  -6  140.75    8.49
   2  -4   6  138.28    9.07
   2  -4   6  131.71    8.57
   2  -4   6  132.95    8.70
   2  -4   6  141.94    8.42
  -2  -4  -6  133.83    8.52
  -2  -4  -6  134.99    8.40
  -2   4  -6  140.08    8.76
   2   4   6  141.65    8.67
   2   4   6  140.44    8.42
   2   4   6  140.41    8.40
   2   4   6  141.06    8.57
  -2   4  -6  143.00    8.81
  -2   4  -6  149.63    8.44
   3  -4   6   36.83    2.45
   3  -4   6   40.35    2.34
  -3  -4  -6   36.61    2.52
  -3  -4  -6   40.81    2.55
  -3  -4  -6   37.28    2.44
  -3   4  -6   38.78    2.46
   3   4   6   39.45    2.40
  -3   4  -6   38.86    2.92
   3   4   6   39.06    2.48
   3   4   6   36.53    2.80
  -3   4  -6   41.74    2.58
  -4  -4  -6  293.34   20.74
  -4  -4  -6  296.19   20.65
   4  -4   6  334.77   20.55
  -4  -4  -6  343.80   20.55
   4  -4   6  323.88   20.48
  -4  -4  -6  372.00   20.91
  -4   4  -6  370.84   20.77
   4   4   6  379.52   20.66
  -4   4  -6  333.62   21.19
  -4   4  -6  343.75   20.53
  -4   4  -6  365.09   20.48
   4   4   6  340.74   20.99
   4   4   6  356.40   20.47
   5  -4   6    1.56    1.14
   5  -4   6    2.21    0.68
   5  -4   6    3.24    0.45
   5  -4   6    3.26    0.40
  -5  -4  -6    3.28    0.46
  -5  -4  -6    3.29    0.90
  -5   4  -6    3.36    0.43
   5   4   6    3.82    1.06
   5   4   6    2.81    0.26
  -5   4  -6    3.02    0.41
  -5   4  -6    3.14    0.91
  -5   4  -6    3.75    0.66
   5   4   6    3.56    0.60
   5   4   6    1.81    1.21
  -6  -4  -6  123.00    7.29
  -6   4  -6  121.71    7.19
  -6   4  -6  129.96    7.83
   6   4   6  105.84    7.88
   6   4   6  108.84    8.45
  -7  -4  -6   16.27    1.37
   7   4   6   16.36    3.41
  -7   4  -6   17.90    2.11
   7   4   6   13.98    2.20
  -8  -5   6    5.40    0.79
   8  -5  -6   10.15    1.55
  -8  -5   6    5.05    0.74
   8  -5  -6    5.31    2.72
   8  -5  -6    3.72    1.33
  -8   5   6    7.46    1.38
  -8   5   6    6.75    0.86
   8   5  -6    9.28    1.57
   8   5  -6    7.44    2.19
   7  -5  -6    4.56    1.28
   7  -5  -6    4.30    2.14
   7  -5  -6    4.41    1.10
  -7  -5   6    5.80    0.79
  -7  -5   6    5.43    0.72
   7   5  -6    6.92    1.81
  -7   5   6    4.85    1.00
   7   5  -6    5.81    1.11
  -7   5   6    4.61    0.67
   6  -5  -6  114.49    8.54
   6  -5  -6  130.60    8.49
  -6  -5   6  129.40    8.18
  -6  -5   6  132.17    8.20
   6   5  -6  151.61    8.44
  -6   5   6  138.39    8.38
  -6   5   6  134.59    8.15
   5  -5  -6    1.17    1.13
  -5  -5   6    1.64    0.39
  -5  -5   6    1.27    0.39
   5  -5  -6    1.59    0.65
  -5   5   6    1.48    0.29
   5   5  -6    1.40    0.38
  -5   5   6    1.80    0.67
   5   5  -6    2.40    1.07
  -4  -5   6  219.32   13.32
   4  -5  -6  211.15   13.47
   4  -5  -6  219.22   13.54
  -4  -5   6  218.96   13.29
   4   5  -6  237.66   13.37
   4   5  -6  197.21   13.31
  -4   5   6  223.80   13.23
  -4   5   6  231.81   13.40
  -3  -5   6   23.01    1.43
  -3  -5   6   19.34    1.44
   3  -5  -6   22.54    1.73
   3  -5  -6   22.93    1.58
  -3  -5   6   20.67    1.72
   3  -5  -6   19.98    1.97
  -3  -5   6   21.11    1.48
  -3  -5   6   19.65    1.86
   3   5  -6   21.81    1.47
   3   5  -6   20.53    1.45
  -3   5   6   20.25    1.37
  -3   5   6   21.22    1.53
  -2  -5   6   20.87    1.47
   2  -5  -6   19.40    1.63
  -2  -5   6   23.58    1.79
  -2  -5   6   20.64    1.33
  -2  -5   6   20.50    1.43
  -2  -5   6   20.46    1.32
   2  -5  -6   17.59    1.55
  -2  -5   6   20.47    1.40
   2  -5  -6   19.44    1.65
  -2  -5   6   21.30    1.62
   2  -5  -6   21.81    1.46
  -2   5   6   22.35    1.35
   2   5  -6   21.10    1.41
  -2   5   6   20.39    1.34
   2   5  -6   21.12    1.36
  -2   5   6   20.47    1.54
  -2   5   6   21.81    1.51
   2   5  -6   21.63    1.46
   2   5  -6   16.67    1.51
   1  -5  -6   21.50    1.35
  -1  -5   6   20.14    1.34
   1  -5  -6   20.87    1.56
  -1  -5   6   18.94    1.32
   1  -5  -6   20.21    1.54
  -1  -5   6   16.94    1.29
  -1  -5   6   20.92    1.58
  -1  -5   6   20.40    1.35
   1  -5  -6   20.17    1.29
  -1   5   6   16.85    1.42
   1   5  -6   19.26    1.22
  -1   5   6   19.63    1.44
  -1   5   6   21.16    1.42
   1   5  -6   20.39    1.37
   1   5  -6   15.03    1.52
  -1   5   6   20.91    1.28
   0  -5  -6  108.51    6.91
   0  -5   6  115.63    6.96
   0  -5  -6  106.80    7.09
   0  -5   6  109.46    6.90
   0  -5  -6  115.37    6.87
   0  -5   6  114.39    6.94
   0  -5   6  113.54    6.90
   0  -5  -6  108.94    6.88
   0  -5   6  115.66    7.25
   0  -5  -6  116.21    7.10
   0   5   6  116.92    6.86
   0   5   6  113.24    7.02
   0   5  -6  109.09    6.93
   0   5   6  116.09    6.94
   0   5  -6  123.14    6.95
   1  -5   6    6.16    0.51
   1  -5   6    5.30    0.92
  -1  -5  -6    5.53    0.48
   1  -5   6    6.84    0.61
  -1  -5  -6    5.74    0.50
   1  -5   6    5.21    0.53
  -1  -5  -6    5.98    0.77
   1  -5   6    6.30    0.79
  -1   5  -6    6.26    0.59
   1   5   6    5.65    0.50
  -1   5  -6    5.58    0.75
   1   5   6    6.03    0.53
  -1   5  -6    5.11    0.93
   1   5   6    6.29    0.71
   1   5   6    6.30    0.74
  -1   5  -6    6.71    0.57
   2  -5   6  195.56   12.29
   2  -5   6  189.66   12.73
  -2  -5  -6  193.51   12.00
   2  -5   6  202.74   12.04
  -2  -5  -6  195.12   12.15
  -2   5  -6  213.46   12.07
   2   5   6  202.44   12.26
   2   5   6  203.18   12.00
  -2   5  -6  213.62   12.11
  -2   5  -6  184.59   12.40
  -3  -5  -6   33.56    2.12
   3  -5   6   28.49    2.30
   3  -5   6   26.69    2.92
  -3  -5  -6   29.83    2.19
   3  -5   6   33.78    2.11
  -3  -5  -6   32.92    2.23
  -3   5  -6   32.20    2.12
   3   5   6   31.13    2.38
  -3   5  -6   33.65    2.65
  -3   5  -6   35.08    2.21
   3   5   6   33.68    2.11
   3   5   6   33.32    2.45
   3   5   6   34.80    2.04
   4  -5   6    8.92    1.96
  -4  -5  -6   12.20    1.03
   4  -5   6   10.03    1.23
   4  -5   6   12.84    0.76
  -4  -5  -6   10.83    1.12
  -4  -5  -6   11.82    0.92
   4  -5   6   12.09    0.96
   4   5   6   11.30    1.48
  -4   5  -6   12.70    1.63
   4   5   6   11.32    1.48
  -4   5  -6   11.48    0.96
   4   5   6   13.61    0.99
   4   5   6   12.89    0.84
  -4   5  -6   13.65    1.11
  -5  -5  -6   36.13    2.47
   5  -5   6   41.33    2.54
  -5  -5  -6   40.55    2.52
   5   5   6   34.67    3.25
  -5   5  -6   39.23    2.39
  -5   5  -6   37.86    3.10
   5   5   6   37.45    3.12
  -6  -5  -6   44.02    2.81
  -6   5  -6   44.48    3.49
   6   5   6   37.11    3.59
   6   5   6   41.66    3.93
  -7  -5  -6    8.92    1.08
   7   5   6    6.79    1.74
   7  -6  -6    5.58    1.33
   7  -6  -6    4.73    1.37
   7  -6  -6    7.85    2.75
  -7  -6   6    7.20    0.98
  -7  -6   6    6.14    0.81
   7   6  -6    9.29    1.29
  -7   6   6    5.95    1.19
  -7   6   6    8.21    0.89
   7   6  -6   10.50    2.27
   6  -6  -6   12.94    1.58
  -6  -6   6    9.77    1.02
  -6  -6   6    9.89    1.04
   6  -6  -6   12.28    1.59
   6  -6  -6    7.67    2.39
  -6   6   6   12.05    0.98
   6   6  -6   11.47    1.22
  -6   6   6   10.41    1.41
   5  -6  -6   18.41    2.98
  -5  -6   6   21.34    1.80
   5  -6  -6   24.26    2.08
  -5  -6   6   25.07    1.77
   5  -6  -6   23.60    2.07
  -5   6   6   24.06    1.99
  -5   6   6   25.04    1.64
   5   6  -6   28.03    1.89
   4  -6  -6   24.02    2.00
  -4  -6   6   24.08    1.74
  -4  -6   6   23.61    1.64
   4   6  -6   27.17    1.78
  -4   6   6   21.62    1.62
   4   6  -6   24.23    1.79
  -4   6   6   26.80    1.89
  -4   6   6   24.23    2.87
   3  -6  -6    1.20    0.37
   3  -6  -6   -0.50    0.70
  -3  -6   6    0.73    0.21
  -3  -6   6    1.04    0.21
  -3  -6   6    0.68    0.26
   3  -6  -6    0.73    0.69
   3   6  -6    0.35    0.20
   3   6  -6    1.31    0.65
  -3   6   6    0.37    0.17
  -3   6   6    0.00    0.72
  -3   6   6    0.72    0.43
   3   6  -6    0.28    0.28
   3   6  -6    0.21    0.37
   2  -6  -6  139.86    9.15
   2  -6  -6  141.03    9.17
   2  -6  -6  145.32    9.01
  -2  -6   6  167.83    9.42
  -2  -6   6  152.35    9.23
  -2  -6   6  152.93    8.99
  -2  -6   6  150.56    8.90
  -2  -6   6  136.95    8.97
  -2  -6   6  127.81    8.84
   2   6  -6  156.59    8.92
  -2   6   6  151.61    8.89
  -2   6   6  145.93    9.06
   1  -6  -6   75.20    4.73
  -1  -6   6   79.79    4.70
   1  -6  -6   78.09    4.95
  -1  -6   6   74.91    4.73
   1  -6  -6   78.29    4.67
  -1  -6   6   71.44    4.57
  -1  -6   6   78.16    4.74
  -1  -6   6   79.52    5.03
   1   6  -6   64.48    4.90
   1   6  -6   80.84    4.60
  -1   6   6   75.57    4.83
   0  -6  -6   93.93    5.90
   0  -6   6  100.43    6.32
   0  -6   6   94.26    5.92
   0  -6   6   92.15    5.89
   0  -6  -6   98.87    6.10
   0  -6   6  103.31    5.94
   0  -6  -6   94.08    5.83
   0   6   6   93.08    5.90
   0   6   6  101.06    6.02
   0   6  -6   86.98    6.17
   1  -6   6  162.27    9.71
  -1  -6  -6  154.58    9.62
   1  -6   6  162.96   10.20
   1  -6   6  154.99    9.60
  -1  -6  -6  155.57    9.77
  -1  -6  -6  151.86    9.54
   1  -6   6  169.95    9.70
   1   6   6  155.12    9.58
   1   6   6  160.99    9.75
  -1   6  -6  170.17    9.67
  -1   6  -6  140.34    9.92
   2  -6   6    3.95    0.54
  -2  -6  -6    5.35    0.53
   2  -6   6    4.88    0.66
   2  -6   6    3.39    1.00
  -2  -6  -6    3.67    0.64
  -2   6  -6    5.22    1.06
   2   6   6    4.31    0.49
  -2   6  -6    4.91    0.73
  -2   6  -6    5.45    0.58
   2   6   6    4.08    0.69
   3  -6   6   53.20    4.79
   3  -6   6   57.08    4.08
  -3  -6  -6   62.04    3.98
  -3  -6  -6   57.13    3.97
   3  -6   6   60.14    3.87
  -3  -6  -6   63.68    3.82
  -3   6  -6   65.82    4.44
   3   6   6   65.91    3.81
   3   6   6   64.94    4.18
  -3   6  -6   65.28    3.97
  -4  -6  -6   27.66    2.05
   4  -6   6   25.44    2.31
  -4  -6  -6   28.68    1.92
   4  -6   6   27.68    1.98
   4   6   6   32.18    1.87
   4   6   6   29.98    2.43
  -4   6  -6   30.90    2.62
   5  -6   6    5.40    0.71
  -5  -6  -6    4.87    0.64
   5   6   6    4.96    1.16
  -5   6  -6    4.28    1.25
  -6  -6  -6   20.70    1.55
   6   6   6   18.53    2.44
  -6   6  -6   20.56    2.45
   6  -7  -6    2.97    2.01
   6  -7  -6    1.54    0.88
   6  -7  -6    2.69    1.02
  -6  -7   6    3.26    0.58
  -6  -7   6    4.18    0.67
   6   7  -6    4.87    0.85
  -6   7   6    3.90    0.56
  -6   7   6    3.52    0.99
  -5  -7   6    0.76    0.34
   5  -7  -6    1.00    0.67
   5  -7  -6    0.37    0.75
  -5  -7   6    0.81    0.44
  -5   7   6    0.42    0.27
   5   7  -6    0.27    0.42
   5   7  -6   -0.07    0.77
  -5   7   6    0.26    0.68
   4  -7  -6    4.01    0.85
   4  -7  -6    4.60    0.82
  -4  -7   6    3.25    0.47
  -4  -7   6    4.19    0.63
   4  -7  -6    2.99    1.28
  -4   7   6    3.26    1.31
  -4   7   6    2.97    0.71
   4   7  -6    4.35    0.64
  -4   7   6    3.27    0.46
   3  -7  -6  143.61    9.39
  -3  -7   6  157.43    9.01
   3  -7  -6  155.10    9.27
  -3  -7   6  155.02    9.17
   3  -7  -6  126.30    9.59
  -3  -7   6  159.29    9.43
  -3  -7   6  135.76    9.10
  -3  -7   6  145.61    9.17
  -3   7   6  158.80    9.28
   3   7  -6  166.06    9.20
  -3   7   6  161.95    9.64
   3   7  -6  137.64    9.19
  -3   7   6  152.26    9.04
   3   7  -6  136.57    9.12
  -2  -7   6   22.22    1.63
  -2  -7   6   24.89    1.62
  -2  -7   6   22.24    1.42
  -2  -7   6   24.89    1.90
  -2  -7   6   24.19    1.55
   2  -7  -6   21.67    1.93
   2  -7  -6   21.41    1.78
   2  -7  -6   20.81    1.85
   2   7  -6   23.44    1.54
  -2   7   6   24.33    1.73
  -2   7   6   21.22    1.61
   2   7  -6   17.23    1.85
  -1  -7   6  186.32   11.59
  -1  -7   6  195.47   11.95
  -1  -7   6  181.17   11.39
   1  -7  -6  188.67   11.55
   1  -7  -6  187.20   11.50
   1  -7  -6  185.95   11.87
  -1  -7   6  213.92   11.57
   1  -7  -6  196.83   11.61
  -1  -7   6  184.00   11.58
  -1   7   6  200.35   11.70
   1   7  -6  200.30   11.44
   1   7  -6  167.88   11.78
   0  -7   6   53.40    3.32
   0  -7   6   56.65    3.35
   0  -7  -6   52.21    3.32
   0  -7   6   53.41    3.79
   0  -7  -6   49.65    3.51
   0  -7  -6   51.78    3.26
   0  -7   6   48.66    3.32
   0   7   6   49.93    3.41
   0   7  -6   45.14    3.64
  -1  -7  -6   12.34    0.95
  -1  -7  -6   12.19    0.90
   1  -7   6   12.42    1.68
  -1  -7  -6   13.91    1.32
   1  -7   6   12.72    1.07
  -1   7  -6   11.55    1.02
  -1   7  -6   11.42    1.57
   1   7   6   13.32    1.21
  -2  -7  -6   43.42    2.90
  -2  -7  -6   45.73    3.19
  -2  -7  -6   47.95    3.05
   2  -7   6   45.64    3.14
  -2  -7  -6   49.19    3.03
   2  -7   6   45.43    3.86
  -2   7  -6   47.56    3.06
  -2   7  -6   39.90    3.60
   2   7   6   48.24    3.21
   3  -7   6   65.70    4.29
  -3  -7  -6   55.94    4.03
   3  -7   6   52.52    4.92
  -3  -7  -6   62.54    3.82
  -3   7  -6   63.93    4.51
   3   7   6   66.81    4.20
   4  -7   6    1.11    1.28
  -4  -7  -6    2.93    0.43
  -4  -7  -6    2.53    0.64
   4  -7   6    2.61    0.57
   4   7   6    2.99    0.85
  -4   7  -6    3.97    1.23
   5  -7   6   78.75    5.06
  -5  -7  -6   77.52    4.95
  -5   7  -6   79.21    5.70
   5   7   6   81.06    5.50
   6  -8  -6    1.36    1.02
  -6  -8   6    0.77    0.46
  -6  -8   6    0.43    0.60
   6  -8  -6    0.14    2.01
   6  -8  -6    0.59    0.93
  -6   8   6    1.36    0.45
   6   8  -6    1.47    1.26
   6   8  -6    0.71    0.61
  -6   8   6    0.58    0.92
  -5  -8   6  101.19    6.71
   5  -8  -6   98.29    7.00
   5  -8  -6   99.43    7.01
  -5  -8   6  112.72    6.57
   5   8  -6  119.14    6.81
  -5   8   6  111.37    6.56
  -5   8   6  100.91    6.96
   4  -8  -6    5.35    1.09
  -4  -8   6    6.66    0.90
   4  -8  -6    5.60    1.11
  -4  -8   6    6.83    0.62
  -4  -8   6    7.15    1.08
   4  -8  -6    4.62    1.58
  -4   8   6    6.34    1.00
  -4   8   6    5.87    0.63
   4   8  -6    6.70    0.86
  -3  -8   6   63.01    3.98
   3  -8  -6   67.30    4.31
  -3  -8   6   66.65    4.22
   3  -8  -6   57.94    4.43
  -3  -8   6   68.68    4.49
  -3   8   6   66.97    4.03
  -3   8   6   67.48    4.35
   3   8  -6   60.46    4.34
   2  -8  -6   28.05    1.93
  -2  -8   6   24.24    1.92
  -2  -8   6   26.31    1.80
  -2  -8   6   26.75    1.60
   2  -8  -6   25.35    1.93
  -2  -8   6   24.60    1.85
  -2  -8   6   25.82    2.65
   2  -8  -6   22.57    2.13
  -2   8   6   26.58    1.68
  -2   8   6   25.51    1.98
   2   8  -6   21.06    2.19
   1  -8  -6    0.49    0.61
  -1  -8   6    0.24    0.39
  -1  -8   6    0.58    0.12
   1  -8  -6    0.30    0.34
  -1  -8   6    0.84    0.40
  -1  -8   6    0.87    0.35
   1  -8  -6    0.09    0.21
   1   8  -6    0.31    0.82
  -1   8   6    0.97    0.49
   0  -8   6    5.96    0.71
   0  -8  -6    6.25    0.58
   0  -8  -6    6.93    0.76
   0  -8  -6    5.26    0.88
   0  -8   6    5.99    1.29
   0  -8   6    6.41    0.76
   0   8   6    6.23    0.93
   0   8  -6    6.16    1.13
   1  -8   6   56.37    4.56
  -1  -8  -6   61.25    3.85
   1  -8   6   63.38    3.93
   1  -8   6   59.02    3.83
  -1  -8  -6   57.20    3.69
  -1  -8  -6   54.13    4.03
   1   8   6   62.27    4.00
  -1   8  -6   62.55    4.79
   2  -8   6    7.28    1.87
  -2  -8  -6    9.22    0.99
  -2  -8  -6    7.31    1.05
   2  -8   6    8.29    0.94
  -2  -8  -6    8.35    0.72
  -2   8  -6   11.76    1.63
   2   8   6    8.29    1.18
   3  -8   6   41.05    4.37
  -3  -8  -6   47.35    3.42
  -3  -8  -6   50.59    3.12
   3  -8   6   49.33    3.26
  -3   8  -6   52.53    3.95
   3   8   6   53.39    3.52
  -4  -8  -6   54.35    3.64
  -4  -8  -6   55.61    3.91
   4  -8   6   59.11    3.83
  -4   8  -6   58.06    4.55
   4   8   6   62.25    4.16
   5  -8   6    0.53    1.73
   5  -8   6   -0.51    0.67
  -5  -8  -6   -0.06    0.34
  -5   8  -6    0.95    1.33
   5   8   6   -0.41    1.00
  -4  -9   6   80.16    5.38
  -4  -9   6   75.78    5.10
   4  -9  -6   75.62    5.42
  -4  -9   6   77.84    4.82
   4  -9  -6   76.87    5.30
  -4   9   6   78.70    4.87
  -4   9   6   85.15    5.36
   3  -9  -6   23.99    1.99
  -3  -9   6   24.56    2.19
   3  -9  -6   20.75    2.24
  -3  -9   6   23.86    1.54
  -3  -9   6   24.29    1.91
  -3   9   6   24.12    1.61
  -3   9   6   23.46    2.11
   2  -9  -6    2.41    0.57
  -2  -9   6    0.95    0.48
   2  -9  -6    1.54    0.78
  -2  -9   6    1.59    0.74
  -2   9   6    2.06    0.33
   2   9  -6    0.23    1.02
  -2   9   6    2.31    0.72
   1  -9  -6   11.73    1.13
  -1  -9   6    9.10    1.56
   1  -9  -6   10.28    1.54
  -1  -9   6   10.45    1.10
  -1   9   6   10.50    1.26
   1   9  -6   10.53    1.56
  -1   9   6   11.38    0.84
   0  -9  -6   60.98    3.91
   0  -9  -6   56.94    3.72
   0  -9   6   59.74    4.59
   0  -9   6   57.94    3.88
   0  -9  -6   56.80    4.16
   0   9  -6   63.44    4.46
   0   9   6   62.05    4.05
   1  -9   6    8.53    0.96
  -1  -9  -6    7.94    0.73
  -1  -9  -6    7.48    0.98
  -1  -9  -6    8.51    1.21
   1  -9   6    7.22    1.84
   1   9   6    6.63    1.01
  -1   9  -6    9.17    1.49
  -2  -9  -6   57.57    3.62
  -2  -9  -6   46.21    3.78
   2  -9   6   45.80    4.62
  -2  -9  -6   55.51    3.39
   2  -9   6   53.31    3.56
   2   9   6   58.63    3.79
  -2   9  -6   57.00    4.28
  -3  -9  -6   33.10    2.97
  -3  -9  -6   39.46    2.57
  -3  -9  -6   38.54    2.82
   3  -9   6   40.94    2.82
  -3   9  -6   44.91    3.71
   3   9   6   41.13    3.06
   3 -10  -6    2.88    0.81
  -3 -10   6    1.77    0.91
  -3 -10   6    1.99    0.82
  -3  10   6    1.90    0.39
  -2 -10   6   76.27    5.32
   2 -10  -6   63.40    5.04
  -2 -10   6   67.58    4.76
   2 -10  -6   75.09    4.85
  -2  10   6   75.93    4.51
  -2  10   6   74.63    4.94
   1 -10  -6    2.58    0.68
   1 -10  -6    4.64    1.14
  -1 -10   6    2.37    0.70
  -1 -10   6    3.20    1.14
  -1  10   6    2.67    0.41
  -1  10   6    2.03    0.81
   1  10  -6    3.67    1.41
   0 -10  -6   43.00    3.66
   0 -10   6   47.48    4.21
   0 -10   6   47.69    3.34
   0 -10  -6   49.89    3.36
   0 -10  -6   48.40    3.13
   0  10  -6   53.16    4.10
   0  10   6   54.16    3.55
  -1 -10  -6   20.28    1.69
  -1 -10  -6   18.22    1.38
   1 -10   6   20.15    1.69
  -1 -10  -6   18.65    2.09
   1 -10   6   14.96    2.67
   1  10   6   18.31    1.90
  -1  10  -6   22.95    2.70
  -2 -10  -6    0.70    0.89
   2 -10   6    0.81    1.53
  -2 -10  -6    0.26    0.35
   2 -10   6   -0.04    0.59
  -2 -10  -6    0.61    0.54
  -2  10  -6    0.91    1.35
   2  10   6    1.43    0.87
   8   0  -7    0.35    1.53
  -8   0   7   -0.08    0.31
  -8   0   7    0.02    0.42
   8   0  -7    0.81    0.83
  -7   0   7   -0.29    0.31
  -7   0   7    0.10    0.33
   7   0  -7    1.19    0.71
   7   0  -7    0.85    1.18
  -7   0   7   -0.55    0.43
  -6   0   7    0.48    0.37
  -6   0   7    0.26    0.30
   6   0  -7    0.25    0.47
   6   0  -7    0.47    0.76
   6   0  -7    0.67    0.34
  -6   0   7    0.46    0.32
  -5   0   7    0.03    0.26
   5   0  -7    0.14    0.56
  -5   0   7    0.23    0.23
   5   0  -7   -0.18    0.35
  -5   0   7   -0.46    0.22
   5   0  -7    0.16    0.25
  -4   0   7    0.12    0.16
   4   0  -7    0.00    0.14
   4   0  -7    0.26    0.19
  -4   0   7    0.56    0.41
  -4   0   7    0.09    0.25
  -4   0   7    0.26    0.52
  -4   0   7    0.32    0.21
  -4   0   7    0.51    0.20
   4   0  -7   -0.09    0.30
   4   0  -7    0.29    0.42
  -3   0   7    0.24    0.17
  -3   0   7    0.01    0.18
   3   0  -7    0.16    0.11
  -3   0   7    0.00    0.12
  -3   0   7   -0.41    0.31
  -3   0   7    0.13    0.13
  -3   0   7    0.16    0.33
   3   0  -7   -0.14    0.16
   3   0  -7   -0.06    0.26
   3   0  -7    0.38    0.25
  -2   0   7    0.15    0.24
   2   0  -7    0.20    0.18
   2   0  -7    0.21    0.08
  -2   0   7    0.30    0.32
  -2   0   7    0.31    0.10
  -2   0   7    0.34    0.13
  -2   0   7    0.19    0.16
  -2   0   7    0.24    0.15
   2   0  -7    0.60    0.29
   1   0  -7    0.57    0.28
  -1   0   7    0.17    0.14
  -1   0   7    0.19    0.19
  -1   0   7   -0.07    0.18
  -1   0   7   -0.02    0.06
   1   0  -7    0.06    0.08
  -1   0   7    0.19    0.08
  -1   0   7    0.29    0.27
   0   0   7   -0.15    0.20
   0   0   7    0.28    0.24
   0   0  -7    0.15    0.16
   0   0   7    0.16    0.15
   0   0   7    0.02    0.12
   0   0  -7    0.08    0.08
   0   0   7    0.13    0.19
  -1   0  -7    0.31    0.19
   1   0   7   -0.05    0.26
  -1   0  -7    0.52    0.10
   1   0   7    0.42    0.26
  -1   0  -7    0.05    0.21
  -1   0  -7    0.09    0.16
   1   0   7    0.28    0.08
   1   0   7    0.35    0.11
   1   0   7    0.32    0.19
   1   0   7    0.72    0.30
   2   0   7    0.72    0.38
   2   0   7    0.21    0.14
  -2   0  -7   -0.01    0.24
   2   0   7    0.28    0.33
  -2   0  -7    0.39    0.31
   2   0   7    0.76    0.11
   2   0   7    0.30    0.14
  -2   0  -7    0.19    0.22
  -2   0  -7    0.52    0.11
  -3   0  -7    0.01    0.35
   3   0   7    0.52    0.48
  -3   0  -7    0.22    0.38
   3   0   7    0.03    0.43
   3   0   7    0.05    0.21
   3   0   7    0.04    0.13
  -3   0  -7   -0.26    0.27
  -3   0  -7    0.05    0.10
  -4   0  -7    0.54    0.46
  -4   0  -7    0.28    0.36
   4   0   7    0.13    0.58
   4   0   7    0.65    0.23
   4   0   7    0.84    0.34
  -4   0  -7    0.35    0.55
  -4   0  -7    0.32    0.17
   5   0   7   -0.40    0.74
  -5   0  -7   -0.30    0.53
  -5   0  -7    0.04    0.20
   5   0   7    0.38    0.46
  -5   0  -7    0.59    0.57
  -6   0  -7    1.04    0.72
   6   0   7    0.96    1.08
  -6   0  -7    0.30    0.31
  -7   0  -7    1.25    0.94
   7   0   7    1.10    1.55
   8  -1  -7   39.87    4.65
  -8  -1   7   38.27    2.66
  -8  -1   7   40.19    2.54
   8  -1  -7   36.28    3.24
   8   1  -7   32.40    4.20
   8   1  -7   44.17    3.28
  -8   1   7   37.57    2.75
  -8   1   7   37.59    2.54
  -8   1   7   34.83    2.64
  -7  -1   7    0.70    0.35
   7  -1  -7    0.16    0.67
   7  -1  -7   -0.51    1.04
  -7  -1   7    0.65    0.37
  -7  -1   7    1.53    0.36
  -7   1   7    0.75    0.39
   7   1  -7    0.66    0.63
   7   1  -7    0.48    0.97
  -7   1   7    1.13    0.38
  -7   1   7    0.97    0.56
   6  -1  -7   87.34    4.88
  -6  -1   7   71.79    4.85
   6  -1  -7   75.01    5.99
   6  -1  -7   65.50    5.16
  -6  -1   7   77.56    4.81
  -6   1   7   75.00    4.83
   6   1  -7   72.74    5.17
   6   1  -7   84.60    4.72
   6   1  -7   83.44    5.89
  -6   1   7   76.78    4.83
  -6   1   7   77.18    4.87
   5  -1  -7   59.86    3.88
   5  -1  -7   59.22    3.61
  -5  -1   7   55.74    3.60
  -5  -1   7   53.00    3.60
   5  -1  -7   55.45    4.38
  -5   1   7   61.07    3.61
   5   1  -7   56.06    3.48
  -5   1   7   59.21    3.59
   5   1  -7   62.00    4.33
   5   1  -7   48.25    3.82
  -4  -1   7   37.95    2.23
   4  -1  -7   35.13    2.84
  -4  -1   7   35.81    2.35
   4  -1  -7   36.10    2.58
  -4  -1   7   38.30    2.21
  -4  -1   7   30.96    2.48
  -4  -1   7   29.84    2.84
  -4  -1   7   37.11    2.34
  -4  -1   7   36.48    2.55
   4  -1  -7   38.81    2.35
   4   1  -7   39.99    2.31
  -4   1   7   37.41    2.53
  -4   1   7   36.89    2.30
   4   1  -7   30.33    2.47
  -4   1   7   39.61    2.40
  -4   1   7   35.99    2.30
  -3  -1   7  136.69    9.74
   3  -1  -7  164.53    9.70
  -3  -1   7  162.81    9.65
  -3  -1   7  143.47    9.68
  -3  -1   7  160.69    9.60
   3  -1  -7  155.90    9.89
  -3  -1   7  155.39    9.57
  -3  -1   7  165.76    9.87
   3  -1  -7  175.57   10.07
   3  -1  -7  163.43    9.62
   3   1  -7  166.29    9.62
  -3   1   7  173.21    9.64
  -3   1   7  163.17    9.64
  -3   1   7  159.71    9.63
   3   1  -7  152.90    9.75
   2  -1  -7   11.81    0.91
  -2  -1   7   12.04    0.83
  -2  -1   7   11.33    0.79
  -2  -1   7   11.29    0.82
  -2  -1   7   12.60    1.05
  -2  -1   7   12.72    1.13
   2  -1  -7   10.40    0.86
  -2  -1   7   11.85    0.87
  -2  -1   7   10.72    0.79
  -2  -1   7   12.37    0.75
  -2   1   7   10.83    1.12
   2   1  -7   11.81    0.83
   2   1  -7   12.21    0.77
  -2   1   7   12.33    0.79
  -2   1   7   11.23    0.99
  -2   1   7   11.41    0.83
  -2   1   7   11.54    0.78
  -1  -1   7  166.99   10.22
   1  -1  -7  148.48   10.30
   1  -1  -7  163.19   10.09
  -1  -1   7  176.98   10.33
  -1  -1   7  164.35   10.10
  -1  -1   7  156.86   10.12
  -1  -1   7  159.40   10.16
  -1   1   7  177.71   10.20
  -1   1   7  178.81   10.23
  -1   1   7  167.33   10.11
  -1   1   7  153.48   10.26
  -1   1   7  195.06   10.43
  -1   1   7  177.15   10.11
   1   1  -7  173.93   10.09
   1   1  -7  170.47   10.15
   0  -1  -7   80.90    4.60
   0  -1  -7   72.72    4.78
   0  -1   7   75.04    4.61
   0  -1   7   74.02    4.81
   0  -1   7   73.66    4.67
   0  -1  -7   78.28    4.64
   0  -1   7   78.70    4.83
   0  -1   7   76.25    4.84
   0  -1   7   77.26    4.61
   0   1   7   78.94    4.78
   0   1   7   76.70    4.76
   0   1   7   78.16    4.63
   0   1  -7   72.97    4.74
   0   1  -7   78.14    4.62
   0   1   7   76.05    4.81
   0   1   7   79.67    4.77
   1  -1   7   26.58    1.93
  -1  -1  -7   30.44    1.80
  -1  -1  -7   28.87    1.89
  -1  -1  -7   27.80    1.93
   1  -1   7   27.76    1.80
   1  -1   7   30.32    1.76
   1  -1   7   27.26    1.80
   1  -1   7   28.67    1.78
   1  -1   7   26.45    2.06
   1  -1   7   29.62    2.13
  -1   1  -7   29.62    1.85
   1   1   7   31.42    1.88
   1   1   7   29.55    1.98
  -1   1  -7   32.65    2.05
  -1   1  -7   28.07    1.78
   1   1   7   30.47    2.07
  -1   1  -7   26.00    1.97
   1   1   7   30.16    1.80
  -2  -1  -7   17.22    1.09
   2  -1   7   14.41    1.21
  -2  -1  -7   17.71    1.31
   2  -1   7   17.07    1.07
   2  -1   7   17.74    1.08
  -2  -1  -7   18.79    1.32
   2  -1   7   18.07    1.51
   2  -1   7   17.00    1.18
   2  -1   7   15.57    1.56
  -2   1  -7   17.33    1.39
  -2   1  -7   16.57    1.07
   2   1   7   16.67    1.07
   2   1   7   15.29    1.49
   2   1   7   16.25    1.34
  -2   1  -7   17.60    1.39
  -2   1  -7   17.70    1.25
   2   1   7   17.44    1.10
   2   1   7   17.24    1.09
   3  -1   7    1.57    0.15
   3  -1   7    0.88    0.32
   3  -1   7    0.34    0.60
  -3  -1  -7    2.32    0.49
   3  -1   7    0.62    0.55
  -3  -1  -7    1.41    0.42
   3  -1   7    1.79    0.25
  -3  -1  -7    1.46    0.22
   3  -1   7    1.83    0.26
  -3   1  -7    2.10    0.55
   3   1   7    0.71    0.51
   3   1   7    0.93    0.51
  -3   1  -7    1.19    0.51
   3   1   7    1.64    0.27
  -3   1  -7    1.33    0.20
   3   1   7    1.59    0.24
  -3   1  -7    1.27    0.36
   4  -1   7    1.21    0.43
  -4  -1  -7    0.72    0.39
   4  -1   7    1.35    0.27
   4  -1   7    0.38    0.60
  -4  -1  -7    2.06    0.67
  -4  -1  -7    1.60    0.53
  -4  -1  -7    1.11    0.24
  -4   1  -7    1.32    0.45
  -4   1  -7    1.35    0.22
   4   1   7    0.99    0.31
   4   1   7    0.40    0.67
  -4   1  -7    1.91    0.64
   4   1   7    0.66    0.27
   5  -1   7    0.68    0.50
  -5  -1  -7    0.24    0.22
   5  -1   7    0.48    0.34
  -5  -1  -7    0.13    0.54
   5  -1   7    0.05    1.34
  -5   1  -7    0.28    0.22
   5   1   7    0.51    0.39
   5   1   7    0.18    0.81
  -5   1  -7    1.20    0.63
  -5   1  -7    0.42    0.44
   6  -1   7    1.08    1.19
  -6  -1  -7    1.52    0.78
  -6  -1  -7    0.53    0.32
  -6   1  -7    1.00    0.78
  -6   1  -7    1.45    0.33
   6   1   7    0.55    1.20
  -7  -1  -7    2.30    0.94
  -7  -1  -7    3.66    0.57
   7  -1   7    2.08    1.61
  -7   1  -7    2.50    0.48
  -7   1  -7    2.77    1.00
   7   1   7    2.68    1.72
   8  -2  -7    1.90    0.90
  -8  -2   7    4.23    0.69
  -8  -2   7    3.87    0.56
   8  -2  -7    3.11    2.02
  -8   2   7    4.47    0.98
  -8   2   7    3.24    0.55
   8   2  -7    4.47    1.15
  -8   2   7    2.65    0.65
   8   2  -7    3.92    1.96
   7  -2  -7    3.32    1.59
   7  -2  -7    2.04    0.80
  -7  -2   7    2.34    0.45
  -7  -2   7    2.76    0.54
   7  -2  -7    1.92    0.83
   7  -2  -7    2.93    0.93
   7   2  -7    2.43    1.28
   7   2  -7    2.30    0.79
  -7   2   7    2.35    0.46
  -7   2   7    3.99    0.78
  -7   2   7    2.37    0.47
   6  -2  -7    1.58    1.09
  -6  -2   7    0.62    0.31
   6  -2  -7    0.71    0.76
   6  -2  -7    1.57    0.52
   6  -2  -7   -0.06    0.59
  -6   2   7    0.69    0.32
   6   2  -7    0.29    0.59
  -6   2   7    0.91    0.43
   6   2  -7    0.68    0.84
   5  -2  -7    1.82    0.87
  -5  -2   7    1.10    0.33
   5  -2  -7    0.55    0.42
  -5  -2   7    0.62    0.29
   5  -2  -7    0.95    0.53
   5  -2  -7    1.42    0.41
   5   2  -7    1.48    0.65
  -5   2   7    1.25    0.28
  -5   2   7    0.59    0.33
   5   2  -7    1.14    0.45
  -4  -2   7    1.21    0.31
   4  -2  -7    1.50    0.54
  -4  -2   7    1.93    0.53
   4  -2  -7    1.95    0.36
   4  -2  -7    1.82    0.70
  -4  -2   7    0.78    0.60
  -4  -2   7    1.07    0.42
  -4  -2   7    0.79    0.25
   4  -2  -7    1.69    0.46
   4  -2  -7    1.71    0.25
   4   2  -7    1.27    0.36
   4   2  -7    1.68    0.58
  -4   2   7    1.39    0.26
   4   2  -7    1.17    0.23
  -4   2   7    0.86    0.61
  -4   2   7    1.84    0.31
  -4   2   7    1.41    0.45
  -4   2   7    1.17    0.28
  -3  -2   7   26.31    2.18
  -3  -2   7   27.38    1.78
   3  -2  -7   26.63    1.85
   3  -2  -7   28.19    1.73
  -3  -2   7   24.52    1.79
   3  -2  -7   24.85    1.87
  -3  -2   7   26.67    1.95
   3  -2  -7   29.27    2.17
   3  -2  -7   28.62    2.10
  -3   2   7   26.26    1.77
   3   2  -7   27.93    1.73
  -3   2   7   26.15    1.94
  -3   2   7   28.92    1.75
   3   2  -7   28.37    1.83
  -3   2   7   29.56    1.74
  -3   2   7   26.43    1.73
   2  -2  -7   15.52    1.13
   2  -2  -7   14.98    1.02
  -2  -2   7   14.60    0.95
   2  -2  -7   14.54    1.31
  -2  -2   7   14.28    1.03
  -2  -2   7   14.21    0.98
  -2  -2   7   13.40    0.99
  -2  -2   7   12.13    1.05
  -2  -2   7   14.75    0.96
  -2   2   7   14.75    0.92
  -2   2   7   12.84    1.32
   2   2  -7   15.46    0.99
  -2   2   7   15.07    1.18
   2   2  -7   14.82    0.94
  -2   2   7   15.23    0.96
  -2   2   7   15.11    1.04
   2   2  -7   15.81    1.07
  -2   2   7   15.17    0.96
  -1  -2   7   38.79    2.98
  -1  -2   7   43.23    2.89
   1  -2  -7   49.25    2.86
  -1  -2   7   49.65    3.10
  -1  -2   7   45.71    2.92
  -1  -2   7   50.53    2.86
  -1  -2   7   45.96    2.86
   1  -2  -7   43.93    3.12
  -1  -2   7   47.63    2.84
   1   2  -7   47.98    2.96
  -1   2   7   43.71    2.97
  -1   2   7   48.04    2.87
  -1   2   7   46.66    2.95
  -1   2   7   51.61    3.05
   1   2  -7   46.73    2.92
   1   2  -7   48.36    2.86
  -1   2   7   47.93    2.87
   0  -2   7    6.35    0.43
   0  -2   7    4.96    0.72
   0  -2   7    6.27    0.68
   0  -2  -7    5.37    0.70
   0  -2   7    6.58    0.51
   0  -2  -7    6.45    0.43
   0  -2   7    6.30    0.41
   0  -2  -7    6.79    0.48
   0  -2   7    6.70    0.44
   0  -2   7    6.40    0.60
   0   2  -7    6.24    0.54
   0   2  -7    6.17    0.49
   0   2   7    6.71    0.46
   0   2  -7    6.24    0.64
   0   2   7    6.55    0.57
   0   2   7    6.18    0.66
   0   2   7    6.59    0.60
   0   2   7    6.99    0.61
  -1  -2  -7    4.56    0.41
  -1  -2  -7    4.85    0.37
   1  -2   7    4.21    0.48
   1  -2   7    4.36    0.31
  -1  -2  -7    3.77    0.54
   1  -2   7    4.47    0.38
   1  -2   7    4.12    0.69
   1  -2   7    5.66    0.72
   1  -2   7    4.62    0.34
  -1   2  -7    4.73    0.43
  -1   2  -7    4.88    0.66
  -1   2  -7    5.14    0.41
   1   2   7    5.17    0.57
  -1   2  -7    5.24    0.60
  -1   2  -7    4.61    0.32
   1   2   7    3.72    0.46
   1   2   7    5.36    0.67
   1   2   7    4.29    0.36
   1   2   7    4.24    0.57
  -2  -2  -7    3.80    0.44
  -2  -2  -7    2.92    0.43
   2  -2   7    2.04    0.42
   2  -2   7    3.03    0.28
   2  -2   7    1.96    0.58
   2  -2   7    3.17    0.27
   2  -2   7    3.32    0.68
  -2  -2  -7    3.25    0.30
  -2  -2  -7    2.82    0.42
  -2  -2  -7    3.46    0.52
   2   2   7    3.09    0.31
   2   2   7    4.60    0.61
  -2   2  -7    4.19    0.71
   2   2   7    2.17    0.56
  -2   2  -7    2.95    0.24
  -2   2  -7    3.97    0.61
   2   2   7    3.20    0.28
   2   2   7    3.18    0.30
  -3  -2  -7    9.81    0.92
   3  -2   7   11.76    1.45
   3  -2   7    9.67    0.67
   3  -2   7    8.16    0.61
  -3  -2  -7    9.57    0.93
  -3  -2  -7    9.07    0.65
   3  -2   7    7.26    0.89
   3  -2   7    7.56    1.29
   3   2   7    8.81    0.55
   3   2   7    7.94    1.03
  -3   2  -7    8.61    0.59
  -3   2  -7    8.90    1.09
  -3   2  -7    8.05    1.09
  -3   2  -7    9.43    0.83
   3   2   7    9.00    0.67
   3   2   7    8.24    0.67
   3   2   7    8.06    0.56
  -3   2  -7    8.76    0.61
   4  -2   7   16.81    1.63
  -4  -2  -7   20.04    1.66
   4  -2   7   21.25    1.40
  -4  -2  -7   20.65    1.36
  -4  -2  -7   22.23    1.86
   4   2   7   20.74    1.46
  -4   2  -7   20.60    1.31
  -4   2  -7   19.65    1.81
  -4   2  -7   19.59    1.25
  -5  -2  -7   16.52    1.19
  -5  -2  -7   18.49    2.03
   5  -2   7   15.05    1.57
  -5  -2  -7   13.25    1.51
   5  -2   7   19.73    1.27
  -5   2  -7   15.53    1.13
  -5   2  -7   16.22    1.51
   5   2   7   16.32    1.36
  -5   2  -7   14.50    1.68
  -6  -2  -7    6.54    1.11
  -6  -2  -7    6.68    0.72
  -6   2  -7    6.00    1.10
   6   2   7    3.62    2.14
  -6   2  -7    5.97    0.64
   7  -2   7    1.67    1.52
  -7  -2  -7    3.72    1.08
  -7  -2  -7    3.95    0.61
  -7   2  -7    4.39    0.56
   7   2   7    3.77    1.92
  -7   2  -7    4.55    1.04
   8  -3  -7   20.64    3.94
   8  -3  -7   22.01    2.26
  -8  -3   7   19.68    1.64
  -8  -3   7   20.86    1.55
   8  -3  -7   16.01    2.33
  -8   3   7   21.43    2.15
  -8   3   7   20.27    1.65
   8   3  -7   23.73    3.56
   8   3  -7   21.95    2.22
  -8   3   7   18.90    1.56
   7  -3  -7    6.69    1.11
   7  -3  -7    5.08    2.04
  -7  -3   7    6.65    0.79
  -7  -3   7    5.74    0.84
   7   3  -7    8.16    1.98
   7   3  -7    7.36    1.20
  -7   3   7    6.63    1.01
  -7   3   7    6.56    0.79
  -6  -3   7   48.87    3.22
   6  -3  -7   45.48    4.59
  -6  -3   7   49.21    3.27
   6  -3  -7   48.36    3.57
  -6   3   7   50.71    3.22
  -6   3   7   51.70    3.36
   6   3  -7   49.68    3.51
   6   3  -7   55.82    4.18
   5  -3  -7   73.84    4.55
  -5  -3   7   73.26    4.47
   5  -3  -7   71.22    4.76
   5  -3  -7   67.27    5.39
  -5  -3   7   69.05    4.43
   5   3  -7   71.76    4.60
  -5   3   7   69.46    4.49
  -5   3   7   69.52    4.41
   4  -3  -7   90.48    6.12
   4  -3  -7   77.81    5.59
  -4  -3   7   82.46    5.45
   4  -3  -7   94.90    5.55
   4  -3  -7   92.67    5.76
  -4  -3   7   78.78    5.84
  -4  -3   7   82.06    5.46
   4   3  -7   92.63    5.44
  -4   3   7   95.03    5.48
  -4   3   7   88.77    5.40
   4   3  -7   94.99    5.55
   3  -3  -7  127.23    8.15
   3  -3  -7  133.17    7.87
  -3  -3   7  117.84    8.16
  -3  -3   7  121.17    7.78
  -3  -3   7  113.80    7.77
   3  -3  -7  117.71    7.84
   3  -3  -7  137.54    8.07
   3   3  -7  128.93    7.72
  -3   3   7  132.35    7.79
   3   3  -7  129.26    7.78
  -3   3   7  135.38    7.73
  -3   3   7  132.14    7.72
  -3   3   7  137.61    7.95
  -3   3   7  125.90    7.71
  -2  -3   7    5.98    0.44
   2  -3  -7    7.98    0.89
   2  -3  -7    5.96    0.67
  -2  -3   7    6.26    0.81
  -2  -3   7    6.00    0.55
  -2  -3   7    5.09    0.56
   2  -3  -7    6.35    0.54
   2  -3  -7    6.81    0.74
  -2  -3   7    5.66    0.52
  -2  -3   7    6.11    0.47
  -2   3   7    6.03    0.47
   2   3  -7    6.45    0.50
   2   3  -7    6.00    0.58
  -2   3   7    6.83    0.72
  -2   3   7    6.02    0.48
   2   3  -7    5.77    0.44
  -2   3   7    6.57    0.59
  -1  -3   7   33.40    2.09
   1  -3  -7   32.72    2.07
  -1  -3   7   31.22    2.10
  -1  -3   7   34.05    2.30
  -1  -3   7   30.35    2.06
  -1  -3   7   34.25    2.15
   1  -3  -7   34.77    2.07
   1  -3  -7   31.98    2.25
   1  -3  -7   32.34    2.34
  -1  -3   7   33.99    2.07
   1   3  -7   30.37    2.13
   1   3  -7   32.60    2.01
   1   3  -7   32.21    2.06
  -1   3   7   34.28    2.06
  -1   3   7   34.23    2.21
  -1   3   7   33.60    2.18
   1   3  -7   35.40    2.16
  -1   3   7   33.47    2.06
   0  -3  -7   19.56    1.33
   0  -3   7   21.20    1.26
   0  -3  -7   21.76    1.34
   0  -3   7   20.68    1.36
   0  -3   7   22.13    1.33
   0  -3  -7   21.65    1.59
   0  -3   7   22.63    1.38
   0  -3  -7   18.30    1.34
   0  -3   7   21.64    1.54
   0  -3   7   21.51    1.62
   0  -3   7   18.68    1.29
   0   3   7   21.28    1.33
   0   3  -7   22.66    1.41
   0   3   7   19.55    1.44
   0   3  -7   21.02    1.36
   0   3   7   21.73    1.46
   0   3  -7   19.08    1.53
   0   3   7   20.58    1.48
   0   3   7   22.18    1.44
   0   3   7   20.77    1.52
  -1  -3  -7    1.51    0.21
   1  -3   7    1.17    0.19
   1  -3   7    0.83    0.16
  -1  -3  -7    0.94    0.34
   1  -3   7    1.63    0.46
   1  -3   7    1.33    0.28
   1  -3   7    1.37    0.47
  -1  -3  -7    1.10    0.22
   1   3   7    0.66    0.32
   1   3   7    1.34    0.19
  -1   3  -7    1.27    0.39
  -1   3  -7    1.31    0.45
   1   3   7    1.08    0.29
   1   3   7    1.10    0.36
   1   3   7    1.18    0.22
  -1   3  -7    1.78    0.26
   2  -3   7   94.66    6.05
   2  -3   7   92.93    6.29
  -2  -3  -7   96.21    5.77
   2  -3   7   97.27    5.62
   2  -3   7   89.61    5.65
   2  -3   7   78.75    5.82
  -2  -3  -7   92.69    5.67
  -2  -3  -7  100.50    5.75
   2   3   7   97.04    5.66
  -2   3  -7   96.75    6.02
  -2   3  -7   95.18    5.69
  -2   3  -7  101.14    5.76
   2   3   7   94.72    5.66
   2   3   7   95.26    5.86
  -2   3  -7   79.91    5.98
   2   3   7   90.66    5.98
   2   3   7   92.59    5.67
  -3  -3  -7    0.16    0.15
  -3  -3  -7    0.40    0.25
   3  -3   7    0.25    0.16
  -3  -3  -7    0.77    0.26
   3  -3   7    0.54    0.17
   3  -3   7    0.29    0.60
  -3  -3  -7    0.52    0.27
   3  -3   7    0.58    0.33
   3   3   7   -0.12    0.51
   3   3   7    0.80    0.40
   3   3   7    0.45    0.16
   3   3   7    0.57    0.11
  -3   3  -7    0.46    0.24
  -3   3  -7    0.60    0.19
  -3   3  -7    0.63    0.11
   3   3   7    0.61    0.55
  -4  -3  -7   11.47    1.21
  -4  -3  -7   13.02    1.38
  -4  -3  -7   14.61    1.05
   4  -3   7   12.54    0.98
   4  -3   7   17.10    1.04
  -4  -3  -7   17.50    1.45
   4  -3   7   11.81    1.32
   4   3   7   16.57    1.12
  -4   3  -7   14.59    2.34
  -4   3  -7   15.83    1.28
  -4   3  -7   14.86    0.96
  -5  -3  -7   11.31    1.56
  -5  -3  -7    9.82    1.25
   5  -3   7    7.42    1.24
  -5  -3  -7    8.82    0.83
  -5  -3  -7    7.84    1.08
   5   3   7   11.20    0.99
  -5   3  -7   10.37    0.77
  -5   3  -7   12.25    1.53
  -5   3  -7   11.00    1.15
  -5   3  -7   10.60    0.70
  -6  -3  -7    0.49    0.72
   6  -3   7   -0.55    1.36
  -6  -3  -7    0.65    0.36
   6   3   7   -0.74    1.29
  -6   3  -7    1.39    0.91
  -6   3  -7    0.39    0.28
   7  -3   7    6.63    2.44
  -7  -3  -7   11.01    1.06
  -7  -3  -7   10.56    1.43
  -7   3  -7   13.84    1.90
   7   3   7   10.12    2.50
  -7   3  -7   10.61    1.21
   8  -4  -7    1.99    2.27
   8  -4  -7    0.75    1.08
   8  -4  -7    2.86    1.16
  -8  -4   7    0.76    0.44
  -8  -4   7    1.34    0.53
  -8   4   7    1.65    0.55
   8   4  -7    1.99    0.92
   8   4  -7    1.96    1.62
  -8   4   7    3.39    1.08
   7  -4  -7    1.05    1.67
  -7  -4   7    2.60    0.53
   7  -4  -7    1.09    0.80
  -7  -4   7    1.70    0.44
   7  -4  -7    3.03    0.96
  -7   4   7    2.25    0.50
   7   4  -7    3.62    1.48
   7   4  -7    2.13    0.68
  -7   4   7    2.11    0.77
   6  -4  -7    3.55    1.57
   6  -4  -7    2.59    0.78
  -6  -4   7    3.26    0.53
  -6  -4   7    3.34    0.57
   6  -4  -7    4.04    0.99
  -6   4   7    4.60    0.58
   6   4  -7    4.71    1.26
   6   4  -7    4.63    0.80
  -5  -4   7    8.00    0.78
   5  -4  -7    7.32    1.07
   5  -4  -7    7.46    1.84
  -5  -4   7    6.16    0.76
   5   4  -7    8.33    0.90
  -5   4   7    7.67    0.67
  -5   4   7    6.82    0.90
  -4  -4   7   22.29    1.59
  -4  -4   7   23.73    1.60
   4  -4  -7   22.74    1.74
   4  -4  -7   21.98    2.24
   4  -4  -7   22.46    1.91
   4  -4  -7   21.55    1.75
   4   4  -7   23.60    1.63
  -4   4   7   23.16    1.51
  -4   4   7   23.16    1.64
   4   4  -7   22.78    1.57
  -3  -4   7   15.47    1.17
   3  -4  -7   17.60    1.53
  -3  -4   7   14.42    1.60
   3  -4  -7   17.79    1.38
   3  -4  -7   17.23    1.59
  -3  -4   7   14.25    1.29
   3  -4  -7   17.44    1.30
  -3  -4   7   17.07    1.23
  -3  -4   7   16.32    1.21
  -3   4   7   16.90    1.15
   3   4  -7   17.70    1.16
  -3   4   7   19.93    1.58
  -3   4   7   18.11    1.15
   3   4  -7   19.50    1.39
   3   4  -7   17.61    1.21
  -3   4   7   16.93    1.26
  -3   4   7   19.09    1.26
  -2  -4   7    1.03    0.19
  -2  -4   7    1.25    0.17
   2  -4  -7    1.33    0.38
  -2  -4   7    0.89    0.25
   2  -4  -7    1.04    0.39
  -2  -4   7    1.12    0.42
   2  -4  -7    1.17    0.27
  -2  -4   7    0.89    0.22
   2  -4  -7    1.90    0.51
  -2  -4   7    1.15    0.27
  -2   4   7    0.77    0.44
  -2   4   7    0.55    0.47
   2   4  -7    1.23    0.30
   2   4  -7    1.24    0.21
  -2   4   7    1.30    0.21
  -2   4   7    0.99    0.31
   2   4  -7    1.24    0.17
  -2   4   7    1.42    0.21
   2   4  -7    1.59    0.52
   2   4  -7    1.29    0.24
  -1  -4   7    7.97    0.67
  -1  -4   7    9.13    0.66
   1  -4  -7    9.55    0.92
  -1  -4   7   11.12    1.09
   1  -4  -7    8.61    0.96
   1  -4  -7    8.93    0.67
  -1  -4   7    9.06    0.91
  -1  -4   7    8.13    0.64
  -1  -4   7    7.97    0.69
   1  -4  -7    8.76    0.65
  -1   4   7   10.01    0.82
   1   4  -7    7.53    0.82
   1   4  -7    9.50    0.74
  -1   4   7    8.86    0.79
  -1   4   7    9.01    0.63
   1   4  -7    8.25    0.56
   0  -4  -7   62.52    3.89
   0  -4  -7   69.31    3.94
   0  -4   7   66.01    3.95
   0  -4   7   64.69    3.91
   0  -4   7   65.98    4.25
   0  -4  -7   61.93    3.91
   0  -4   7   57.55    3.91
   0  -4  -7   68.29    4.16
   0  -4  -7   56.27    4.10
   0  -4   7   56.68    4.02
   0   4  -7   64.21    3.94
   0   4   7   65.41    4.07
   0   4   7   62.83    4.02
   0   4   7   67.55    3.91
   0   4  -7   68.31    3.97
   0   4   7   64.96    3.89
   0   4   7   66.06    3.98
   0   4  -7   55.00    4.12
  -1  -4  -7   38.76    2.63
   1  -4   7   37.72    2.53
   1  -4   7   36.96    2.43
   1  -4   7   36.83    2.87
   1  -4   7   38.27    2.43
  -1  -4  -7   38.48    2.42
   1  -4   7   39.51    2.70
   1   4   7   38.69    2.58
  -1   4  -7   31.82    2.74
  -1   4  -7   39.28    2.47
   1   4   7   40.70    2.43
  -1   4  -7   43.43    2.49
   1   4   7   40.17    2.45
   1   4   7   40.87    2.67
  -2  -4  -7  126.72    7.73
   2  -4   7  117.41    7.90
  -2  -4  -7  127.36    7.82
   2  -4   7  126.38    7.74
  -2  -4  -7  130.20    7.87
   2  -4   7  121.76    8.39
   2  -4   7  128.84    8.09
  -2   4  -7  129.50    7.81
   2   4   7  130.89    8.03
  -2   4  -7  130.19    8.17
  -2   4  -7  134.27    7.77
   2   4   7  131.66    7.72
  -3  -4  -7   30.04    1.83
   3  -4   7   21.61    2.52
   3  -4   7   25.22    1.73
  -3  -4  -7   26.12    1.89
  -3  -4  -7   28.50    1.75
  -3  -4  -7   27.67    1.83
   3  -4   7   22.41    1.96
   3   4   7   25.63    2.19
  -3   4  -7   28.06    1.76
   3   4   7   27.84    1.76
   3   4   7   29.22    1.69
  -3   4  -7   26.50    2.26
  -4  -4  -7   27.55    1.85
   4  -4   7   27.51    1.75
  -4  -4  -7   29.45    2.10
  -4  -4  -7   26.34    1.84
   4  -4   7   26.20    1.83
  -4   4  -7   28.65    1.83
   4   4   7   29.29    1.91
  -4   4  -7   30.10    2.05
   4   4   7   28.24    1.74
  -4   4  -7   28.15    2.43
  -4   4  -7   28.99    1.74
   4   4   7   27.17    2.46
  -5  -4  -7    1.51    0.36
  -5  -4  -7    2.11    1.17
   5  -4   7    1.80    0.37
   5  -4   7    1.31    1.24
   5   4   7    1.30    1.16
  -5   4  -7    0.99    0.83
   5   4   7    2.31    1.03
  -5   4  -7    2.54    0.37
  -6  -4  -7    0.76    0.35
   6  -4   7   -0.43    1.27
  -6   4  -7    0.51    0.44
  -6   4  -7    0.12    0.90
   6   4   7    2.17    1.28
   6   4   7   -0.24    1.30
  -7  -4  -7   11.49    1.11
  -7   4  -7   10.36    1.63
   7   4   7   10.72    2.13
  -7  -5   7    3.25    0.60
   7  -5  -7    4.16    2.21
   7  -5  -7    4.68    1.23
   7  -5  -7    2.51    1.04
  -7  -5   7    2.87    0.62
  -7   5   7    3.37    0.56
   7   5  -7    4.91    1.54
   7   5  -7    2.75    0.76
  -7   5   7    4.45    0.98
  -6  -5   7   15.99    1.27
   6  -5  -7   11.37    1.67
  -6  -5   7   13.38    1.23
   6  -5  -7   11.83    2.88
   6  -5  -7   15.34    1.77
   6   5  -7   18.37    2.20
  -6   5   7   15.56    1.51
  -6   5   7   13.64    1.15
   6   5  -7   16.26    1.43
   5  -5  -7    2.50    1.25
  -5  -5   7    2.95    0.50
   5  -5  -7    2.27    0.61
   5  -5  -7    3.16    0.80
  -5  -5   7    2.68    0.50
  -5   5   7    3.57    0.47
  -5   5   7    4.88    0.76
   5   5  -7    3.55    0.63
  -4  -5   7    0.51    0.32
   4  -5  -7    0.05    0.73
  -4  -5   7    0.50    0.27
   4  -5  -7    0.80    0.42
   4  -5  -7    0.87    0.60
  -4   5   7    0.35    0.36
   4   5  -7    0.76    0.28
  -4   5   7    0.87    1.00
   4   5  -7    0.67    0.32
   4   5  -7    1.28    0.65
  -3  -5   7   33.32    2.28
  -3  -5   7   35.72    2.22
   3  -5  -7   35.35    2.36
   3  -5  -7   32.77    2.53
   3  -5  -7   34.03    2.66
  -3  -5   7   32.09    2.23
   3   5  -7   35.96    2.22
  -3   5   7   35.37    2.18
  -3   5   7   32.65    2.32
   3   5  -7   36.70    2.27
  -2  -5   7   13.49    1.21
  -2  -5   7   12.37    0.87
   2  -5  -7   13.43    1.02
  -2  -5   7   12.91    0.95
  -2  -5   7   13.77    1.37
  -2  -5   7   13.35    0.89
  -2  -5   7   12.72    1.00
   2  -5  -7   14.35    1.17
   2  -5  -7   12.42    1.28
   2   5  -7   13.53    0.88
  -2   5   7   10.12    1.46
  -2   5   7   13.01    0.90
   2   5  -7   11.74    1.05
  -2   5   7   13.13    1.08
   2   5  -7   13.84    0.96
   1  -5  -7   81.42    5.16
  -1  -5   7   84.03    5.18
   1  -5  -7   85.02    5.45
  -1  -5   7   85.78    5.49
   1  -5  -7   85.15    5.20
  -1  -5   7   82.61    5.21
   1  -5  -7   87.31    5.54
  -1  -5   7   78.12    5.07
  -1  -5   7   85.06    5.20
  -1  -5   7   84.15    5.23
  -1   5   7   90.29    5.32
   1   5  -7   77.95    5.36
   1   5  -7   86.78    5.25
   1   5  -7   85.65    5.07
  -1   5   7   91.96    5.17
  -1   5   7   82.85    5.27
   0  -5  -7   12.08    0.85
   0  -5   7   11.40    0.99
   0  -5   7   12.69    0.92
   0  -5   7   12.30    0.93
   0  -5   7   12.15    1.24
   0  -5  -7   10.92    1.16
   0  -5   7   11.92    0.90
   0  -5  -7   12.48    0.90
   0  -5  -7   11.53    0.84
   0   5   7   10.62    1.04
   0   5   7   13.04    0.95
   0   5  -7   10.63    1.27
   0   5  -7   12.37    0.95
  -1  -5  -7   47.80    2.93
   1  -5   7   46.04    3.13
  -1  -5  -7   47.63    3.15
   1  -5   7   45.86    3.01
  -1  -5  -7   44.52    2.89
   1  -5   7   45.14    3.43
   1  -5   7   46.35    2.92
   1   5   7   49.97    3.14
   1   5   7   47.64    2.93
  -1   5  -7   49.35    2.98
  -1   5  -7   40.49    3.28
  -2  -5  -7    3.43    0.44
  -2  -5  -7    3.84    0.64
   2  -5   7    3.58    0.98
  -2  -5  -7    2.70    0.36
   2  -5   7    3.36    0.42
   2  -5   7    2.70    0.54
  -2   5  -7    3.67    0.86
  -2   5  -7    3.63    0.52
   2   5   7    3.06    0.39
  -2   5  -7    3.53    0.44
   2   5   7    2.92    0.61
   3  -5   7    2.48    0.98
  -3  -5  -7    4.17    0.44
  -3  -5  -7    5.09    0.73
   3  -5   7    3.76    0.50
  -3  -5  -7    4.78    0.64
   3  -5   7    3.63    0.73
  -3   5  -7    3.95    0.55
   3   5   7    4.22    0.86
   3   5   7    4.91    0.43
  -3   5  -7    4.28    0.57
  -4  -5  -7    1.44    0.49
  -4  -5  -7    1.28    0.44
   4  -5   7    1.01    0.97
   4  -5   7    2.10    0.37
   4  -5   7    2.67    0.62
  -4  -5  -7    1.69    0.31
   4   5   7    1.89    0.81
   4   5   7    2.02    0.25
  -4   5  -7    1.98    0.49
   4   5   7    0.81    0.77
  -4   5  -7    0.75    0.84
  -4   5  -7    2.44    0.39
   4   5   7    1.75    0.34
  -5  -5  -7    0.44    0.31
   5  -5   7    0.20    0.35
   5  -5   7    1.22    1.24
   5   5   7    0.81    1.00
  -5   5  -7   -0.64    0.88
   5   5   7    0.92    1.02
   6  -5   7   -0.06    1.44
  -6  -5  -7    0.30    0.39
  -6   5  -7    2.00    1.07
   6   5   7   -1.07    1.25
   7  -6  -7    3.21    1.21
   7  -6  -7    2.51    1.18
   7  -6  -7    4.08    2.37
  -7  -6   7    4.11    0.70
  -7  -6   7    3.14    0.68
  -7   6   7    2.74    0.55
   7   6  -7    4.43    0.88
   7   6  -7    5.65    1.80
  -7   6   7    4.85    1.15
  -6  -6   7    5.19    0.79
   6  -6  -7    3.92    1.92
   6  -6  -7    6.38    1.20
   6  -6  -7    4.60    1.07
  -6  -6   7    5.47    0.81
   6   6  -7    5.40    0.93
  -6   6   7    4.99    0.92
  -6   6   7    4.77    0.69
   5  -6  -7    0.03    1.16
   5  -6  -7    0.47    0.67
  -5  -6   7    0.12    0.36
   5  -6  -7   -0.28    0.55
  -5  -6   7    0.09    0.38
  -5   6   7    0.47    0.26
   5   6  -7    0.42    0.73
   5   6  -7    0.01    0.34
  -5   6   7   -0.05    0.52
   4  -6  -7    1.30    0.49
  -4  -6   7    1.36    0.31
   4  -6  -7    1.39    0.93
  -4  -6   7    1.24    0.40
   4  -6  -7    1.35    0.66
  -4  -6   7    0.76    0.26
   4   6  -7    1.37    0.44
  -4   6   7    0.46    1.18
  -4   6   7    0.91    0.26
   4   6  -7    2.72    0.87
  -4   6   7    0.78    0.46
   4   6  -7    1.34    0.38
  -3  -6   7   21.28    1.53
  -3  -6   7   23.10    1.42
   3  -6  -7   22.00    1.99
  -3  -6   7   21.99    1.59
  -3  -6   7   23.70    1.83
   3  -6  -7   22.06    1.88
  -3  -6   7   21.41    1.45
   3  -6  -7   21.98    1.96
   3   6  -7   23.06    1.57
  -3   6   7   23.44    1.70
  -3   6   7   19.39    2.29
  -3   6   7   23.18    1.58
   3   6  -7   23.32    1.52
   3   6  -7   19.88    1.47
  -2  -6   7    8.10    0.66
   2  -6  -7    8.96    0.93
  -2  -6   7    9.76    1.07
   2  -6  -7    9.35    1.16
  -2  -6   7    8.62    0.73
   2  -6  -7    9.62    0.83
  -2  -6   7    7.53    0.59
   2   6  -7    8.66    0.64
  -2   6   7    8.43    0.66
   2   6  -7    7.62    1.03
  -2   6   7    7.45    0.97
   1  -6  -7   59.71    3.74
  -1  -6   7   65.19    4.16
  -1  -6   7   53.20    3.62
   1  -6  -7   60.87    3.80
   1  -6  -7   60.38    3.76
   1  -6  -7   62.54    4.08
  -1  -6   7   60.00    3.79
  -1  -6   7   59.40    3.80
  -1  -6   7   60.70    3.76
  -1   6   7   62.22    3.92
   1   6  -7   61.45    3.63
   0  -6   7    5.79    0.59
   0  -6   7    5.33    0.60
   0  -6   7    6.55    1.00
   0  -6  -7    5.58    0.52
   0  -6  -7    5.93    0.51
   0  -6  -7    5.73    0.60
   0  -6  -7    5.83    0.87
   0  -6   7    7.17    0.70
   0   6   7    5.59    0.77
   0   6  -7    5.12    1.02
  -1  -6  -7   14.75    1.02
  -1  -6  -7   13.98    1.06
   1  -6   7   13.19    1.60
   1  -6   7   13.57    1.11
   1  -6   7   13.23    1.03
   1  -6   7   13.20    1.25
  -1  -6  -7   12.97    1.34
   1   6   7   13.74    1.04
  -1   6  -7   13.72    1.59
  -1   6  -7   14.26    1.07
  -2  -6  -7   12.54    0.88
   2  -6   7   10.96    1.07
   2  -6   7   11.44    0.93
  -2  -6  -7   11.49    1.19
   2  -6   7   11.60    1.74
   2   6   7   13.45    1.28
  -2   6  -7   11.08    1.64
  -2   6  -7   12.49    0.98
   2   6   7   11.74    0.91
  -3  -6  -7    8.67    0.72
  -3  -6  -7   10.50    1.06
   3  -6   7    8.00    1.06
  -3  -6  -7    6.21    1.08
   3  -6   7    8.09    0.81
  -3   6  -7   10.31    1.48
   3   6   7    9.40    1.23
   3   6   7    9.28    0.71
  -3   6  -7    9.15    0.84
   4  -6   7   20.20    3.01
  -4  -6  -7   27.19    1.80
  -4  -6  -7   28.11    1.96
   4  -6   7   28.05    1.87
  -4   6  -7   26.25    2.56
   4   6   7   27.59    2.42
   5  -6   7   34.34    2.33
  -5  -6  -7   32.76    2.26
  -5   6  -7   33.71    3.07
   5   6   7   33.71    2.98
  -6  -6  -7   14.10    1.23
   6   6   7   16.89    2.21
  -6   6  -7   11.81    1.93
   6  -7  -7    4.11    1.19
   6  -7  -7    4.06    1.04
  -6  -7   7    5.11    0.72
  -6  -7   7    4.70    0.68
   6  -7  -7    4.86    2.15
  -6   7   7    4.37    1.05
  -6   7   7    5.44    0.73
   6   7  -7    7.10    1.62
   6   7  -7    5.06    0.86
  -5  -7   7   11.33    0.98
   5  -7  -7   11.99    1.49
  -5  -7   7    9.73    1.09
   5  -7  -7   10.41    1.47
  -5   7   7   10.62    0.91
   5   7  -7   11.36    1.14
  -5   7   7   10.68    1.44
   4  -7  -7   16.78    1.73
  -4  -7   7   17.74    1.37
  -4  -7   7   16.19    1.18
   4  -7  -7   15.31    2.24
   4  -7  -7   16.41    1.56
   4   7  -7   17.94    1.35
  -4   7   7   15.14    2.44
  -4   7   7   15.31    1.17
  -4   7   7   17.06    1.56
  -3  -7   7    4.02    0.61
  -3  -7   7    3.86    0.54
   3  -7  -7    4.73    0.95
   3  -7  -7    4.70    0.77
  -3  -7   7    3.61    0.41
   3  -7  -7    4.28    0.95
  -3  -7   7    3.64    0.49
  -3  -7   7    4.30    0.89
  -3   7   7    5.62    1.30
   3   7  -7    3.21    0.68
  -3   7   7    5.32    0.78
  -3   7   7    4.25    0.47
   3   7  -7    5.59    0.63
  -2  -7   7   12.19    0.86
   2  -7  -7   13.95    1.14
   2  -7  -7   11.39    1.43
  -2  -7   7   13.36    1.12
  -2  -7   7   12.05    1.03
  -2  -7   7   12.88    0.99
   2  -7  -7   14.25    1.19
   2   7  -7   14.28    0.94
   2   7  -7   10.39    1.45
  -2   7   7   13.05    0.94
  -2   7   7   14.68    1.17
  -2   7   7   13.88    1.23
  -1  -7   7    1.58    0.39
  -1  -7   7    0.85    0.11
  -1  -7   7    0.81    0.32
   1  -7  -7    0.82    0.33
   1  -7  -7    0.45    0.21
  -1  -7   7    1.31    0.66
   1  -7  -7    1.67    0.65
  -1  -7   7    0.63    0.27
   1   7  -7   -0.58    0.72
  -1   7   7    1.45    0.44
   1   7  -7    0.88    0.12
   0  -7   7    1.20    0.40
   0  -7   7    0.91    0.71
   0  -7   7    0.95    0.28
   0  -7  -7    0.93    0.23
   0  -7  -7    1.00    0.33
   0  -7   7    1.64    0.38
   0   7   7    1.22    0.49
   0   7  -7    1.04    0.80
   1  -7   7    0.86    0.67
  -1  -7  -7   -0.06    0.54
   1  -7   7    0.74    0.30
   1  -7   7    0.73    0.31
  -1  -7  -7    0.78    0.30
  -1  -7  -7    0.78    0.22
  -1   7  -7    0.81    0.32
  -1   7  -7    1.38    0.90
   1   7   7    0.66    0.45
  -2  -7  -7    5.25    0.71
   2  -7   7    5.23    0.69
  -2  -7  -7    4.47    0.51
  -2  -7  -7    5.69    0.85
   2  -7   7    4.93    1.30
   2  -7   7    5.02    0.79
   2   7   7    5.44    0.88
  -2   7  -7    6.52    1.26
  -3  -7  -7    6.81    0.66
  -3  -7  -7    7.65    1.08
   3  -7   7    5.21    1.47
   3  -7   7    7.60    0.85
  -3   7  -7    8.56    1.46
   3   7   7    7.78    1.11
   4  -7   7    8.89    2.14
  -4  -7  -7   12.50    1.01
  -4  -7  -7   15.29    1.38
   4  -7   7   13.32    1.21
   4   7   7   12.63    1.78
  -4   7  -7   13.50    1.98
   5  -7   7    8.16    2.43
   5  -7   7   10.58    1.23
  -5  -7  -7   10.78    1.01
   5   7   7   12.29    1.71
  -5   7  -7   11.49    1.79
   5  -8  -7    2.08    0.79
   5  -8  -7    2.87    1.77
   5  -8  -7    2.78    0.99
  -5  -8   7    2.21    0.44
  -5  -8   7    2.39    0.75
  -5  -8   7    1.83    0.59
  -5   8   7    2.13    0.42
   5   8  -7    4.08    1.39
   5   8  -7    1.35    0.50
  -5   8   7    1.29    0.87
  -4  -8   7    4.33    0.51
   4  -8  -7    2.80    0.94
   4  -8  -7    4.42    0.85
  -4  -8   7    4.41    1.05
  -4  -8   7    3.93    0.68
   4  -8  -7    4.65    1.39
  -4   8   7    4.04    0.55
   4   8  -7    4.08    0.80
  -4   8   7    4.47    0.91
   3  -8  -7    0.73    0.78
  -3  -8   7    1.10    0.48
   3  -8  -7    1.64    0.74
  -3  -8   7    1.67    0.64
   3  -8  -7    1.44    0.55
  -3  -8   7    0.93    0.21
  -3   8   7    0.48    0.25
  -3   8   7    1.11    0.63
  -2  -8   7    0.25    0.13
  -2  -8   7    0.69    0.41
   2  -8  -7    0.34    0.36
  -2  -8   7    0.14    0.52
   2  -8  -7    0.19    0.68
   2   8  -7    0.94    0.90
  -2   8   7    0.92    0.58
  -2   8   7    0.90    0.25
  -1  -8   7    3.46    0.55
  -1  -8   7    3.32    0.87
   1  -8  -7    2.96    0.42
   1  -8  -7    3.88    0.64
   1  -8  -7    1.30    0.76
  -1  -8   7    2.77    0.51
   1   8  -7    1.89    0.94
  -1   8   7    2.75    0.63
  -1   8   7    3.04    0.41
   0  -8   7   21.09    1.68
   0  -8  -7   23.13    1.55
   0  -8   7   23.12    2.30
   0  -8  -7   21.92    2.09
   0  -8  -7   23.40    1.69
   0   8  -7   20.77    2.31
   0   8   7   25.08    1.89
  -1  -8  -7    7.90    0.67
  -1  -8  -7    7.08    0.82
  -1  -8  -7    6.34    1.04
   1  -8   7    6.26    0.80
   1  -8   7    5.98    1.36
  -1   8  -7    6.68    1.34
   1   8   7    7.75    1.13
  -2  -8  -7   45.35    3.10
   2  -8   7   42.93    4.09
  -2  -8  -7   46.28    2.95
  -2  -8  -7   46.31    3.35
   2  -8   7   47.04    3.07
   2   8   7   51.28    3.34
  -2   8  -7   44.48    3.83
   3  -8   7    4.48    0.69
  -3  -8  -7    4.24    0.85
   3  -8   7    5.08    1.69
  -3  -8  -7    2.95    0.45
  -3   8  -7    5.17    1.46
   3   8   7    6.01    1.07
  -4  -8  -7   17.55    1.41
   4  -8   7   15.00    3.20
  -4  -8  -7   23.81    1.90
   4  -8   7   19.11    1.64
  -4   8  -7   19.09    2.72
   4   8   7   19.63    2.10
   4  -9  -7   -0.79    0.90
   4  -9  -7    0.93    0.71
  -4  -9   7    1.26    0.61
  -4  -9   7    1.01    0.77
  -4   9   7    1.02    0.35
  -4   9   7    1.73    0.92
   3  -9  -7    0.99    0.61
  -3  -9   7    0.66    0.56
  -3  -9   7    0.92    0.70
   3  -9  -7    1.76    1.00
  -3   9   7    1.32    0.76
  -3   9   7    0.63    0.30
   2  -9  -7    1.05    0.53
  -2  -9   7    0.77    0.50
  -2  -9   7    1.06    0.75
   2  -9  -7   -0.65    0.85
  -2   9   7    0.86    0.67
  -2   9   7    0.79    0.28
  -1  -9   7    6.10    0.90
  -1  -9   7    5.93    1.43
   1  -9  -7    3.48    1.05
   1  -9  -7    5.21    0.89
  -1   9   7    7.12    1.01
   1   9  -7    4.02    1.34
  -1   9   7    6.33    0.60
   0  -9  -7    5.57    1.14
   0  -9  -7    5.97    0.65
   0  -9  -7    6.42    0.87
   0  -9   7    5.92    0.86
   0  -9   7    7.51    1.66
   0   9   7    4.93    0.88
   0   9  -7    4.83    1.45
   1  -9   7   12.48    1.28
  -1  -9  -7   14.01    1.09
  -1  -9  -7   13.01    1.81
  -1  -9  -7   14.76    1.31
   1  -9   7   13.72    2.30
   1   9   7   15.35    1.60
  -1   9  -7   16.02    2.04
  -2  -9  -7    0.50    0.31
  -2  -9  -7    1.00    0.84
  -2  -9  -7    0.72    0.49
   2  -9   7    0.96    1.22
   2  -9   7    0.73    0.53
   2   9   7   -0.25    0.70
  -2   9  -7   -0.83    1.33
  -3  -9  -7   14.71    1.16
  -3  -9  -7   15.69    1.51
   3  -9   7   10.78    2.49
   3  -9   7   15.15    1.48
  -3  -9  -7   12.91    1.81
  -3   9  -7   15.36    2.26
   3   9   7   16.67    1.89
   2 -10  -7    2.47    0.77
  -2 -10   7    1.49    1.02
   2 -10  -7    3.25    1.23
  -2 -10   7    2.07    0.74
  -2  10   7    2.40    1.15
  -2  10   7    2.89    0.45
   1 -10  -7    7.67    1.44
   1 -10  -7    8.80    1.21
  -1 -10   7    8.84    1.19
  -1 -10   7    9.84    1.95
  -1  10   7    9.89    0.80
  -1  10   7    6.64    1.13
   0 -10  -7    1.95    0.53
   0 -10  -7    2.04    0.44
   0 -10   7    2.08    1.17
   0 -10   7    2.63    0.66
   0 -10  -7    2.28    1.11
   0  10  -7    2.91    1.60
   0  10   7    3.58    0.89
  -1 -10  -7    2.92    0.50
  -1 -10  -7    2.88    0.72
   1 -10   7    2.98    1.46
  -1 -10  -7    3.01    1.20
   1 -10   7    3.68    0.77
  -1  10  -7    4.81    1.77
   1  10   7    2.65    0.92
   8   0  -8    0.68    0.82
  -8   0   8    0.45    0.38
  -8   0   8    0.08    0.48
   8   0  -8    0.08    1.40
   7   0  -8    4.52    1.47
  -7   0   8    4.07    0.63
  -7   0   8    4.68    0.64
  -7   0   8    5.16    0.70
   7   0  -8    7.27    1.20
  -6   0   8   71.68    4.29
   6   0  -8   58.68    4.60
  -6   0   8   68.65    4.30
   6   0  -8   71.21    5.32
  -6   0   8   63.50    4.25
   6   0  -8   71.72    4.25
   5   0  -8   21.27    2.06
   5   0  -8   18.18    1.31
  -5   0   8   18.16    1.32
  -5   0   8   19.49    1.36
  -5   0   8   17.85    1.26
   5   0  -8   14.72    1.58
   4   0  -8   50.37    3.43
  -4   0   8   45.58    2.97
   4   0  -8   43.87    2.89
   4   0  -8   37.03    3.06
  -4   0   8   45.34    2.88
   4   0  -8   45.46    2.84
  -4   0   8   48.86    3.16
  -4   0   8   47.61    2.83
  -4   0   8   46.76    2.95
  -3   0   8   70.08    4.20
  -3   0   8   69.72    4.47
  -3   0   8   68.48    4.19
  -3   0   8   63.94    4.28
  -3   0   8   73.46    4.19
   3   0  -8   66.89    4.17
  -3   0   8   66.49    4.17
  -2   0   8   42.74    2.39
  -2   0   8   33.79    2.49
  -2   0   8   33.86    2.47
  -2   0   8   40.52    2.39
  -2   0   8   39.46    2.43
  -2   0   8   40.46    2.80
  -2   0   8   38.47    2.65
   1   0  -8   79.26    4.76
  -1   0   8   81.30    4.91
  -1   0   8   71.92    5.00
  -1   0   8   76.47    4.91
  -1   0   8   83.38    4.79
  -1   0   8   78.14    4.87
  -1   0   8   83.33    4.79
   0   0  -8  518.31   29.84
   0   0  -8  497.21   29.72
   0   0   8  523.17   29.90
   0   0   8  515.54   29.94
   0   0   8  461.17   29.76
   0   0   8  473.39   29.89
  -1   0  -8    8.90    0.61
   1   0   8    9.03    0.64
  -1   0  -8    8.66    0.81
   1   0   8    9.94    0.92
   1   0   8    9.42    0.61
   1   0   8    9.06    0.93
  -1   0  -8    8.60    0.72
   1   0   8    8.75    0.78
   2   0   8  364.90   21.39
   2   0   8  364.46   21.44
   2   0   8  338.00   21.38
   2   0   8  349.19   21.93
  -2   0  -8  335.62   21.39
   2   0   8  358.01   21.73
  -2   0  -8  388.20   21.71
   2   0   8  361.05   21.41
  -2   0  -8  364.88   21.66
  -3   0  -8    1.43    0.48
   3   0   8    1.34    0.66
   3   0   8    2.05    0.38
   3   0   8    2.08    0.31
  -3   0  -8    1.98    0.52
  -3   0  -8    1.72    0.24
  -3   0  -8    1.56    0.48
  -4   0  -8   24.22    1.53
   4   0   8   23.35    1.59
   4   0   8   24.35    1.76
  -4   0  -8   21.98    1.85
  -5   0  -8    2.75    0.39
  -5   0  -8    2.53    0.67
   5   0   8    2.86    0.61
  -5   0  -8    2.52    0.82
  -6   0  -8   92.56    5.48
  -6   0  -8   83.20    5.92
  -7   0  -8    3.35    0.52
   7   0   8    1.18    1.73
  -7   0  -8    3.57    1.10
  -8  -1   8   59.55    3.89
   8  -1  -8   54.11    4.50
   8  -1  -8   55.02    5.70
  -8  -1   8   60.04    3.99
  -8   1   8   59.81    4.00
  -8   1   8   62.44    3.91
   8   1  -8   68.25    5.92
   8   1  -8   66.68    4.57
   7  -1  -8    4.15    1.03
  -7  -1   8    3.69    0.54
  -7  -1   8    2.75    0.57
   7  -1  -8    2.46    1.22
   7   1  -8    3.63    0.90
  -7   1   8    4.99    0.65
   7   1  -8    4.05    1.39
  -7   1   8    4.69    0.72
  -7   1   8    3.42    0.59
  -6  -1   8   64.42    4.30
  -6  -1   8   64.59    4.34
   6  -1  -8   72.05    4.37
   6  -1  -8   68.05    5.39
   6   1  -8   65.59    4.18
  -6   1   8   70.05    4.34
  -6   1   8   65.80    4.32
   6   1  -8   79.38    5.39
   6   1  -8   63.10    4.65
  -6   1   8   71.93    4.34
  -5  -1   8   63.50    3.69
  -5  -1   8   56.63    3.71
  -5  -1   8   61.97    3.86
   5  -1  -8   67.44    4.21
   5  -1  -8   62.92    3.87
   5  -1  -8   66.42    4.65
  -5  -1   8   58.94    3.85
  -5   1   8   51.81    3.80
  -5   1   8   61.67    3.88
  -5   1   8   62.87    3.83
   5   1  -8   65.59    4.54
   5   1  -8   53.19    4.06
  -4  -1   8    1.98    0.25
  -4  -1   8    1.66    0.35
   4  -1  -8    1.32    0.43
  -4  -1   8    1.93    0.32
   4  -1  -8    1.94    0.53
   4  -1  -8    1.50    0.25
   4  -1  -8    1.30    0.34
  -4  -1   8    1.31    0.42
  -4  -1   8    1.57    0.75
  -4  -1   8    1.73    0.25
  -4  -1   8    2.14    0.59
   4  -1  -8    1.52    0.60
   4   1  -8    0.94    0.21
  -4   1   8    0.58    0.44
   4   1  -8    1.22    0.56
  -3  -1   8  145.01    8.39
  -3  -1   8  142.88    8.36
  -3  -1   8  136.38    8.45
  -3  -1   8  129.78    8.86
  -3  -1   8  125.60    8.44
   3  -1  -8  137.35    8.47
  -3  -1   8  136.68    8.32
  -3  -1   8  139.17    8.64
   3  -1  -8  144.77    8.35
   3  -1  -8  137.09    8.67
  -3   1   8  149.03    8.34
   3   1  -8  146.03    8.36
   3   1  -8  135.64    8.48
  -3   1   8  137.60    8.38
  -3   1   8  139.24    8.37
  -3   1   8  135.19    8.61
  -2  -1   8  166.54   10.05
  -2  -1   8  165.98   10.30
   2  -1  -8  146.87   10.28
  -2  -1   8  161.71   10.12
  -2  -1   8  172.95   10.11
  -2  -1   8  170.37   10.07
  -2  -1   8  188.81   10.51
  -2   1   8  166.53   10.10
  -2   1   8  154.59   10.25
   2   1  -8  170.51   10.06
  -2   1   8  169.47   10.48
  -2   1   8  162.61   10.04
  -2   1   8  171.80   10.05
   2   1  -8  169.73   10.02
  -2   1   8  167.30   10.10
  -1  -1   8    3.10    0.34
   1  -1  -8    2.85    0.53
  -1  -1   8    1.75    0.20
  -1  -1   8    1.86    0.39
  -1  -1   8    2.36    0.45
  -1  -1   8    1.81    0.37
   1  -1  -8    2.07    0.20
  -1  -1   8    1.90    0.21
  -1  -1   8    2.39    0.51
   1   1  -8    2.01    0.18
  -1   1   8    2.18    0.23
  -1   1   8    2.07    0.33
  -1   1   8    2.27    0.22
  -1   1   8    2.48    0.51
   1   1  -8    1.84    0.28
  -1   1   8    1.99    0.36
   0  -1  -8  233.70   14.24
   0  -1   8  230.69   14.27
   0  -1   8  246.92   14.47
   0  -1  -8  232.36   14.40
   0  -1   8  230.44   14.21
   0  -1   8  229.95   14.21
   0  -1   8  216.61   14.43
   0  -1   8  237.00   14.48
   0  -1  -8  238.96   14.20
   0   1   8  258.53   14.40
   0   1   8  241.38   14.41
   0   1   8  238.80   14.38
   0   1  -8  245.17   14.22
   0   1   8  240.83   14.23
   0   1   8  246.60   14.45
   0   1  -8  239.32   14.36
  -1  -1  -8   74.18    4.63
   1  -1   8   71.48    4.48
   1  -1   8   78.56    4.86
   1  -1   8   71.83    4.63
   1  -1   8   74.64    4.79
   1  -1   8   76.50    4.45
  -1  -1  -8   74.31    4.47
   1   1   8   78.59    4.79
  -1   1  -8   70.35    4.45
  -1   1  -8   76.87    4.51
   1   1   8   76.16    4.69
   1   1   8   72.42    4.50
   1   1   8   75.53    4.47
  -1   1  -8   64.92    4.64
   1   1   8   70.27    4.55
   2  -1   8   23.91    1.51
   2  -1   8   22.74    2.05
   2  -1   8   23.50    1.50
  -2  -1  -8   25.66    1.75
   2  -1   8   23.60    1.60
  -2  -1  -8   23.85    1.52
   2  -1   8   23.94    1.97
  -2  -1  -8   23.99    1.75
   2  -1   8   25.40    1.64
   2   1   8   23.29    1.80
   2   1   8   24.40    1.48
  -2   1  -8   26.33    1.70
   2   1   8   24.33    1.51
   2   1   8   23.71    1.53
  -2   1  -8   26.67    1.86
   2   1   8   21.39    1.96
  -2   1  -8   22.97    1.49
  -2   1  -8   24.00    1.83
   2   1   8   23.71    1.53
   3  -1   8  103.97    8.28
   3  -1   8  130.75    7.64
  -3  -1  -8  115.31    7.88
  -3  -1  -8  129.28    7.63
  -3  -1  -8  138.37    7.98
   3  -1   8  127.95    7.62
   3   1   8  138.02    7.67
   3   1   8  126.93    7.65
  -3   1  -8  116.41    7.95
  -3   1  -8  126.53    7.60
  -3   1  -8  132.58    8.07
   4  -1   8   64.61    3.96
   4  -1   8   55.24    4.17
  -4  -1  -8   63.32    3.92
  -4  -1  -8   66.60    4.43
   4   1   8   66.90    4.02
  -4   1  -8   65.17    3.89
  -4   1  -8   64.70    4.24
  -4   1  -8   53.19    4.81
   4   1   8   67.55    4.07
   5  -1   8    9.19    1.14
  -5  -1  -8    6.03    1.00
   5  -1   8    4.54    1.51
  -5  -1  -8    5.66    1.01
  -5  -1  -8    7.59    0.74
   5  -1   8    8.07    0.83
  -5   1  -8    8.41    0.65
   5   1   8    7.91    0.91
   5   1   8    4.75    1.41
  -5   1  -8    6.86    1.06
  -6  -1  -8   84.04    4.95
  -6  -1  -8   77.83    5.37
  -6   1  -8   86.63    5.46
  -6   1  -8   69.07    5.13
  -7  -1  -8   16.50    1.97
  -7  -1  -8   14.84    1.28
  -7   1  -8   15.67    1.26
  -7   1  -8   16.34    2.00
   8  -2  -8   34.95    4.61
   8  -2  -8   32.74    3.15
  -8  -2   8   34.93    2.58
  -8  -2   8   35.78    2.47
  -8   2   8   37.91    2.53
  -8   2   8   37.51    2.82
   8   2  -8   43.78    3.24
  -8   2   8   33.42    2.57
   8   2  -8   39.57    4.39
  -7  -2   8   41.76    2.73
  -7  -2   8   39.99    2.79
   7  -2  -8   38.24    4.27
   7  -2  -8   35.78    3.20
   7   2  -8   40.48    3.19
   7   2  -8   47.99    4.15
  -7   2   8   41.54    2.78
  -7   2   8   41.70    2.75
  -7   2   8   42.76    2.91
   6  -2  -8  103.14    6.03
  -6  -2   8   94.39    5.90
   6  -2  -8  100.96    6.26
   6  -2  -8   90.27    7.03
  -6  -2   8   87.13    5.92
   6   2  -8   88.39    6.19
  -6   2   8   93.77    5.90
  -6   2   8   94.84    5.95
   6   2  -8  103.69    6.88
   5  -2  -8    1.55    0.46
   5  -2  -8    0.85    0.48
  -5  -2   8    1.04    0.32
   5  -2  -8    1.42    0.78
   5  -2  -8    0.62    0.53
  -5  -2   8    0.81    0.31
   5   2  -8    1.26    0.45
  -5   2   8    0.64    0.35
   5   2  -8    1.49    0.87
   4  -2  -8   83.61    5.21
  -4  -2   8   79.16    5.14
  -4  -2   8   73.45    5.14
   4  -2  -8   84.22    5.68
   4  -2  -8   87.10    5.49
   4   2  -8   86.81    5.10
   4   2  -8   86.31    5.26
  -4   2   8   82.59    5.10
  -4   2   8   85.87    5.13
   3  -2  -8  202.76   11.66
  -3  -2   8  182.45   12.02
  -3  -2   8  192.03   11.77
   3  -2  -8  162.78   11.63
  -3  -2   8  185.60   11.59
  -3  -2   8  189.05   11.55
   3   2  -8  201.67   11.51
  -3   2   8  184.42   11.74
  -3   2   8  196.46   11.53
  -3   2   8  191.85   11.52
   3   2  -8  203.58   11.60
  -3   2   8  196.19   11.49
  -3   2   8  201.02   11.57
  -2  -2   8    3.70    0.43
   2  -2  -8    4.72    0.66
   2  -2  -8    2.84    0.46
  -2  -2   8    4.02    0.30
  -2  -2   8    3.60    0.35
  -2  -2   8    4.17    0.72
  -2  -2   8    4.97    0.71
  -2  -2   8    2.62    0.44
   2  -2  -8    3.62    0.40
  -2  -2   8    3.65    0.39
   2  -2  -8    2.81    0.58
  -2  -2   8    3.67    0.46
  -2   2   8    3.51    0.33
   2   2  -8    3.28    0.33
  -2   2   8    5.04    0.64
  -2   2   8    3.90    0.45
  -2   2   8    4.47    0.35
  -2   2   8    2.94    0.74
   2   2  -8    3.35    0.29
  -1  -2   8  160.28    9.63
  -1  -2   8  172.76    9.62
   1  -2  -8  145.39    9.91
   1  -2  -8  164.42    9.63
  -1  -2   8  153.96    9.69
  -1  -2   8  163.97    9.90
  -1   2   8  167.53    9.64
   1   2  -8  156.05    9.63
  -1   2   8  163.94    9.96
  -1   2   8  159.89    9.77
  -1   2   8  168.05    9.83
  -1   2   8  158.01    9.64
  -1   2   8  156.97    9.74
   1   2  -8  160.71    9.75
   1   2  -8  155.51    9.69
   0  -2  -8    8.73    0.58
   0  -2   8    7.66    0.64
   0  -2   8    8.22    0.58
   0  -2   8    8.97    0.56
   0  -2  -8   10.03    0.64
   0  -2   8    7.69    0.92
   0  -2  -8    8.26    0.89
   0  -2   8    8.58    0.87
   0   2  -8    9.17    0.78
   0   2   8    8.70    0.74
   0   2   8    8.76    0.83
   0   2   8    8.80    0.61
   0   2   8    8.68    0.76
   0   2  -8    8.50    0.71
   0   2  -8    9.72    0.63
   0   2   8    9.32    0.78
   1  -2   8   17.37    1.10
  -1  -2  -8   16.06    1.18
  -1  -2  -8   18.38    1.15
   1  -2   8   17.84    1.54
   1  -2   8   18.13    1.16
   1  -2   8   17.85    1.10
   1  -2   8   18.79    1.11
   1  -2   8   18.15    1.56
  -1  -2  -8   16.31    1.31
   1   2   8   17.37    1.45
  -1   2  -8   16.55    1.21
   1   2   8   18.33    1.15
  -1   2  -8   18.25    1.18
   1   2   8   18.42    1.23
  -1   2  -8   17.35    1.41
   1   2   8   17.78    1.41
   1   2   8   18.26    1.36
  -2  -2  -8    8.51    0.83
  -2  -2  -8    8.65    0.90
   2  -2   8    9.88    0.66
  -2  -2  -8    9.75    0.79
   2  -2   8    9.32    1.28
  -2  -2  -8   11.23    0.85
  -2  -2  -8    9.90    0.70
   2  -2   8    9.65    1.24
   2  -2   8    8.71    0.89
   2  -2   8    8.94    0.67
  -2   2  -8    9.11    1.07
  -2   2  -8    9.43    0.64
  -2   2  -8   10.28    1.03
  -2   2  -8   11.68    0.74
   2   2   8   10.69    0.70
   2   2   8   11.50    1.06
   2   2   8   11.07    0.71
   2   2   8    8.14    1.07
   3  -2   8  270.17   19.51
  -3  -2  -8  333.28   19.56
  -3  -2  -8  322.02   19.31
   3  -2   8  321.65   19.26
  -3  -2  -8  363.16   19.59
   3  -2   8  285.35   20.06
   3  -2   8  352.68   19.32
  -3   2  -8  325.25   19.28
   3   2   8  322.48   19.32
   3   2   8  291.40   19.22
  -3   2  -8  304.10   19.66
  -3   2  -8  341.40   19.50
   3   2   8  326.41   19.22
   3   2   8  340.51   19.32
  -3   2  -8  333.38   19.25
  -4  -2  -8    1.61    0.29
   4  -2   8    2.09    0.56
   4  -2   8    2.61    0.35
  -4  -2  -8    1.94    0.49
   4  -2   8    3.15    0.40
   4  -2   8    1.73    0.24
  -4  -2  -8    2.94    0.65
  -4  -2  -8    1.93    0.63
  -4   2  -8    2.20    0.52
  -4   2  -8    2.03    0.29
   4   2   8    2.52    0.49
   4   2   8    0.66    0.76
  -4   2  -8    1.67    0.73
  -5  -2  -8  337.74   20.24
  -5  -2  -8  307.12   20.52
  -5   2  -8  350.80   20.19
  -5   2  -8  351.40   20.69
  -6  -2  -8    4.71    0.67
   6  -2   8    2.63    1.57
  -6  -2  -8    6.47    1.14
  -6   2  -8    5.77    0.63
  -6   2  -8    6.24    1.12
  -7  -2  -8   49.59    3.28
  -7  -2  -8   52.24    3.77
  -7   2  -8   49.55    3.21
  -7   2  -8   48.58    3.82
   8  -3  -8   17.83    2.25
   8  -3  -8   12.75    2.20
  -8  -3   8   18.21    1.53
   8  -3  -8   21.47    4.05
  -8  -3   8   18.55    1.44
   8   3  -8   18.94    2.09
  -8   3   8   16.68    1.53
  -8   3   8   17.61    1.46
   8   3  -8   18.91    3.31
  -8   3   8   20.59    2.04
   7  -3  -8   17.75    3.21
   7  -3  -8   20.78    2.07
   7  -3  -8   15.08    2.00
  -7  -3   8   19.33    1.55
  -7  -3   8   19.01    1.49
   7   3  -8   21.97    1.97
  -7   3   8   20.58    1.78
   7   3  -8   23.74    2.81
  -7   3   8   18.48    1.50
   6  -3  -8   17.28    2.59
  -6  -3   8   17.63    1.28
  -6  -3   8   14.89    1.31
   6  -3  -8   18.31    1.77
   6   3  -8   18.75    2.20
  -6   3   8   14.53    1.22
  -6   3   8   14.72    1.38
   6   3  -8   15.58    1.52
   5  -3  -8  177.85   11.68
   5  -3  -8  184.01   11.14
   5  -3  -8  192.42   10.92
  -5  -3   8  171.09   10.81
  -5  -3   8  159.15   10.84
  -5   3   8  174.35   10.74
  -5   3   8  183.04   10.83
   5   3  -8  178.04   11.14
  -4  -3   8    0.44    0.27
   4  -3  -8    0.58    0.37
   4  -3  -8    0.04    0.52
   4  -3  -8    0.97    0.56
  -4  -3   8    0.48    0.25
   4  -3  -8    1.43    0.44
   4   3  -8    1.20    0.31
   4   3  -8    1.21    0.25
  -4   3   8    1.31    0.34
  -4   3   8    1.03    0.25
  -4   3   8    0.50    0.71
  -3  -3   8  205.03   13.30
   3  -3  -8  236.84   13.44
   3  -3  -8  223.43   13.63
  -3  -3   8  217.66   13.25
   3  -3  -8  245.44   13.70
   3  -3  -8  201.19   13.36
  -3  -3   8  209.94   13.32
   3   3  -8  232.12   13.31
   3   3  -8  232.70   13.24
  -3   3   8  201.38   13.45
  -3   3   8  227.96   13.33
  -3   3   8  215.00   13.23
   3   3  -8  225.06   13.37
  -3   3   8  217.85   13.25
  -3   3   8  217.68   13.25
   2  -3  -8   32.24    2.37
   2  -3  -8   31.90    2.22
  -2  -3   8   31.69    2.00
  -2  -3   8   32.01    1.99
  -2  -3   8   29.80    2.03
   2  -3  -8   33.47    2.06
  -2  -3   8   31.57    2.08
  -2  -3   8   34.89    2.46
  -2  -3   8   26.92    2.08
  -2   3   8   32.66    2.00
   2   3  -8   32.18    2.12
   2   3  -8   32.30    1.97
   2   3  -8   33.08    1.96
  -2   3   8   32.04    2.21
  -2   3   8   31.88    2.00
   2   3  -8   32.84    2.02
  -2   3   8   29.62    2.09
  -1  -3   8    8.63    0.54
   1  -3  -8    9.56    1.02
   1  -3  -8    8.78    0.60
   1  -3  -8    5.98    0.81
  -1  -3   8    7.80    0.74
  -1  -3   8    7.56    0.84
  -1  -3   8    8.25    0.60
   1  -3  -8    7.79    0.61
  -1  -3   8    8.33    0.66
  -1  -3   8    7.88    0.63
  -1   3   8    7.95    0.58
  -1   3   8    8.36    0.75
  -1   3   8    9.42    0.80
  -1   3   8    8.28    0.72
  -1   3   8    8.43    0.59
   1   3  -8    7.57    0.69
  -1   3   8    6.56    1.03
   0  -3   8   42.52    2.95
   0  -3  -8   41.21    2.60
   0  -3   8   40.53    2.55
   0  -3  -8   41.51    2.62
   0  -3   8   43.75    2.61
   0  -3  -8   39.64    2.88
   0  -3   8   43.20    2.66
   0  -3   8   39.19    2.69
   0  -3   8   41.93    2.61
   0  -3   8   40.85    2.85
   0  -3  -8   42.58    2.63
   0   3   8   43.16    2.72
   0   3   8   42.62    2.62
   0   3  -8   42.34    2.65
   0   3  -8   41.74    2.81
   0   3   8   45.12    2.83
   0   3   8   45.40    2.75
   0   3   8   43.29    2.83
   0   3   8   44.92    2.78
   0   3  -8   43.30    2.71
   1  -3   8  111.48    8.22
  -1  -3  -8  133.58    8.13
  -1  -3  -8  133.12    7.95
   1  -3   8  128.03    8.27
   1  -3   8  131.37    7.87
   1  -3   8  131.84    8.41
   1  -3   8  126.58    7.95
  -1  -3  -8  134.93    7.98
   1  -3   8  128.88    7.87
   1  -3   8  130.94    7.93
   1   3   8  134.20    8.18
   1   3   8  126.69    8.12
  -1   3  -8  142.96    7.99
  -1   3  -8  140.93    8.02
   1   3   8  137.15    7.99
   1   3   8  137.56    7.95
  -1   3  -8  127.31    8.23
   1   3   8  133.79    8.22
   2  -3   8    0.93    0.15
   2  -3   8    0.95    0.18
  -2  -3  -8    0.45    0.31
   2  -3   8    1.22    0.51
   2  -3   8    1.62    0.71
   2  -3   8    0.76    0.35
  -2  -3  -8    0.60    0.16
   2   3   8    0.33    0.50
   2   3   8    0.44    0.40
   2   3   8    0.72    0.20
   2   3   8    1.34    0.37
  -2   3  -8    1.19    0.52
   2   3   8    0.79    0.18
  -3  -3  -8  157.38   10.40
  -3  -3  -8  174.02   10.41
   3  -3   8  143.06   11.16
   3  -3   8  163.97   10.37
  -3  -3  -8  182.25   10.57
   3  -3   8  191.23   10.39
  -3   3  -8  179.74   10.40
   3   3   8  175.97   10.33
  -3   3  -8  162.55   10.80
  -3   3  -8  189.28   10.57
   3   3   8  181.37   10.41
  -3   3  -8  167.41   10.31
   4  -3   8   33.77    2.19
  -4  -3  -8   37.95    2.59
  -4  -3  -8   35.87    2.26
   4  -3   8   29.41    2.55
  -4  -3  -8   37.98    2.57
  -4   3  -8   37.85    2.50
  -4   3  -8   34.63    2.77
  -4   3  -8   34.38    2.16
   4   3   8   35.94    2.32
   4   3   8   30.89    2.85
  -5  -3  -8    8.42    1.29
  -5  -3  -8   10.05    1.45
   5  -3   8    5.85    1.81
  -5  -3  -8    9.60    0.83
  -5   3  -8    9.61    0.71
  -5   3  -8   10.67    1.47
  -6  -3  -8   37.49    3.12
  -6  -3  -8   43.09    2.74
  -6   3  -8   41.54    3.34
  -6   3  -8   42.11    2.64
  -7  -3  -8   28.87    2.73
  -7  -3  -8   34.77    2.23
   7   3   8   23.04    4.19
  -7   3  -8   39.39    3.62
   8  -4  -8    2.57    2.22
   8  -4  -8    2.02    1.09
  -8  -4   8    2.27    0.56
  -8  -4   8    2.48    0.63
   8  -4  -8    2.10    1.17
  -8   4   8    2.72    0.66
   8   4  -8    3.20    1.74
   8   4  -8    2.16    0.95
  -8   4   8    4.39    1.09
  -7  -4   8   20.73    1.63
  -7  -4   8   20.78    1.57
   7  -4  -8   18.68    3.54
   7  -4  -8   19.74    2.17
   7   4  -8   23.39    2.94
  -7   4   8   18.78    1.56
  -7   4   8   19.80    1.89
   7   4  -8   22.40    2.02
   6  -4  -8   25.65    2.32
   6  -4  -8   20.74    2.19
   6  -4  -8   24.07    3.24
  -6  -4   8   24.97    1.82
  -6  -4   8   26.58    1.85
  -6   4   8   25.87    2.12
  -6   4   8   25.84    1.78
   6   4  -8   28.66    2.08
   5  -4  -8    4.37    0.84
  -5  -4   8    4.67    0.66
   5  -4  -8    4.90    0.94
  -5  -4   8    5.07    0.65
   5  -4  -8    4.44    1.23
  -5   4   8    4.22    0.67
  -5   4   8    5.11    0.55
   5   4  -8    6.62    1.31
   5   4  -8    4.87    0.71
  -4  -4   8   36.18    2.52
   4  -4  -8   34.77    2.58
  -4  -4   8   38.48    2.44
   4  -4  -8   37.82    3.00
  -4   4   8   38.10    2.47
  -4   4   8   31.71    2.39
   4   4  -8   37.95    2.38
   4   4  -8   39.43    2.46
   3  -4  -8   77.35    4.84
  -3  -4   8   65.12    4.47
   3  -4  -8   72.30    4.55
   3  -4  -8   66.08    4.61
   3  -4  -8   72.33    4.80
  -3  -4   8   68.90    4.42
  -3  -4   8   71.59    4.47
  -3   4   8   74.85    4.41
   3   4  -8   76.00    4.47
  -3   4   8   71.03    4.51
   3   4  -8   73.54    4.39
   2  -4  -8    7.24    0.90
  -2  -4   8    7.18    0.58
   2  -4  -8    7.35    0.65
   2  -4  -8    9.23    0.86
  -2  -4   8    7.43    1.03
  -2  -4   8    7.69    0.85
  -2  -4   8    6.64    0.76
  -2  -4   8    6.84    0.62
  -2  -4   8    7.48    0.67
  -2  -4   8    7.38    0.54
   2  -4  -8    7.67    1.05
   2   4  -8    7.64    0.75
  -2   4   8    6.50    0.72
   2   4  -8    7.24    0.59
  -2   4   8    6.36    0.56
  -2   4   8    7.52    0.90
   2   4  -8    7.82    0.60
  -2   4   8    7.86    0.64
   2   4  -8    7.26    0.52
  -1  -4   8  134.08    8.27
  -1  -4   8  120.54    8.27
  -1  -4   8  142.24    8.56
  -1  -4   8  136.84    8.24
   1  -4  -8  138.82    8.24
   1  -4  -8  134.70    8.24
  -1  -4   8  133.43    8.26
   1  -4  -8  143.63    8.56
   1  -4  -8  127.52    8.45
   1   4  -8  130.18    8.32
  -1   4   8  139.97    8.37
   1   4  -8  140.78    8.32
  -1   4   8  147.96    8.38
  -1   4   8  137.36    8.22
   0  -4  -8  213.86   13.67
   0  -4   8  241.91   13.87
   0  -4   8  232.89   13.75
   0  -4   8  219.82   13.71
   0  -4   8  233.08   14.09
   0  -4  -8  237.18   13.98
   0  -4  -8  214.28   13.69
   0  -4   8  221.16   13.69
   0  -4  -8  222.60   13.69
   0   4   8  243.91   13.78
   0   4  -8  222.55   13.92
   0   4  -8  240.38   13.77
   0   4   8  237.12   13.74
   0   4   8  213.91   13.81
   0   4   8  224.98   13.68
   0   4   8  231.42   13.88
   1  -4   8   35.74    2.47
  -1  -4  -8   38.11    2.60
  -1  -4  -8   36.48    2.35
   1  -4   8   36.39    2.85
   1  -4   8   39.42    2.69
   1  -4   8   36.72    2.36
  -1   4  -8   39.65    2.43
   1   4   8   36.99    2.62
   1   4   8   38.40    2.39
   1   4   8   40.97    2.44
  -1   4  -8   38.27    2.40
  -1   4  -8   31.83    2.68
   2  -4   8  255.78   16.14
  -2  -4  -8  267.05   15.54
   2  -4   8  224.52   15.56
   2  -4   8  254.41   15.39
   2  -4   8  254.57   15.79
  -2  -4  -8  260.65   15.39
   2   4   8  268.75   15.74
  -2   4  -8  269.93   15.44
  -2   4  -8  232.44   15.76
  -2   4  -8  266.45   15.47
   2   4   8  264.90   15.38
  -3  -4  -8    0.39    0.32
  -3  -4  -8    0.49    0.23
   3  -4   8    0.32    0.19
   3  -4   8    0.26    0.35
  -3  -4  -8    0.39    0.31
   3  -4   8    0.04    0.66
   3   4   8    1.14    0.71
  -3   4  -8    1.28    0.72
   3   4   8    0.44    0.66
  -4  -4  -8   16.17    1.55
   4  -4   8   14.79    2.46
  -4  -4  -8   16.64    1.33
   4  -4   8   19.80    1.23
  -4  -4  -8   19.68    1.35
   4  -4   8   18.97    1.32
  -4  -4  -8   20.99    1.55
   4   4   8   18.94    2.15
   4   4   8   20.25    1.21
  -4   4  -8   21.74    1.33
  -4   4  -8   19.26    1.21
   4   4   8   21.36    1.40
  -4   4  -8   21.18    2.04
  -5  -4  -8   11.75    0.95
   5  -4   8   10.04    0.91
  -5   4  -8   11.76    0.80
  -5   4  -8   15.10    1.81
   5   4   8   10.33    2.23
   5   4   8   10.51    1.71
  -6  -4  -8   39.53    2.41
   6   4   8   31.05    3.48
   6   4   8   27.80    3.73
  -6   4  -8   39.81    3.09
   7  -5  -8    0.00    1.72
   7  -5  -8    0.71    0.97
  -7  -5   8    0.74    0.47
   7  -5  -8    1.82    1.00
  -7  -5   8    0.21    0.47
   7   5  -8    1.19    0.62
   7   5  -8    1.19    1.21
  -7   5   8    2.32    0.84
  -7   5   8    0.78    0.38
  -6  -5   8   42.24    2.70
   6  -5  -8   34.70    3.08
   6  -5  -8   40.89    3.21
  -6  -5   8   38.75    2.68
   6  -5  -8   37.34    4.18
  -6   5   8   40.58    2.63
  -6   5   8   35.76    2.86
   6   5  -8   45.53    2.89
  -5  -5   8   10.39    0.97
   5  -5  -8    9.17    1.23
   5  -5  -8    9.42    1.97
  -5  -5   8   10.35    0.92
   5  -5  -8   10.25    1.46
   5   5  -8   10.00    0.97
  -5   5   8    8.22    1.07
  -5   5   8    9.66    0.82
  -4  -5   8   21.37    1.46
   4  -5  -8   19.87    2.06
   4  -5  -8   21.11    1.69
  -4  -5   8   22.60    1.56
   4  -5  -8   21.13    1.91
  -4  -5   8   19.01    1.46
  -4   5   8   20.52    1.41
   4   5  -8   22.41    1.53
  -4   5   8   20.36    1.71
   4   5  -8   20.28    1.46
   3  -5  -8    2.17    0.45
   3  -5  -8    2.63    0.65
  -3  -5   8    2.02    0.33
  -3  -5   8    1.48    0.28
   3   5  -8    2.80    0.35
  -3   5   8    1.50    0.45
   3   5  -8    2.13    0.38
  -3   5   8    1.34    0.87
  -3   5   8    1.58    0.31
  -2  -5   8  240.57   14.34
  -2  -5   8  233.15   13.94
  -2  -5   8  209.02   13.94
  -2  -5   8  238.60   14.06
   2  -5  -8  246.83   14.07
   2  -5  -8  240.36   14.35
  -2  -5   8  235.01   14.01
   2   5  -8  224.96   14.02
   2   5  -8  236.46   13.92
  -2   5   8  229.53   13.97
   2   5  -8  237.04   14.00
  -2   5   8  220.21   14.11
  -1  -5   8   14.17    1.34
  -1  -5   8   13.43    1.05
   1  -5  -8   15.44    1.43
  -1  -5   8   15.47    1.05
  -1  -5   8   15.53    1.06
   1  -5  -8   14.41    1.04
   1  -5  -8   13.23    1.01
  -1  -5   8   14.50    0.90
  -1   5   8   14.49    1.20
  -1   5   8   15.05    1.31
   1   5  -8   11.97    1.23
   1   5  -8   15.15    0.89
   0  -5   8  177.96   11.28
   0  -5   8  198.23   11.40
   0  -5  -8  192.36   11.26
   0  -5   8  194.68   11.73
   0  -5  -8  193.58   11.56
   0  -5   8  186.84   11.32
   0  -5  -8  184.13   11.28
   0   5   8  195.05   11.33
   0   5  -8  164.73   11.52
   0   5   8  184.20   11.44
   0   5  -8  183.06   11.34
   1  -5   8   40.97    2.63
  -1  -5  -8   44.95    2.91
   1  -5   8   42.87    3.22
   1  -5   8   36.72    2.85
  -1  -5  -8   41.65    2.61
   1  -5   8   42.98    2.75
  -1   5  -8   44.42    2.69
  -1   5  -8   40.88    2.69
  -1   5  -8   36.38    3.02
   1   5   8   40.74    2.86
   1   5   8   41.90    2.64
   2  -5   8    2.32    0.36
  -2  -5  -8    3.45    0.59
  -2  -5  -8    2.21    0.34
  -2  -5  -8    2.88    0.46
   2  -5   8    2.92    0.93
   2  -5   8    2.65    0.50
   2   5   8    2.17    0.60
   2   5   8    2.66    0.39
  -2   5  -8    2.88    0.86
  -2   5  -8    3.59    0.52
  -2   5  -8    2.44    0.46
   3  -5   8   26.55    1.85
  -3  -5  -8   28.32    2.02
  -3  -5  -8   31.14    2.03
   3  -5   8   24.63    2.11
  -3  -5  -8   29.15    1.85
   3  -5   8   25.67    2.83
   3   5   8   29.25    2.35
  -3   5  -8   28.60    1.89
  -3   5  -8   29.41    2.48
   3   5   8   29.48    1.80
   4  -5   8   73.94    4.48
  -4  -5  -8   66.33    4.48
  -4  -5  -8   70.55    4.47
  -4   5  -8   76.57    5.12
   4   5   8   74.82    5.03
   5  -5   8    0.49    1.17
  -5  -5  -8    0.23    0.31
   5  -5   8    1.03    0.42
   5   5   8    1.69    1.13
  -5   5  -8    0.56    0.93
  -6  -5  -8   51.09    3.29
  -6   5  -8   50.81    4.02
   6   5   8   48.24    4.39
  -7  -6   8   19.64    1.58
   7  -6  -8   13.96    2.28
   7  -6  -8   15.90    3.89
   7  -6  -8   18.21    2.42
  -7  -6   8   18.73    1.55
   7   6  -8   19.79    1.82
  -7   6   8   18.01    1.47
  -7   6   8   17.36    2.03
  -6  -6   8   72.20    4.49
   6  -6  -8   72.99    4.99
  -6  -6   8   71.80    4.52
   6  -6  -8   62.15    4.91
   6  -6  -8   62.45    5.91
  -6   6   8   65.78    4.73
  -6   6   8   71.20    4.44
   6   6  -8   81.76    4.71
   5  -6  -8    0.55    1.07
   5  -6  -8    0.00    0.79
   5  -6  -8    0.64    0.58
  -5  -6   8    0.06    0.35
  -5  -6   8    1.13    0.43
   5   6  -8    0.32    0.33
   5   6  -8    0.73    0.83
  -5   6   8   -0.31    0.54
  -5   6   8    1.42    0.31
   4  -6  -8  127.01    8.25
  -4  -6   8  121.18    7.64
   4  -6  -8  118.07    7.94
  -4  -6   8  108.65    7.63
  -4  -6   8  125.14    7.56
   4  -6  -8  123.61    7.81
   4   6  -8  138.32    7.68
  -4   6   8  132.44    7.74
  -4   6   8  122.17    7.53
   4   6  -8  120.95    7.58
  -3  -6   8   36.17    2.56
   3  -6  -8   39.63    2.87
   3  -6  -8   37.18    2.90
   3  -6  -8   39.75    2.66
  -3  -6   8   38.67    2.44
  -3  -6   8   39.51    2.84
  -3  -6   8   37.45    2.51
  -3   6   8   38.66    2.45
   3   6  -8   39.13    2.44
   3   6  -8   40.28    2.55
  -3   6   8   37.03    2.64
  -2  -6   8   25.28    1.80
  -2  -6   8   26.25    1.76
   2  -6  -8   29.72    2.22
  -2  -6   8   26.57    1.68
  -2  -6   8   25.53    1.63
   2  -6  -8   25.64    1.83
  -2   6   8   25.39    1.69
   2   6  -8   25.85    1.88
   2   6  -8   25.39    1.63
  -2   6   8   26.84    1.92
  -1  -6   8   57.98    4.05
   1  -6  -8   58.50    3.97
   1  -6  -8   58.37    3.60
  -1  -6   8   59.70    3.65
   1  -6  -8   57.41    3.59
   1  -6  -8   56.72    3.65
  -1  -6   8   56.48    3.60
  -1   6   8   61.31    3.79
   1   6  -8   51.93    3.85
   0  -6   8   14.30    1.11
   0  -6   8   12.11    0.99
   0  -6   8   12.79    1.01
   0  -6  -8   12.07    0.92
   0  -6  -8   14.05    1.40
   0  -6  -8   12.70    0.93
   0  -6  -8   12.21    0.99
   0   6  -8   12.69    1.50
   0   6   8   14.02    1.21
  -1  -6  -8    1.20    0.26
  -1  -6  -8    0.95    0.23
   1  -6   8    1.13    0.36
  -1  -6  -8    1.12    0.30
   1  -6   8    0.98    0.28
  -1  -6  -8    2.03    0.59
   1  -6   8    0.77    0.58
  -1   6  -8    0.91    0.42
   1   6   8    1.79    0.45
   1   6   8    1.47    0.49
  -1   6  -8    1.17    0.76
   2  -6   8   87.19    5.43
  -2  -6  -8   90.70    5.51
   2  -6   8   84.56    5.60
  -2  -6  -8   86.65    5.39
  -2  -6  -8   86.47    5.64
   2  -6   8   80.70    6.25
   2   6   8   94.07    5.74
  -2   6  -8   92.07    5.51
   2   6   8   88.77    5.40
   3  -6   8   75.82    4.58
  -3  -6  -8   71.01    4.73
   3  -6   8   63.23    5.58
  -3  -6  -8   72.46    4.54
   3   6   8   76.73    4.99
   3   6   8   74.87    4.50
  -3   6  -8   80.41    5.26
   4  -6   8   22.12    1.50
  -4  -6  -8   19.16    1.60
  -4  -6  -8   19.64    1.41
   4  -6   8   15.60    2.81
   4   6   8   19.50    2.12
  -4   6  -8   21.46    2.32
  -5  -6  -8  107.19    6.90
   5   6   8  115.87    7.58
  -5   6  -8  114.24    7.59
   6  -7  -8    0.66    1.00
  -6  -7   8    1.66    0.56
   6  -7  -8    1.23    0.82
   6  -7  -8   -0.86    1.64
  -6  -7   8    1.68    0.50
  -6   7   8    1.14    0.40
   6   7  -8    0.77    0.57
  -6   7   8    0.13    0.88
   6   7  -8    1.91    1.29
  -5  -7   8  121.70    7.54
  -5  -7   8  120.07    7.66
   5  -7  -8  116.28    7.93
   5  -7  -8  123.69    8.05
  -5   7   8  125.03    7.83
  -5   7   8  122.77    7.53
   5   7  -8  131.32    7.72
  -4  -7   8    5.60    0.75
  -4  -7   8    4.67    0.56
  -4  -7   8    4.67    0.97
   4  -7  -8    4.50    1.10
   4  -7  -8    4.90    0.86
   4  -7  -8    4.33    1.09
  -4   7   8    4.21    0.55
   4   7  -8    7.50    1.59
   4   7  -8    4.84    0.70
  -4   7   8    4.82    0.86
   3  -7  -8   61.40    4.46
  -3  -7   8   65.94    4.48
  -3  -7   8   64.56    3.97
   3  -7  -8   68.94    4.42
   3  -7  -8   65.14    4.25
  -3  -7   8   60.46    4.15
  -3   7   8   63.70    4.02
  -3   7   8   67.52    4.28
  -2  -7   8   11.78    0.92
   2  -7  -8   12.32    1.10
   2  -7  -8   14.29    1.55
  -2  -7   8   12.07    0.79
  -2  -7   8   12.14    0.98
  -2  -7   8   12.69    1.39
  -2  -7   8   12.18    1.05
   2   7  -8   10.93    1.35
  -2   7   8   11.17    0.88
  -2   7   8   11.78    1.16
  -2   7   8   12.34    1.17
  -1  -7   8    2.00    0.37
   1  -7  -8    1.86    0.33
  -1  -7   8    2.15    0.43
   1  -7  -8    2.36    0.42
  -1  -7   8    2.19    0.70
   1  -7  -8    0.93    0.69
   1  -7  -8    2.66    0.37
  -1  -7   8    2.36    0.43
   1   7  -8    2.37    0.83
  -1   7   8    1.88    0.32
  -1   7   8    1.99    0.54
   0  -7   8    3.26    0.54
   0  -7  -8    3.57    0.44
   0  -7   8    3.76    0.97
   0  -7  -8    3.79    0.57
   0  -7  -8    4.01    0.91
   0  -7   8    2.86    0.47
   0  -7  -8    3.50    0.44
   0  -7   8    2.09    0.52
   0   7  -8    2.38    0.92
   0   7   8    3.67    0.70
  -1  -7  -8  109.25    6.74
   1  -7   8  105.88    6.60
   1  -7   8  108.28    7.38
  -1  -7  -8  107.98    6.53
  -1  -7  -8  107.34    6.62
   1   7   8  106.32    6.80
  -1   7  -8  102.33    7.11
   2  -7   8    9.84    0.93
  -2  -7  -8    9.42    0.95
  -2  -7  -8    9.51    0.80
   2  -7   8   10.89    1.89
  -2  -7  -8   11.45    1.39
  -2   7  -8   11.70    1.69
   2   7   8    9.11    1.28
   3  -7   8   52.11    3.35
  -3  -7  -8   47.36    3.26
  -3  -7  -8   51.70    3.56
  -3   7  -8   55.67    4.13
   3   7   8   53.90    3.72
   4  -7   8   21.87    3.39
   4  -7   8   28.65    1.92
  -4  -7  -8   25.52    1.79
   4   7   8   25.20    2.46
  -4   7  -8   25.35    2.84
   5  -7   8    0.24    1.67
   5   7   8    0.32    1.22
  -5   7  -8   -0.11    1.28
   5  -8  -8    1.97    1.05
  -5  -8   8    1.94    0.63
   5  -8  -8    1.78    0.75
  -5  -8   8    2.28    0.80
  -5  -8   8    2.72    0.47
   5   8  -8    2.96    0.60
  -5   8   8    3.11    0.89
  -5   8   8    2.18    0.45
   4  -8  -8    9.42    1.32
   4  -8  -8    7.90    1.35
  -4  -8   8   10.27    1.43
  -4  -8   8    8.98    1.13
  -4  -8   8    9.18    0.78
  -4   8   8   10.75    0.86
  -4   8   8    9.34    1.25
  -3  -8   8   45.78    3.34
  -3  -8   8   51.37    3.73
   3  -8  -8   43.61    3.69
  -3  -8   8   51.91    3.11
   3  -8  -8   51.64    3.48
  -3   8   8   53.39    3.20
  -3   8   8   53.71    3.53
  -2  -8   8    1.06    0.47
  -2  -8   8    0.42    0.62
   2  -8  -8    0.50    0.41
   2  -8  -8    0.65    0.82
   2   8  -8   -0.36    0.84
  -2   8   8    0.51    0.58
  -2   8   8    0.84    0.26
   1  -8  -8  130.37    8.93
  -1  -8   8  141.27    9.14
  -1  -8   8  138.02    8.59
   1  -8  -8  139.67    8.50
   1  -8  -8  144.41    8.63
  -1   8   8  150.42    8.48
  -1   8   8  151.87    8.77
   1   8  -8  116.38    8.89
   0  -8   8   25.09    1.88
   0  -8  -8   26.72    2.40
   0  -8  -8   28.01    1.90
   0  -8   8   26.81    2.57
   0  -8  -8   25.62    1.76
   0   8   8   27.00    2.12
   0   8  -8   20.63    2.55
   1  -8   8   61.87    4.81
  -1  -8  -8   60.35    3.79
   1  -8   8   59.08    3.88
  -1  -8  -8   60.14    4.29
  -1  -8  -8   59.11    3.90
   1   8   8   63.74    4.14
  -1   8  -8   58.32    4.61
  -2  -8  -8   52.29    3.28
  -2  -8  -8   50.55    3.41
   2  -8   8   53.17    3.40
   2  -8   8   49.38    4.49
  -2  -8  -8   46.99    3.72
  -2   8  -8   51.68    4.23
   2   8   8   56.95    3.71
  -3  -8  -8    1.88    0.55
  -3  -8  -8    2.67    0.89
  -3  -8  -8    1.32    0.37
   3  -8   8    2.15    0.58
   3  -8   8    3.14    1.54
   3   8   8    3.19    0.97
  -3   8  -8   -0.01    1.29
   4  -8   8    6.41    2.16
  -4  -8  -8    8.17    0.93
   4  -8   8    9.35    1.18
   4   8   8    9.10    1.49
  -4   8  -8    8.35    1.77
   4  -9  -8   19.08    1.99
  -4  -9   8   20.24    2.15
  -4  -9   8   21.18    1.93
  -4   9   8   21.09    1.49
  -4   9   8   19.27    2.14
   3  -9  -8    1.76    0.97
  -3  -9   8    0.74    0.60
   3  -9  -8    0.40    0.58
  -3  -9   8   -0.04    0.72
  -3   9   8    0.87    0.76
  -3   9   8    0.88    0.31
  -2  -9   8   92.19    6.11
   2  -9  -8   96.19    6.18
   2  -9  -8   88.63    6.48
  -2  -9   8   99.73    6.66
  -2   9   8   99.34    5.93
  -2   9   8  100.71    6.28
   1  -9  -8   19.07    2.26
   1  -9  -8   21.35    1.69
  -1  -9   8   19.84    1.66
  -1  -9   8   19.35    2.29
   1   9  -8   16.60    2.58
  -1   9   8   21.59    1.43
  -1   9   8   20.59    1.87
   0  -9   8   41.70    3.67
   0  -9  -8   38.84    3.31
   0  -9   8   40.09    2.82
   0  -9  -8   41.95    2.67
   0  -9  -8   40.94    2.81
   0   9   8   41.86    3.03
   0   9  -8   38.72    3.65
  -1  -9  -8   40.05    3.31
  -1  -9  -8   39.44    2.63
   1  -9   8   37.58    3.78
  -1  -9  -8   41.74    2.82
   1  -9   8   40.39    2.80
  -1   9  -8   42.26    3.78
   1   9   8   41.60    3.07
  -2  -9  -8    0.55    0.33
  -2  -9  -8    0.20    1.03
  -2  -9  -8    1.45    0.52
   2  -9   8    1.13    1.28
   2  -9   8    0.13    0.56
  -2   9  -8    1.15    1.50
   2   9   8    1.16    0.88
  -8   0   9   -0.22    0.39
  -8   0   9    0.67    0.50
   8   0  -9   -0.33    1.44
   8   0  -9    0.34    0.80
  -7   0   9   -0.44    0.37
   7   0  -9    0.19    1.06
  -7   0   9   -0.04    0.39
   7   0  -9    0.14    0.65
  -6   0   9   -0.03    0.31
   6   0  -9   -0.46    0.82
  -6   0   9    0.28    0.37
   6   0  -9   -0.38    0.53
  -6   0   9    0.32    0.33
   6   0  -9    0.41    0.44
  -5   0   9   -0.06    0.24
  -5   0   9    0.25    0.25
   5   0  -9    0.17    0.82
   4   0  -9    0.19    0.21
  -4   0   9   -0.32    0.25
  -4   0   9    0.19    0.19
   4   0  -9    0.31    0.31
   4   0  -9    0.37    0.45
  -4   0   9   -0.02    0.16
  -3   0   9   -0.01    0.46
  -3   0   9    0.12    0.19
  -3   0   9    0.07    0.15
   3   0  -9   -0.07    0.11
   3   0  -9    0.07    0.32
  -3   0   9    0.25    0.50
   3   0  -9    0.00    0.23
  -3   0   9    0.03    0.22
  -3   0   9    0.03    0.14
  -3   0   9    0.21    0.09
  -2   0   9    0.25    0.19
  -2   0   9   -0.07    0.10
   2   0  -9    0.06    0.15
  -2   0   9   -0.01    0.34
  -2   0   9    0.31    0.22
  -2   0   9    0.03    0.40
  -2   0   9   -0.05    0.20
   2   0  -9    0.52    0.39
  -2   0   9    0.20    0.12
  -1   0   9   -0.01    0.18
  -1   0   9    0.34    0.25
  -1   0   9   -0.55    0.35
  -1   0   9    0.06    0.27
  -1   0   9    0.16    0.10
   1   0  -9    0.24    0.33
  -1   0   9   -0.04    0.25
  -1   0   9    0.08    0.18
   0   0   9    0.02    0.31
   0   0   9    0.14    0.08
   0   0   9    0.21    0.09
   0   0   9    0.04    0.23
   0   0   9    0.37    0.31
   0   0   9    0.31    0.16
   0   0  -9    0.40    0.23
   0   0   9    0.19    0.29
  -1   0  -9   -0.05    0.26
   1   0   9    0.10    0.13
   1   0   9   -0.41    0.36
   1   0   9    0.87    0.29
   1   0   9    0.28    0.32
   1   0   9    0.14    0.10
   1   0   9    0.03    0.33
  -1   0  -9    0.10    0.19
  -1   0  -9    0.11    0.10
   2   0   9    0.50    0.44
   2   0   9    0.14    0.12
  -2   0  -9    0.17    0.26
   2   0   9   -0.04    0.10
  -2   0  -9    0.24    0.29
   2   0   9    0.55    0.20
  -2   0  -9    0.09    0.10
  -2   0  -9    0.11    0.34
   2   0   9    0.19    0.56
  -3   0  -9    0.13    0.38
  -3   0  -9    0.26    0.13
   3   0   9    0.29    0.57
  -3   0  -9    0.08    0.48
   3   0   9    0.16    0.07
  -3   0  -9    0.10    0.39
   3   0   9    0.27    0.18
   3   0   9    0.18    0.11
   3   0   9    0.49    0.18
  -4   0  -9    0.29    0.47
   4   0   9    0.26    0.26
   4   0   9    0.06    0.70
   4   0   9    0.52    0.32
  -4   0  -9    0.43    0.18
  -4   0  -9    0.73    0.58
   5   0   9    0.44    1.06
  -5   0  -9    0.47    0.77
  -5   0  -9    0.27    0.23
  -6   0  -9    0.73    0.32
   6   0   9    1.01    1.48
  -6   0  -9   -0.98    0.84
  -7   0  -9    0.56    1.07
   7   0   9    0.02    1.73
  -7   0  -9   -0.49    0.40
   8  -1  -9    0.89    0.87
  -8  -1   9    0.74    0.45
   8  -1  -9    0.73    1.54
  -8  -1   9   -0.08    0.49
  -8   1   9    0.44    0.46
   8   1  -9    0.52    0.83
   8   1  -9    1.08    1.47
  -8   1   9    0.31    0.50
   7  -1  -9   48.06    4.50
  -7  -1   9   47.95    3.04
  -7  -1   9   41.80    3.09
   7  -1  -9   41.46    3.53
  -7   1   9   47.83    3.14
   7   1  -9   49.03    3.57
  -7   1   9   46.07    3.09
  -7   1   9   47.16    3.07
  -6  -1   9    8.73    0.89
   6  -1  -9    8.21    1.06
   6  -1  -9    7.82    1.32
   6  -1  -9    8.19    1.78
  -6  -1   9    7.98    0.85
  -6   1   9   11.02    0.94
   6   1  -9    7.50    1.19
  -6   1   9    7.75    0.84
  -6   1   9    8.75    0.89
   6   1  -9   10.91    1.72
  -5  -1   9   75.12    4.61
  -5  -1   9   67.46    4.44
   5  -1  -9   79.59    4.66
  -5  -1   9   65.49    4.79
  -5  -1   9   81.88    4.44
  -5   1   9   71.17    4.65
  -5   1   9   70.61    4.56
  -5   1   9   74.39    4.74
   4  -1  -9  103.35    6.45
  -4  -1   9  106.01    6.01
   4  -1  -9   98.97    6.17
   4  -1  -9  114.09    6.69
  -4  -1   9   98.08    6.09
  -4  -1   9   89.44    6.13
   4   1  -9   91.95    6.22
  -4   1   9   98.75    6.05
   4   1  -9   94.49    6.04
  -4   1   9  100.98    6.18
  -4   1   9   96.65    6.06
  -3  -1   9   20.52    1.30
  -3  -1   9   19.85    1.68
  -3  -1   9   17.54    1.22
  -3  -1   9   19.60    1.28
   3  -1  -9   20.54    1.69
  -3  -1   9   19.57    1.27
  -3  -1   9   18.22    1.78
  -3  -1   9   17.93    1.35
  -3   1   9   19.58    1.31
  -3   1   9   18.56    1.29
   3   1  -9   19.05    1.35
  -3   1   9   20.05    1.27
  -3   1   9   18.72    1.26
  -3   1   9   16.76    1.82
  -3   1   9   18.45    1.57
   3   1  -9   19.98    1.24
  -2  -1   9  148.57    9.05
   2  -1  -9  138.75    9.33
  -2  -1   9  167.28    9.55
  -2  -1   9  150.21    9.09
  -2  -1   9  148.17    9.35
  -2  -1   9  154.62    9.04
  -2  -1   9  138.12    9.12
  -2   1   9  153.15    9.13
  -2   1   9  158.54    9.05
  -2   1   9  152.04    9.12
  -2   1   9  134.19    9.27
  -2   1   9  149.92    9.05
  -2   1   9  154.34    9.53
   2   1  -9  154.95    9.05
  -1  -1   9   39.96    2.42
  -1  -1   9   40.47    2.68
  -1  -1   9   35.94    2.48
  -1  -1   9   39.58    2.40
   1  -1  -9   38.05    2.68
  -1  -1   9   35.65    2.71
  -1  -1   9   41.22    2.63
  -1   1   9   39.48    2.42
   1   1  -9   40.26    2.38
  -1   1   9   39.16    2.56
  -1   1   9   39.25    2.66
   1   1  -9   38.79    2.49
  -1   1   9   42.49    2.80
  -1   1   9   39.02    2.42
  -1   1   9   38.43    2.57
   0  -1   9   72.22    4.59
   0  -1   9   71.75    4.37
   0  -1  -9   61.73    4.29
   0  -1   9   69.12    4.57
   0  -1   9   73.57    4.29
   0  -1   9   73.52    4.62
   0  -1  -9   73.16    4.34
   0  -1   9   72.03    4.30
   0   1   9   68.08    4.55
   0   1   9   71.93    4.31
   0   1  -9   71.26    4.45
   0   1   9   73.67    4.54
   0   1   9   65.51    4.38
   0   1   9   76.92    4.52
   0   1   9   69.91    4.48
   0   1  -9   74.78    4.29
   1  -1   9  114.39    6.68
   1  -1   9  115.77    7.13
   1  -1   9  108.80    7.04
   1  -1   9  110.16    6.90
  -1  -1  -9  111.80    6.88
  -1  -1  -9  108.40    6.70
   1  -1   9  109.86    6.71
  -1   1  -9  112.24    6.73
   1   1   9  113.98    6.70
  -1   1  -9  106.14    6.91
   1   1   9  110.88    6.74
   1   1   9  116.62    7.06
   1   1   9  109.06    6.80
   1   1   9  108.87    6.94
  -1   1  -9  110.05    6.69
   2  -1   9    0.31    0.12
  -2  -1  -9    0.39    0.34
  -2  -1  -9    0.04    0.12
   2  -1   9    1.34    0.68
   2  -1   9    0.78    0.35
   2  -1   9    0.32    0.13
  -2  -1  -9    0.45    0.30
  -2  -1  -9    0.19    0.24
   2  -1   9    0.38    0.12
   2  -1   9    0.58    0.47
   2   1   9    0.62    0.46
   2   1   9    0.55    0.14
   2   1   9    0.43    0.18
   2   1   9    0.94    0.57
  -2   1  -9    0.56    0.12
  -2   1  -9    0.41    0.35
   2   1   9    0.31    0.14
  -2   1  -9    0.60    0.28
  -2   1  -9    0.21    0.39
   3  -1   9   56.95    3.36
   3  -1   9   53.16    3.47
   3  -1   9   53.02    3.34
  -3  -1  -9   54.16    3.67
  -3  -1  -9   54.96    3.35
  -3  -1  -9   58.24    3.69
   3  -1   9   43.52    4.02
   3  -1   9   50.28    3.28
  -3   1  -9   57.80    3.78
  -3   1  -9   52.30    3.72
   3   1   9   54.92    3.26
  -3   1  -9   55.38    3.31
   3   1   9   54.40    3.37
   3   1   9   59.07    3.34
   4  -1   9    2.85    1.35
  -4  -1  -9    6.68    0.99
   4  -1   9    5.29    0.82
  -4  -1  -9    4.97    0.50
  -4  -1  -9    5.29    1.06
   4  -1   9    5.67    0.59
  -4   1  -9    3.02    0.79
  -4   1  -9    5.38    0.46
   4   1   9    6.47    0.61
  -4   1  -9    4.42    0.86
  -5  -1  -9    1.20    0.71
  -5  -1  -9    2.30    0.38
   5  -1   9    1.52    1.20
  -5   1  -9    1.69    0.82
  -5   1  -9    2.90    0.37
   6  -1   9   -0.47    1.38
  -6  -1  -9   -0.06    0.88
  -6  -1  -9    0.16    0.33
  -6   1  -9    0.36    0.32
  -6   1  -9    0.18    0.81
   6   1   9   -0.11    1.29
  -7  -1  -9    0.93    1.04
   7  -1   9    0.59    1.76
  -7   1  -9    0.91    1.57
   7   1   9    0.24    1.91
  -8  -2   9    0.68    0.54
  -8  -2   9    0.34    0.42
   8  -2  -9   -0.31    0.87
   8  -2  -9    1.01    1.73
   8   2  -9    0.67    0.88
  -8   2   9    0.45    0.44
  -8   2   9   -0.72    0.50
   8   2  -9    0.79    1.50
  -7  -2   9    0.27    0.41
   7  -2  -9    0.88    1.19
   7  -2  -9    0.08    0.65
  -7  -2   9    0.58    0.39
   7   2  -9    0.40    0.62
  -7   2   9    1.34    0.60
   7   2  -9    0.43    1.05
  -7   2   9   -0.12    0.34
  -7   2   9    0.49    0.41
  -6  -2   9    2.84    0.55
  -6  -2   9    2.81    0.51
   6  -2  -9    3.54    0.92
   6  -2  -9    2.86    0.83
   6  -2  -9    2.52    1.12
   6  -2  -9    3.38    0.73
  -6   2   9    3.64    0.60
   6   2  -9    3.09    0.71
  -6   2   9    3.42    0.53
   6   2  -9    2.99    1.01
  -5  -2   9    2.01    0.42
   5  -2  -9    1.78    0.56
  -5  -2   9    1.72    0.39
   5  -2  -9    2.39    0.72
   5  -2  -9    3.02    0.61
   5  -2  -9    2.81    0.94
   5   2  -9    2.09    0.51
  -5   2   9    2.85    0.41
  -5   2   9    2.40    0.44
   5   2  -9    2.56    0.84
  -4  -2   9    4.95    0.56
   4  -2  -9    6.41    1.08
   4  -2  -9    6.48    0.98
  -4  -2   9    3.94    0.61
   4  -2  -9    4.92    0.78
   4  -2  -9    6.47    0.79
   4   2  -9    4.99    0.50
  -4   2   9    5.03    0.57
   4   2  -9    6.21    0.66
  -4   2   9    5.24    0.52
  -3  -2   9   -0.07    0.27
  -3  -2   9    0.59    0.18
  -3  -2   9   -0.22    0.60
  -3  -2   9    0.29    0.12
  -3  -2   9    0.13    0.18
  -3  -2   9    0.02    0.43
   3  -2  -9    0.58    0.47
   3  -2  -9    0.49    0.28
  -3  -2   9    0.20    0.09
   3  -2  -9    0.48    0.39
  -3  -2   9    0.10    0.22
   3  -2  -9    0.05    0.34
  -3   2   9    0.44    0.23
  -3   2   9   -0.19    0.49
   3   2  -9    0.48    0.49
   3   2  -9    0.31    0.13
  -3   2   9    0.58    0.46
  -3   2   9    0.35    0.17
  -3   2   9    0.33    0.16
  -3   2   9    0.37    0.11
   3   2  -9    0.12    0.17
  -2  -2   9    0.57    0.18
   2  -2  -9    0.53    0.42
  -2  -2   9    0.80    0.25
  -2  -2   9    0.76    0.47
  -2  -2   9    0.72    0.11
  -2  -2   9    0.69    0.25
   2  -2  -9    0.63    0.20
  -2  -2   9    1.17    0.22
  -2  -2   9    0.48    0.30
   2  -2  -9    0.62    0.37
  -2  -2   9    0.56    0.39
  -2   2   9    0.91    0.17
  -2   2   9    0.69    0.16
   2   2  -9    0.53    0.14
  -2   2   9    0.53    0.25
  -2   2   9    0.64    0.45
  -2   2   9    0.97    0.26
   2   2  -9    0.69    0.12
  -2   2   9    0.75    0.45
   2   2  -9    1.06    0.47
  -1  -2   9    0.83    0.12
  -1  -2   9    0.65    0.38
  -1  -2   9    0.77    0.31
   1  -2  -9    2.05    0.51
  -1  -2   9    1.36    0.46
   1  -2  -9    0.95    0.18
  -1  -2   9    0.65    0.20
  -1  -2   9    1.02    0.47
  -1  -2   9    1.05    0.16
  -1   2   9    0.12    0.26
  -1   2   9    0.63    0.13
  -1   2   9    0.40    0.13
   1   2  -9    0.68    0.22
  -1   2   9    0.37    0.33
  -1   2   9    0.64    0.33
  -1   2   9    0.61    0.29
   0  -2   9    2.12    0.54
   0  -2   9    3.05    0.58
   0  -2  -9    3.49    0.34
   0  -2  -9    3.39    0.59
   0  -2   9    3.01    0.26
   0  -2  -9    3.97    0.29
   0  -2   9    3.10    0.28
   0  -2   9    3.03    0.36
   0  -2   9    3.12    0.65
   0   2   9    3.77    0.32
   0   2  -9    2.81    0.44
   0   2   9    3.71    0.55
   0   2  -9    3.51    0.32
   0   2   9    3.78    0.48
   0   2  -9    3.14    0.48
   0   2   9    3.37    0.47
   0   2   9    2.96    0.52
  -1  -2  -9   16.79    1.20
   1  -2   9   17.40    1.44
   1  -2   9   17.14    1.57
   1  -2   9   18.46    1.10
  -1  -2  -9   18.28    1.16
   1  -2   9   18.71    1.10
   1  -2   9   18.06    1.64
  -1  -2  -9   17.58    1.33
   1  -2   9   17.35    1.16
   1   2   9   18.13    1.46
  -1   2  -9   17.90    1.43
  -1   2  -9   18.37    1.18
   1   2   9   16.47    1.39
  -1   2  -9   16.12    1.22
   1   2   9   17.70    1.51
   1   2   9   17.99    1.15
   1   2   9   16.76    1.23
  -2  -2  -9    6.43    0.76
   2  -2   9    8.24    0.88
   2  -2   9    8.43    0.59
   2  -2   9    6.53    0.76
  -2  -2  -9    9.52    0.63
   2  -2   9    8.99    0.59
   2  -2   9    8.36    1.22
  -2  -2  -9    8.67    0.91
   2  -2   9    7.43    1.14
   2   2   9    8.63    0.68
  -2   2  -9    8.76    1.28
  -2   2  -9    8.08    0.56
   2   2   9    8.67    1.11
   2   2   9    8.62    0.63
  -2   2  -9    9.34    0.75
   2   2   9    7.38    1.12
  -2   2  -9    6.56    1.00
   2   2   9    7.73    0.61
   3  -2   9    9.03    1.01
   3  -2   9   11.07    0.75
  -3  -2  -9    6.62    1.26
   3  -2   9   10.52    0.91
  -3  -2  -9   11.15    1.01
  -3  -2  -9   10.04    0.74
   3  -2   9    8.98    1.56
   3  -2   9    9.00    0.68
   3   2   9   10.14    0.70
   3   2   9   10.62    0.71
  -3   2  -9    8.84    1.25
   3   2   9    9.84    0.65
  -3   2  -9   10.86    0.94
  -3   2  -9    9.81    0.67
   4  -2   9    1.50    0.54
   4  -2   9    1.22    0.18
  -4  -2  -9    0.96    0.40
  -4  -2  -9    2.04    0.57
   4  -2   9    1.61    0.32
   4  -2   9    0.07    0.82
  -4  -2  -9    0.86    0.67
  -4   2  -9    1.72    0.50
  -4   2  -9    1.35    0.22
  -4   2  -9    0.78    0.64
   4   2   9    1.51    0.29
   4   2   9    1.36    0.84
   5  -2   9    0.07    0.96
  -5  -2  -9    1.18    0.32
  -5  -2  -9    2.08    0.81
  -5   2  -9    1.51    0.28
  -5   2  -9    0.68    0.78
   5   2   9    0.89    1.09
  -6  -2  -9    2.60    1.03
  -6  -2  -9    2.67    0.50
   6  -2   9    1.71    1.60
  -6   2  -9    3.92    1.04
  -6   2  -9    3.15    0.45
   6   2   9    1.84    1.56
   8  -3  -9    6.09    2.28
   8  -3  -9    3.08    1.07
  -8  -3   9    5.21    0.76
  -8  -3   9    6.19    0.91
  -8   3   9    4.16    0.74
   8   3  -9    4.05    1.01
  -8   3   9    7.48    0.91
  -8   3   9    7.27    1.16
   8   3  -9    6.28    2.18
   7  -3  -9   18.93    2.25
  -7  -3   9   24.32    1.74
   7  -3  -9   22.18    3.42
  -7  -3   9   22.86    1.78
   7  -3  -9   26.52    2.35
   7   3  -9   21.68    2.08
  -7   3   9   23.77    2.20
  -7   3   9   24.92    1.76
   6  -3  -9    0.47    0.61
   6  -3  -9    1.57    1.08
   6  -3  -9    2.13    0.82
  -6  -3   9    1.91    0.45
  -6  -3   9    1.75    0.45
  -6   3   9    1.89    0.55
   6   3  -9    1.82    0.51
   6   3  -9    2.46    1.04
  -6   3   9    1.06    0.35
  -5  -3   9   14.88    1.22
   5  -3  -9   12.32    1.46
   5  -3  -9   16.19    2.01
   5  -3  -9   16.76    1.56
  -5  -3   9   13.96    1.22
   5  -3  -9   17.84    1.73
   5   3  -9   18.33    1.36
  -5   3   9   15.91    1.15
  -5   3   9   15.40    1.26
   4  -3  -9   49.28    3.96
  -4  -3   9   57.72    3.79
   4  -3  -9   67.80    3.97
   4  -3  -9   67.04    4.36
   4  -3  -9   56.41    4.42
  -4  -3   9   56.91    3.86
  -4   3   9   52.18    3.77
   4   3  -9   64.67    3.83
  -4   3   9   64.61    3.80
   4   3  -9   61.31    3.71
  -3  -3   9    0.34    0.22
   3  -3  -9    0.65    0.41
  -3  -3   9    0.22    0.14
   3  -3  -9    0.41    0.28
   3  -3  -9   -0.02    0.51
  -3  -3   9    0.02    0.25
   3  -3  -9    0.86    0.47
  -3   3   9    0.23    0.25
   3   3  -9    0.68    0.50
  -3   3   9    0.01    0.14
   3   3  -9    0.55    0.15
   3   3  -9    0.30    0.17
  -3   3   9   -0.24    0.58
   2  -3  -9  157.13    9.44
   2  -3  -9  153.06    9.79
   2  -3  -9  144.41    9.60
  -2  -3   9  156.73    9.37
  -2  -3   9  154.11    9.42
  -2  -3   9  153.55    9.47
  -2  -3   9  163.90    9.42
  -2   3   9  157.46    9.39
   2   3  -9  159.99    9.40
   2   3  -9  158.81    9.35
  -2   3   9  159.67    9.40
   2   3  -9  150.80    9.52
   2   3  -9  153.58    9.37
  -2   3   9  156.47    9.50
  -2   3   9  157.51    9.61
  -1  -3   9   45.01    2.54
  -1  -3   9   34.51    2.52
   1  -3  -9   40.26    2.91
  -1  -3   9   42.85    2.87
  -1  -3   9   44.43    2.72
  -1  -3   9   41.51    2.53
  -1  -3   9   39.54    2.59
   1  -3  -9   44.61    2.54
  -1  -3   9   36.32    2.56
   1   3  -9   39.44    2.62
  -1   3   9   42.67    2.71
  -1   3   9   40.11    2.54
   1   3  -9   41.66    2.67
  -1   3   9   43.09    2.73
  -1   3   9   37.58    2.65
  -1   3   9   42.99    2.54
  -1   3   9   38.65    2.89
   0  -3   9  137.24    8.53
   0  -3   9  139.45    8.43
   0  -3   9  133.90    8.54
   0  -3  -9  135.47    8.49
   0  -3  -9  129.87    8.76
   0  -3  -9  142.89    8.52
   0  -3   9  141.45    8.49
   0  -3   9  136.16    8.76
   0  -3   9  139.50    8.88
   0  -3  -9  140.03    8.48
   0   3   9  131.28    8.65
   0   3   9  141.76    8.50
   0   3   9  150.68    8.64
   0   3  -9  143.38    8.61
   0   3  -9  142.88    8.68
   0   3   9  156.75    8.79
   0   3   9  149.72    8.65
   0   3  -9  147.58    8.53
   0   3   9  140.59    8.72
  -1  -3  -9   15.74    1.27
   1  -3   9   14.99    0.93
   1  -3   9   14.39    1.47
   1  -3   9   14.41    1.49
   1  -3   9   12.44    1.11
  -1  -3  -9   15.90    1.05
   1  -3   9   14.68    1.02
   1  -3   9   14.69    0.98
  -1  -3  -9   16.08    1.02
  -1   3  -9   14.19    1.08
   1   3   9   14.48    1.29
   1   3   9   15.02    1.33
   1   3   9   14.72    1.01
   1   3   9   15.92    1.08
  -1   3  -9   14.93    1.34
  -1   3  -9   15.76    1.05
  -2  -3  -9    6.67    0.75
  -2  -3  -9    8.12    0.81
   2  -3   9    8.54    0.56
   2  -3   9    7.41    0.50
  -2  -3  -9    8.25    0.62
   2  -3   9    6.29    0.83
   2  -3   9    7.63    1.26
   2  -3   9    7.99    0.61
   2   3   9    9.10    1.16
  -2   3  -9    7.31    1.09
  -2   3  -9    8.26    0.70
   2   3   9    8.69    0.62
  -2   3  -9    8.41    0.69
   3  -3   9    2.74    0.59
   3  -3   9    2.49    0.97
   3  -3   9    3.72    0.39
  -3  -3  -9    2.80    0.74
  -3  -3  -9    3.28    0.54
  -3  -3  -9    3.47    0.39
  -3  -3  -9    3.61    0.43
   3  -3   9    3.87    0.37
   3   3   9    2.84    0.83
  -3   3  -9    2.78    0.27
   3   3   9    3.37    0.34
   3   3   9    3.02    0.30
  -3   3  -9    2.84    0.52
   3   3   9    1.86    0.76
  -3   3  -9    3.96    0.42
   4  -3   9    1.72    0.27
  -4  -3  -9    0.73    0.49
  -4  -3  -9    1.26    0.30
  -4  -3  -9    0.68    0.62
   4  -3   9    1.08    1.05
   4  -3   9    1.89    0.76
   4  -3   9    2.31    0.33
  -4  -3  -9    1.75    0.52
  -4   3  -9    1.54    0.47
  -4   3  -9    1.90    0.26
   4   3   9    1.66    0.29
  -4   3  -9    2.98    0.91
  -4   3  -9    1.76    0.31
   4   3   9    0.11    0.83
   4   3   9    2.02    0.94
   5  -3   9   -0.24    1.06
  -5  -3  -9    0.85    0.32
  -5  -3  -9    1.35    0.77
  -5   3  -9    1.09    0.86
  -5   3  -9    1.40    0.27
   5   3   9    1.61    1.18
  -6  -3  -9    3.75    0.57
   6  -3   9    1.18    1.72
  -6  -3  -9    3.67    1.07
  -6   3  -9    3.24    1.14
   6   3   9    3.40    1.66
   7  -4  -9    8.37    1.52
  -7  -4   9    9.91    1.09
   7  -4  -9    9.48    1.50
   7  -4  -9   10.16    2.44
  -7  -4   9    8.48    0.99
  -7   4   9    9.68    1.25
   7   4  -9   13.83    2.50
   7   4  -9   10.64    1.42
  -7   4   9    9.84    1.00
  -6  -4   9    1.82    0.50
  -6  -4   9    1.73    0.46
   6  -4  -9    1.10    0.83
   6  -4  -9    0.91    1.22
   6  -4  -9    1.40    0.70
  -6   4   9    1.58    0.41
  -6   4   9    2.01    0.65
   6   4  -9    1.88    0.56
   6   4  -9    1.47    1.00
  -5  -4   9    2.25    0.49
   5  -4  -9    3.01    0.73
   5  -4  -9    2.99    1.06
  -5  -4   9    2.63    0.49
   5  -4  -9    2.41    0.84
  -5   4   9    3.68    0.62
   5   4  -9    3.49    0.63
   5   4  -9    3.64    1.00
  -4  -4   9    1.00    0.33
   4  -4  -9    1.12    0.42
  -4  -4   9    1.22    0.25
   4  -4  -9    1.27    0.74
  -4  -4   9    1.31    0.35
  -4   4   9    1.48    0.43
   4   4  -9    1.40    0.29
   4   4  -9    2.22    0.43
  -4   4   9    1.41    0.26
  -4   4   9    0.82    0.95
   4   4  -9    2.28    0.79
   3  -4  -9    6.90    0.72
   3  -4  -9    6.66    1.06
  -3  -4   9    5.34    0.64
  -3  -4   9    6.24    0.53
  -3  -4   9    5.79    0.63
  -3   4   9    6.48    0.55
   3   4  -9    6.21    0.58
   3   4  -9    6.63    0.51
  -3   4   9    5.90    0.68
  -2  -4   9   32.22    2.30
  -2  -4   9   29.24    2.01
   2  -4  -9   31.74    2.01
  -2  -4   9   27.10    1.96
  -2  -4   9   28.01    2.02
   2  -4  -9   28.31    2.42
  -2  -4   9   32.47    1.92
   2  -4  -9   32.85    2.44
   2   4  -9   29.86    1.93
   2   4  -9   31.19    1.96
  -2   4   9   30.65    1.94
  -2   4   9   31.58    2.09
   2   4  -9   30.07    1.87
  -1  -4   9    5.74    0.53
  -1  -4   9    6.56    0.54
   1  -4  -9    6.08    0.54
   1  -4  -9    7.86    1.08
  -1  -4   9    6.94    0.87
  -1  -4   9    6.26    0.61
   1  -4  -9    6.75    0.54
  -1  -4   9    6.89    0.70
  -1  -4   9    6.38    0.42
  -1   4   9    6.73    0.52
  -1   4   9    6.28    0.82
   1   4  -9    4.84    0.72
   1   4  -9    5.41    0.68
  -1   4   9    6.12    0.72
   0  -4  -9   26.53    2.08
   0  -4  -9   27.12    1.73
   0  -4   9   27.52    1.79
   0  -4   9   25.48    2.12
   0  -4  -9   26.67    1.72
   0  -4   9   29.18    1.99
   0  -4   9   25.83    1.75
   0  -4  -9   25.96    1.70
   0   4   9   25.66    1.81
   0   4  -9   26.81    1.76
   0   4   9   24.18    1.93
   0   4   9   27.99    1.83
   0   4  -9   29.33    2.00
   0   4   9   26.82    1.95
   0   4  -9   27.64    1.85
  -1  -4  -9    1.39    0.50
   1  -4   9    0.34    0.48
   1  -4   9    0.87    0.61
  -1  -4  -9    0.97    0.22
   1  -4   9    0.58    0.28
   1  -4   9    0.69    0.21
  -1  -4  -9    0.73    0.21
   1   4   9    0.90    0.31
  -1   4  -9    0.67    0.29
   1   4   9    0.11    0.46
  -1   4  -9    1.16    0.52
   1   4   9    0.81    0.24
  -2  -4  -9    2.49    0.52
   2  -4   9    1.81    0.27
  -2  -4  -9    0.92    0.34
   2  -4   9    1.67    0.85
  -2  -4  -9    0.93    0.25
   2  -4   9    1.42    0.41
  -2   4  -9    2.57    0.78
  -2   4  -9    1.19    0.31
  -2   4  -9    1.08    0.27
   2   4   9    1.41    0.25
   2   4   9    0.73    0.53
   2   4   9    1.02    0.61
   2   4   9    1.82    0.45
   3  -4   9   20.37    2.50
  -3  -4  -9   24.29    1.59
   3  -4   9   24.38    1.57
  -3  -4  -9   20.64    1.66
  -3   4  -9   21.98    2.16
   3   4   9   25.53    2.22
  -3   4  -9   24.31    1.61
  -3   4  -9   24.57    1.70
   3   4   9   26.03    1.52
   4  -4   9   16.01    1.09
  -4  -4  -9   15.50    1.11
   4  -4   9   14.10    2.35
   4   4   9   11.24    2.00
  -4   4  -9   15.91    1.88
  -4   4  -9   16.14    0.98
   4   4   9   14.23    1.94
  -5  -4  -9   21.80    1.49
  -5   4  -9   22.19    2.23
   5   4   9   16.05    2.63
   5   4   9   22.26    2.66
  -6  -4  -9   16.15    1.31
   6   4   9   14.83    2.32
  -6   4  -9   16.23    2.22
   7  -5  -9   11.09    1.67
  -7  -5   9   12.40    1.21
  -7  -5   9   11.11    1.24
   7  -5  -9    9.64    1.93
   7  -5  -9   13.48    2.86
   7   5  -9   17.43    2.75
   7   5  -9   13.75    1.52
  -7   5   9   11.51    1.15
  -7   5   9   13.03    1.67
   6  -5  -9   11.75    1.71
   6  -5  -9    9.20    1.56
  -6  -5   9    9.84    1.07
  -6  -5   9   11.44    1.11
   6  -5  -9   10.33    2.45
   6   5  -9   12.45    1.22
  -6   5   9   13.11    1.01
  -6   5   9   10.73    1.40
   5  -5  -9   24.91    2.40
   5  -5  -9   28.60    2.79
  -5  -5   9   24.39    1.87
   5  -5  -9   23.24    2.12
  -5   5   9   28.96    2.01
  -5   5   9   25.99    1.77
   5   5  -9   26.76    1.91
   4  -5  -9   21.97    1.76
   4  -5  -9   23.79    2.15
  -4  -5   9   19.83    1.50
  -4  -5   9   21.61    1.63
   4  -5  -9   23.73    2.09
  -4  -5   9   21.44    1.55
   4   5  -9   23.45    1.59
  -4   5   9   21.82    1.50
  -4   5   9   23.63    1.71
   4   5  -9   20.97    1.51
  -3  -5   9   17.27    1.34
   3  -5  -9   21.21    1.65
  -3  -5   9   15.80    1.25
  -3  -5   9   16.94    1.24
   3  -5  -9   16.63    1.39
   3  -5  -9   21.02    1.85
  -3   5   9   17.71    1.23
   3   5  -9   18.15    1.19
  -3   5   9   17.84    1.51
   3   5  -9   18.29    1.28
  -2  -5   9    5.53    1.41
   2  -5  -9    5.67    0.99
  -2  -5   9    5.64    0.52
  -2  -5   9    5.71    0.49
  -2  -5   9    5.47    0.51
   2  -5  -9    5.75    0.66
  -2   5   9    6.59    0.77
  -2   5   9    5.88    0.54
   2   5  -9    5.85    0.43
   2   5  -9    5.34    0.59
  -1  -5   9    0.26    0.20
   1  -5  -9    0.07    0.21
  -1  -5   9   -0.14    0.29
  -1  -5   9    0.24    0.10
   1  -5  -9    0.34    0.23
   1  -5  -9    1.12    0.61
  -1  -5   9    0.17    0.25
  -1  -5   9    0.15    0.35
   1  -5  -9    0.01    0.14
  -1  -5   9    0.28    0.06
   1   5  -9    0.37    0.38
  -1   5   9    0.21    0.17
  -1   5   9   -0.14    0.18
  -1   5   9    0.71    0.39
  -1   5   9    0.06    0.49
   0  -5  -9    0.87    0.22
   0  -5   9    0.69    0.26
   0  -5  -9    1.15    0.60
   0  -5   9    1.02    0.44
   0  -5   9    0.69    0.56
   0  -5   9    0.65    0.24
   0   5  -9    0.82    0.53
   0   5   9    0.56    0.34
   1  -5   9   26.11    1.84
  -1  -5  -9   24.14    2.01
  -1  -5  -9   24.83    1.72
   1  -5   9   25.54    1.72
  -1  -5  -9   26.54    1.75
   1  -5   9   25.77    2.32
   1  -5   9   22.85    2.06
  -1  -5  -9   25.57    1.69
   1   5   9   27.91    1.75
   1   5   9   26.69    2.02
  -1   5  -9   27.45    1.76
  -1   5  -9   25.20    2.17
   2  -5   9    0.00    0.21
  -2  -5  -9    0.83    0.49
   2  -5   9   -0.02    0.58
   2  -5   9    0.93    0.40
  -2  -5  -9    0.27    0.24
  -2  -5  -9    0.45    0.21
   2   5   9    0.01    0.22
  -2   5  -9    0.17    0.23
  -2   5  -9    0.17    0.73
   2   5   9    0.07    0.55
  -2   5  -9    0.57    0.35
  -3  -5  -9   29.66    2.14
  -3  -5  -9   28.78    1.98
   3  -5   9   24.93    2.96
   3  -5   9   31.19    2.00
  -3   5  -9   29.90    2.04
  -3   5  -9   31.42    2.70
   3   5   9   32.51    2.55
   3   5   9   33.47    1.94
   4  -5   9    3.30    1.55
  -4  -5  -9    4.14    0.52
   4  -5   9    4.08    0.51
   4   5   9    3.72    1.21
  -4   5  -9    4.96    1.15
   5  -5   9    5.24    1.89
  -5  -5  -9    8.64    0.84
  -5   5  -9    7.24    1.45
   5   5   9   10.37    1.66
  -6  -6   9    4.94    0.71
   6  -6  -9    6.75    1.34
  -6  -6   9    4.19    0.73
   6  -6  -9    5.82    1.22
   6  -6  -9    5.86    1.88
   6   6  -9    6.17    0.98
  -6   6   9    4.97    1.01
  -6   6   9    4.48    0.63
   5  -6  -9    3.26    1.89
   5  -6  -9    3.53    0.86
  -5  -6   9    4.81    0.62
   5  -6  -9    4.27    1.17
  -5  -6   9    4.61    0.70
   5   6  -9    4.32    0.76
  -5   6   9    4.17    0.58
  -5   6   9    5.29    0.91
   4  -6  -9   10.35    1.55
   4  -6  -9    9.73    1.15
  -4  -6   9    8.96    0.99
   4  -6  -9    8.83    1.32
  -4  -6   9   11.57    0.89
  -4   6   9    7.14    1.74
  -4   6   9    9.78    0.81
  -4   6   9   10.13    1.14
   4   6  -9   10.82    0.93
   4   6  -9   10.40    0.91
  -3  -6   9    3.81    0.84
  -3  -6   9    3.45    0.57
   3  -6  -9    4.12    0.66
   3  -6  -9    4.45    0.98
  -3  -6   9    3.73    0.45
  -3  -6   9    3.30    0.48
   3  -6  -9    4.44    0.88
  -3   6   9    3.62    0.45
  -3   6   9    3.30    1.16
  -3   6   9    2.94    0.63
   3   6  -9    3.94    0.42
   3   6  -9    3.85    0.52
  -2  -6   9    0.20    0.29
  -2  -6   9   -0.24    0.39
  -2  -6   9    0.46    0.15
  -2  -6   9    0.63    0.23
   2  -6  -9    0.97    0.74
   2  -6  -9    0.28    0.28
  -2  -6   9    0.71    0.23
   2  -6  -9    0.43    0.36
   2   6  -9    0.26    0.13
   2   6  -9    0.21    0.39
  -2   6   9    0.14    0.19
  -2   6   9   -0.08    0.42
  -2   6   9    0.39    0.73
   1  -6  -9    4.62    0.55
   1  -6  -9    3.86    0.91
  -1  -6   9    4.12    0.51
  -1  -6   9    3.85    0.50
   1  -6  -9    4.33    0.49
  -1  -6   9    4.26    0.90
  -1  -6   9    4.50    0.57
  -1   6   9    4.72    0.72
   1   6  -9    4.01    0.75
  -1   6   9    3.99    0.45
   0  -6  -9   13.62    1.03
   0  -6   9   12.34    1.19
   0  -6   9   13.08    1.06
   0  -6  -9   13.42    0.99
   0  -6   9   13.64    1.08
   0  -6   9   13.89    1.57
   0  -6  -9   12.84    1.51
   0   6   9   13.66    1.27
   0   6  -9   12.69    1.48
  -1  -6  -9   38.38    2.94
   1  -6   9   40.45    3.32
  -1  -6  -9   41.53    2.58
  -1  -6  -9   39.73    2.63
   1  -6   9   41.03    2.63
   1  -6   9   41.68    2.74
  -1   6  -9   41.70    2.67
  -1   6  -9   34.22    3.07
   1   6   9   42.40    2.89
  -2  -6  -9   15.45    1.49
  -2  -6  -9   14.07    1.08
  -2  -6  -9   14.75    1.21
   2  -6   9   14.22    2.01
   2  -6   9   15.41    1.15
   2   6   9   14.92    1.57
  -2   6  -9   15.35    1.88
   2   6   9   15.91    1.13
  -3  -6  -9   37.83    2.43
   3  -6   9   37.62    2.46
  -3  -6  -9   39.04    2.66
   3  -6   9   33.51    3.58
  -3   6  -9   41.54    3.27
   3   6   9   36.66    2.94
   4  -6   9    0.78    1.39
  -4  -6  -9    0.44    0.30
   4  -6   9    0.39    0.37
   4   6   9   -0.42    0.90
  -4   6  -9    0.47    1.01
  -5  -6  -9    5.27    0.69
   5  -6   9    3.33    1.74
  -5   6  -9    5.29    1.47
   5   6   9    4.65    1.43
   6  -7  -9   -0.73    1.55
  -6  -7   9    0.10    0.45
   6  -7  -9    0.59    1.17
   6  -7  -9   -0.22    0.81
  -6  -7   9    0.22    0.56
  -6   7   9    0.17    0.89
   6   7  -9    0.04    0.54
   6   7  -9    0.69    1.28
  -6   7   9    0.31    0.39
  -5  -7   9    2.10    0.57
   5  -7  -9    1.45    0.79
   5  -7  -9    3.27    1.16
   5  -7  -9    2.59    1.42
  -5  -7   9    1.87    0.45
  -5   7   9    2.20    0.42
   5   7  -9    3.69    1.34
   5   7  -9    2.04    0.51
  -5   7   9    1.69    0.84
   4  -7  -9    2.42    0.95
   4  -7  -9    2.39    0.65
   4  -7  -9    1.74    0.91
  -4  -7   9    2.31    0.73
  -4  -7   9    2.63    0.52
  -4  -7   9    2.67    0.39
   4   7  -9    2.24    0.46
  -4   7   9    2.03    0.37
  -4   7   9    2.50    0.71
  -3  -7   9    4.51    1.07
   3  -7  -9    3.96    0.96
   3  -7  -9    3.70    0.65
  -3  -7   9    3.02    0.40
  -3  -7   9    2.89    0.56
   3  -7  -9    4.67    0.94
  -3   7   9    3.91    0.75
  -3   7   9    3.21    0.48
   2  -7  -9   17.11    1.42
  -2  -7   9   15.86    1.10
  -2  -7   9   19.83    1.81
   2  -7  -9   19.18    1.93
  -2  -7   9   16.92    1.39
  -2   7   9   18.35    1.56
  -2   7   9   18.01    1.23
   2   7  -9   17.66    1.53
   1  -7  -9    1.02    0.27
   1  -7  -9    1.42    0.35
  -1  -7   9    0.82    0.39
  -1  -7   9    0.90    0.60
  -1  -7   9    1.40    0.41
   1  -7  -9    1.58    0.87
   1   7  -9    1.55    0.75
  -1   7   9    0.28    0.49
  -1   7   9    1.33    0.27
   0  -7  -9   25.16    2.29
   0  -7  -9   24.89    1.76
   0  -7   9   24.84    1.76
   0  -7   9   26.74    2.43
   0  -7  -9   23.31    1.68
   0   7   9   27.17    2.02
   0   7  -9   22.87    2.32
  -1  -7  -9    1.86    0.83
  -1  -7  -9    3.54    0.49
   1  -7   9    3.54    1.09
  -1  -7  -9    2.85    0.56
   1  -7   9    3.42    0.52
   1   7   9    3.26    0.72
   2  -7   9   15.80    2.37
  -2  -7  -9   16.92    1.76
   2  -7   9   17.55    1.33
  -2  -7  -9   17.30    1.24
  -2  -7  -9   16.36    1.36
   2   7   9   19.46    1.76
  -2   7  -9   16.11    2.29
   3  -7   9    1.09    1.26
   3  -7   9    0.95    0.47
  -3  -7  -9    1.39    0.34
  -3  -7  -9    2.04    0.72
   3   7   9    1.28    0.87
  -3   7  -9    2.93    1.27
  -4  -7  -9    1.97    0.44
   4  -7   9   -0.22    1.42
   4  -7   9    1.89    0.57
  -4   7  -9    2.71    1.29
   4   7   9    2.81    1.13
  -5  -8   9    1.39    0.68
  -5  -8   9    1.10    0.77
   5  -8  -9    1.33    0.75
  -5  -8   9    1.40    0.51
  -5   8   9    1.93    0.44
  -5   8   9    1.18    0.91
   5   8  -9    2.31    0.58
   4  -8  -9    0.16    0.57
   4  -8  -9    1.55    0.98
  -4  -8   9    1.18    0.72
  -4  -8   9    1.05    0.61
  -4   8   9    1.35    0.34
  -4   8   9   -0.12    0.74
  -3  -8   9    0.72    0.66
   3  -8  -9    1.80    1.00
   3  -8  -9    0.80    0.54
  -3  -8   9    1.01    0.56
  -3   8   9    0.72    0.30
  -3   8   9    1.42    0.71
  -2  -8   9   16.31    1.38
   2  -8  -9   17.49    2.00
   2  -8  -9   15.94    1.43
  -2  -8   9   16.68    1.85
  -2   8   9   15.86    1.18
  -2   8   9   15.93    1.57
  -1  -8   9    1.26    0.46
   1  -8  -9    1.34    0.46
  -1  -8   9    1.03    0.74
   1  -8  -9    0.67    0.89
  -1   8   9    1.34    0.66
  -1   8   9    1.50    0.31
   1   8  -9    2.77    1.06
   0  -8  -9   16.50    1.20
   0  -8   9   14.31    2.02
   0  -8  -9   15.28    1.93
   0  -8   9   13.46    1.28
   0  -8  -9   17.38    1.32
   0   8  -9   17.62    2.20
   0   8   9   14.95    1.58
   1  -8   9    3.18    1.24
  -1  -8  -9    2.50    1.01
   1  -8   9    2.49    0.56
  -1  -8  -9    2.93    0.56
  -1  -8  -9    3.29    0.47
   1   8   9    2.90    0.82
  -1   8  -9    3.30    1.26
  -2  -8  -9    0.06    0.87
   2  -8   9   -0.13    1.18
   2  -8   9    0.21    0.45
  -2  -8  -9    0.69    0.33
  -2  -8  -9    0.08    0.35
  -2   8  -9   -0.92    1.27
   2   8   9    0.04    0.69
   3  -8   9   11.37    1.19
  -3  -8  -9   11.92    1.23
  -3  -8  -9   10.80    0.97
   3  -8   9    8.99    2.17
  -3  -8  -9   10.55    1.42
   3   8   9   11.78    1.71
  -3   8  -9   12.95    2.09
   3  -9  -9    3.70    0.84
  -3  -9   9    3.19    0.70
  -3  -9   9    4.03    1.09
   3  -9  -9    2.51    1.06
  -3   9   9    3.23    0.48
  -3   9   9    1.05    0.91
  -2  -9   9    2.45    0.99
   2  -9  -9    2.29    1.14
  -2  -9   9    1.46    0.58
   2  -9  -9    2.19    0.64
  -2   9   9    2.07    0.78
  -2   9   9    2.43    0.41
  -1  -9   9    2.40    0.63
   1  -9  -9    2.12    1.12
  -1  -9   9    3.41    1.18
   1  -9  -9    4.14    0.72
  -1   9   9    2.65    0.81
  -1   9   9    3.52    0.47
   0  -9   9    0.11    0.50
   0  -9  -9    0.14    0.40
   0  -9  -9    0.16    0.34
   0  -9   9    0.64    1.01
   0  -9  -9    1.01    1.14
   0   9  -9    1.39    1.47
   0   9   9   -0.31    0.68
   1  -9   9    0.27    1.15
  -1  -9  -9    0.93    0.34
   1  -9   9    1.07    0.55
  -1  -9  -9    0.97    1.11
  -1  -9  -9    0.60    0.47
  -1   9  -9    1.67    1.53
   1   9   9    1.13    0.81
  -8   0  10   27.43    2.41
   8   0 -10   36.05    3.11
   8   0 -10   39.98    4.36
  -8   0  10   32.84    2.35
  -7   0  10   52.86    3.65
   7   0 -10   60.64    4.97
  -7   0  10   55.64    3.65
   7   0 -10   53.44    4.13
  -6   0  10   48.24    3.17
  -6   0  10   48.27    3.24
  -6   0  10   52.21    3.29
   6   0 -10   43.93    3.59
   6   0 -10   56.76    4.25
  -5   0  10   77.17    4.25
  -5   0  10   70.62    4.32
   5   0 -10   60.95    4.57
  -5   0  10   61.98    4.23
  -5   0  10   72.18    4.39
  -4   0  10    3.96    0.51
  -4   0  10    4.77    0.45
  -4   0  10    3.40    0.55
  -4   0  10    4.09    0.49
   4   0 -10    5.91    1.07
   4   0 -10    3.47    0.65
  -3   0  10   16.87    1.11
  -3   0  10   16.98    1.13
  -3   0  10   17.75    1.21
   3   0 -10   15.86    1.24
  -3   0  10   15.46    1.24
  -3   0  10   15.61    1.72
  -3   0  10   15.57    1.11
  -2   0  10  111.24    6.38
  -2   0  10  106.76    6.24
  -2   0  10   96.61    6.35
  -2   0  10  103.29    6.25
   2   0 -10  102.41    6.25
  -2   0  10  107.63    6.77
  -2   0  10   99.90    6.32
  -2   0  10   97.13    6.56
  -1   0  10   30.76    1.91
  -1   0  10   35.65    2.39
  -1   0  10   30.69    2.03
  -1   0  10   29.31    1.92
  -1   0  10   28.02    2.23
  -1   0  10   29.97    2.12
  -1   0  10   30.69    2.17
  -1   0  10   30.05    2.10
   0   0  10   29.77    1.86
   0   0  10   31.23    2.15
   0   0  10   30.26    1.86
   0   0  10   29.34    2.15
   0   0  10   30.97    2.14
   0   0  10   30.19    1.95
   0   0 -10   28.38    2.01
   1   0  10   20.39    1.25
   1   0  10   19.73    1.29
  -1   0 -10   19.04    1.26
   1   0  10   19.91    1.68
   1   0  10   19.03    1.66
  -1   0 -10   18.89    1.49
  -1   0 -10   20.40    1.33
   1   0  10   18.68    1.45
  -2   0 -10   45.50    3.09
  -2   0 -10   46.49    2.90
   2   0  10   48.69    2.91
   2   0  10   44.58    3.49
   2   0  10   47.69    2.99
  -2   0 -10   53.63    3.25
   2   0  10   45.26    2.89
  -3   0 -10    9.46    1.20
   3   0  10    9.48    0.75
   3   0  10    7.17    1.45
  -3   0 -10    9.18    1.09
   3   0  10   10.65    0.68
  -3   0 -10    9.73    0.71
   3   0  10   10.93    0.69
  -4   0 -10  265.87   15.10
  -4   0 -10  232.85   15.44
  -4   0 -10  229.08   15.49
   4   0  10  275.53   15.20
   5   0  10    1.34    1.22
  -5   0 -10    0.93    0.87
  -6   0 -10  139.54    8.27
  -6   0 -10  130.22    8.79
  -8  -1  10    3.02    0.70
   8  -1 -10    3.59    1.17
   8  -1 -10    2.24    1.74
  -8  -1  10    2.65    0.59
   8   1 -10    4.45    1.20
  -8   1  10    2.23    0.62
  -8   1  10    2.35    0.61
   8   1 -10    3.37    1.87
   7  -1 -10   47.19    4.33
  -7  -1  10   45.69    2.92
  -7  -1  10   39.40    2.95
   7  -1 -10   40.27    3.43
  -7   1  10   43.53    2.94
   7   1 -10   43.07    3.38
  -7   1  10   47.28    3.30
  -7   1  10   42.58    2.94
  -6  -1  10   29.69    2.15
   6  -1 -10   36.69    3.21
  -6  -1  10   29.67    2.15
   6  -1 -10   27.28    2.54
  -6   1  10   30.82    2.13
   6   1 -10   36.89    3.12
   6   1 -10   27.46    2.44
  -6   1  10   31.32    2.19
  -6   1  10   30.22    2.12
  -5  -1  10   24.53    1.71
   5  -1 -10   19.74    1.95
   5  -1 -10   23.53    1.81
   5  -1 -10   27.88    2.39
  -5   1  10   25.47    1.76
  -5   1  10   22.72    1.62
   5   1 -10   22.12    1.88
  -5   1  10   22.64    1.63
  -4  -1  10  169.12    9.60
  -4  -1  10  159.14    9.65
  -4  -1  10  148.34    9.71
  -4   1  10  161.92    9.64
  -4   1  10  151.39    9.61
   4   1 -10  158.61    9.79
  -4   1  10  161.24    9.76
  -4   1  10  162.23    9.64
  -3  -1  10    9.79    0.81
  -3  -1  10    9.85    0.95
  -3  -1  10   12.34    0.88
  -3  -1  10   12.46    0.95
   3  -1 -10   12.43    1.39
  -3   1  10   11.19    1.49
   3   1 -10   12.86    0.82
  -3   1  10   11.62    1.02
  -3   1  10   12.25    0.87
   3   1 -10   12.70    0.91
  -3   1  10   12.61    0.94
  -3   1  10   12.99    0.87
  -3   1  10   11.83    0.90
  -2  -1  10   95.49    5.75
  -2  -1  10   95.85    6.25
   2  -1 -10   91.41    6.09
  -2  -1  10   88.91    5.84
  -2  -1  10   96.30    5.73
  -2  -1  10   99.88    5.90
  -2  -1  10   97.50    5.82
  -2  -1  10   92.56    6.12
  -2   1  10   97.12    5.75
  -2   1  10   94.38    5.75
  -2   1  10   82.79    5.86
  -2   1  10   92.65    6.24
   2   1 -10   98.98    5.73
  -2   1  10   96.57    5.86
  -2   1  10  100.15    5.85
  -1  -1  10  102.26    6.39
  -1  -1  10   95.56    6.23
  -1  -1  10   94.91    6.48
  -1  -1  10  107.31    6.47
  -1  -1  10  104.03    6.14
  -1  -1  10  101.50    6.16
  -1  -1  10   94.97    6.31
  -1   1  10  106.92    6.40
  -1   1  10  103.28    6.33
  -1   1  10  101.50    6.17
  -1   1  10  106.49    6.16
  -1   1  10   91.67    6.26
  -1   1  10  114.88    6.62
  -1   1  10  100.98    6.41
  -1   1  10  102.45    6.34
   0  -1 -10    7.16    0.55
   0  -1  10    7.86    0.61
   0  -1  10    8.20    0.97
   0  -1  10    7.23    0.49
   0  -1  10    6.90    0.51
   0  -1  10    6.55    0.82
   0  -1  10    6.18    0.95
   0   1  10    8.20    0.89
   0   1  10    6.32    0.63
   0   1  10    7.86    0.82
   0   1  10    6.96    0.77
   0   1  10    6.89    0.52
   0   1  10    7.29    0.80
   0   1 -10    6.92    0.72
   0   1 -10    7.43    0.49
   1  -1  10   97.14    5.92
   1  -1  10   93.26    6.29
   1  -1  10  101.92    6.39
   1  -1  10   97.67    5.88
   1  -1  10   94.72    6.13
  -1  -1 -10   98.41    5.92
  -1  -1 -10   99.27    6.11
  -1   1 -10   97.29    6.14
  -1   1 -10  100.72    5.92
   1   1  10   95.14    6.26
   1   1  10  101.76    6.31
   1   1  10   97.44    5.90
   1   1  10   95.54    5.94
   1   1  10   95.70    6.19
  -1   1 -10   92.49    5.89
   1   1  10  103.34    6.03
   2  -1  10  170.26   11.22
   2  -1  10  195.23   11.38
  -2  -1 -10  189.66   11.51
   2  -1  10  186.94   11.92
  -2  -1 -10  187.17   11.25
   2  -1  10  188.12   11.23
   2   1  10  169.15   11.22
   2   1  10  199.32   11.29
  -2   1 -10  188.58   11.22
  -2   1 -10  188.55   11.57
   2   1  10  179.24   11.82
  -2   1 -10  203.76   11.38
   2   1  10  189.20   11.25
  -3  -1 -10    1.31    0.22
  -3  -1 -10    1.55    0.55
   3  -1  10    1.19    0.24
  -3  -1 -10    1.26    0.45
   3  -1  10    1.56    0.29
   3  -1  10    1.42    0.27
  -3  -1 -10    1.02    0.58
   3  -1  10    1.53    0.22
   3  -1  10    0.83    0.71
   3   1  10    0.97    0.15
   3   1  10    0.79    0.13
   3   1  10    0.86    0.40
  -3   1 -10    1.23    0.47
   3   1  10    0.55    0.65
  -3   1 -10    1.13    0.19
  -3   1 -10   -0.12    0.58
  -4  -1 -10   87.09    6.77
   4  -1  10  107.97    6.51
  -4  -1 -10  102.73    6.86
  -4  -1 -10  108.69    6.47
   4  -1  10  112.92    6.64
  -4   1 -10  111.02    7.57
   4   1  10  119.95    6.50
  -4   1 -10  113.00    6.44
  -4   1 -10   88.41    6.85
  -5  -1 -10   60.65    3.61
  -5  -1 -10   54.11    4.07
  -5   1 -10   58.04    3.56
  -5   1 -10   53.77    4.13
  -6  -1 -10    0.20    1.01
   6  -1  10   -0.43    1.52
  -6  -1 -10    0.07    0.34
  -6   1 -10    1.24    0.37
   6   1  10   -0.14    1.51
  -6   1 -10    1.68    1.00
   8  -2 -10   10.38    1.99
   8  -2 -10    8.27    2.49
  -8  -2  10   10.00    1.20
  -8  -2  10   10.48    1.10
  -8   2  10   10.83    1.26
   8   2 -10    8.20    2.13
   8   2 -10   11.47    1.89
  -8   2  10   11.19    1.17
   7  -2 -10   -1.16    1.22
  -7  -2  10    0.57    0.43
  -7  -2  10    0.29    0.42
   7  -2 -10    0.74    0.73
   7   2 -10    1.10    1.14
   7   2 -10    0.63    0.65
  -7   2  10    0.63    0.44
  -7   2  10    0.23    0.42
  -6  -2  10    1.89    0.50
  -6  -2  10    1.46    0.46
   6  -2 -10    1.30    0.70
   6  -2 -10    0.44    0.89
   6  -2 -10    1.43    0.90
   6   2 -10    1.26    0.56
  -6   2  10    0.66    0.32
  -6   2  10    0.94    0.47
  -6   2  10    1.51    0.47
   6   2 -10    1.72    0.95
   5  -2 -10   46.82    3.35
  -5  -2  10   40.79    2.90
   5  -2 -10   43.40    3.06
   5  -2 -10   47.97    3.70
  -5   2  10   43.72    2.86
   5   2 -10   44.31    3.03
  -5   2  10   43.59    2.85
  -4  -2  10   57.74    3.70
   4  -2 -10   51.19    4.27
   4  -2 -10   59.20    3.86
   4   2 -10   59.89    3.86
  -4   2  10   56.53    3.67
   4   2 -10   64.94    3.71
  -3  -2  10   19.37    1.38
  -3  -2  10   20.76    1.20
   3  -2 -10   16.87    1.42
   3  -2 -10   20.78    1.82
  -3  -2  10   17.17    1.19
  -3  -2  10   19.70    1.30
  -3  -2  10   19.15    1.30
  -3   2  10   18.73    1.27
   3   2 -10   20.11    1.30
  -3   2  10   15.06    1.89
  -3   2  10   18.27    1.34
  -3   2  10   19.16    1.36
   3   2 -10   19.97    1.23
  -2  -2  10  101.60    6.57
  -2  -2  10  102.16    6.51
   2  -2 -10   98.02    6.47
  -2  -2  10  101.82    6.47
  -2  -2  10  108.29    6.44
   2  -2 -10   99.44    6.80
  -2  -2  10  103.99    6.78
  -2  -2  10  115.47    6.41
   2   2 -10  116.17    6.42
  -2   2  10  100.44    6.93
  -2   2  10  109.52    6.54
  -2   2  10  105.47    6.70
  -2   2  10  110.98    6.43
  -2   2  10  106.89    6.54
  -2   2  10  108.92    6.44
  -1  -2  10   63.29    4.34
   1  -2 -10   67.30    3.97
  -1  -2  10   68.89    4.34
  -1  -2  10   65.70    3.99
  -1  -2  10   61.61    4.06
   1  -2 -10   60.11    4.31
  -1  -2  10   61.42    4.24
  -1  -2  10   69.58    3.96
   1   2 -10   64.09    4.07
  -1   2  10   70.59    4.20
  -1   2  10   64.14    4.21
  -1   2  10   61.63    4.16
  -1   2  10   64.83    4.15
  -1   2  10   64.27    4.00
  -1   2  10   69.78    4.42
  -1   2  10   67.17    4.00
   0  -2 -10   59.48    3.49
   0  -2  10   58.71    3.47
   0  -2 -10   58.97    3.54
   0  -2  10   55.42    3.87
   0  -2  10   57.37    3.56
   0  -2  10   57.35    3.49
   0  -2 -10   54.20    3.76
   0  -2 -10   55.70    3.47
   0  -2  10   55.72    3.88
   0  -2  10   52.15    3.81
   0   2  10   58.72    3.52
   0   2  10   59.57    3.79
   0   2  10   56.01    3.72
   0   2  10   59.67    3.69
   0   2 -10   59.26    3.52
   0   2  10   59.21    3.74
   0   2 -10   57.06    3.68
   1  -2  10  253.31   14.94
  -1  -2 -10  263.38   15.01
   1  -2  10  241.07   15.23
  -1  -2 -10  254.18   15.14
   1  -2  10  234.52   15.39
   1  -2  10  255.54   15.51
   1  -2  10  246.69   15.00
  -1  -2 -10  216.48   15.03
   1  -2  10  230.49   14.94
   1   2  10  250.35   14.99
  -1   2 -10  253.41   15.01
  -1   2 -10  253.97   15.24
   1   2  10  266.12   15.37
   1   2  10  267.57   15.08
   1   2  10  265.31   15.38
   2  -2  10    1.60    0.50
   2  -2  10    1.23    0.20
   2  -2  10    2.06    0.35
  -2  -2 -10    1.19    0.38
   2  -2  10    1.10    0.61
  -2  -2 -10    1.94    0.28
   2   2  10    2.33    0.56
   2   2  10    1.22    0.23
  -2   2 -10    1.15    0.18
   2   2  10    1.37    0.59
  -2   2 -10    1.48    0.32
  -2   2 -10    2.55    0.62
   2   2  10    1.78    0.27
   2   2  10    1.44    0.62
   3  -2  10  123.70    7.27
  -3  -2 -10  125.15    7.54
   3  -2  10  112.59    7.41
   3  -2  10  118.36    7.22
  -3  -2 -10  119.60    7.59
   3  -2  10  126.12    7.38
   3  -2  10  105.55    8.14
  -3  -2 -10  121.87    7.28
  -3   2 -10  117.39    7.69
  -3   2 -10  130.60    7.47
  -3   2 -10  116.21    7.21
   3   2  10  122.05    7.20
   4  -2  10    0.93    0.35
   4  -2  10    0.95    1.10
  -4  -2 -10    0.86    0.25
   4  -2  10    1.96    0.58
  -4  -2 -10    0.55    0.62
  -4  -2 -10    1.83    0.62
  -4  -2 -10    0.94    0.64
   4   2  10    0.25    0.90
  -4   2 -10   -0.12    0.41
  -4   2 -10    0.69    0.73
   5  -2  10   -0.02    1.21
  -5  -2 -10    0.56    0.83
   5   2  10    1.12    1.33
  -5   2 -10    0.96    0.25
  -5   2 -10    1.63    0.87
  -6  -2 -10    0.93    1.07
   6  -2  10    0.70    1.68
  -6  -2 -10    2.47    0.49
   6   2  10    4.05    1.78
  -6   2 -10    4.72    1.17
  -7  -3  10   78.22    5.06
   7  -3 -10   72.41    6.48
  -7  -3  10   75.17    5.01
   7  -3 -10   85.51    5.56
   7   3 -10   83.30    5.38
  -7   3  10   80.05    5.03
  -6  -3  10    2.61    0.52
   6  -3 -10    2.17    0.73
   6  -3 -10    3.04    0.99
   6  -3 -10    2.54    1.23
  -6  -3  10    2.20    0.49
   6   3 -10    4.26    1.21
  -6   3  10    3.30    0.53
  -6   3  10    3.48    0.66
   6   3 -10    2.76    0.61
   5  -3 -10   24.54    2.30
  -5  -3  10   20.14    1.76
   5  -3 -10   27.44    3.21
  -5   3  10   24.93    1.71
   5   3 -10   26.43    1.87
  -5   3  10   27.03    1.81
   4  -3 -10   20.60    1.84
  -4  -3  10   24.00    1.73
   4  -3 -10   25.14    1.98
   4  -3 -10   27.24    2.22
  -4  -3  10   24.03    1.70
  -4  -3  10   21.62    1.57
  -4   3  10   26.39    1.64
   4   3 -10   26.03    1.70
  -4   3  10   24.95    1.70
   4   3 -10   25.08    1.61
   3  -3 -10   62.08    4.22
  -3  -3  10   56.01    3.72
   3  -3 -10   57.52    3.94
  -3  -3  10   63.75    3.64
   3  -3 -10   53.20    3.79
  -3  -3  10   57.47    3.77
  -3   3  10   55.83    3.76
   3   3 -10   62.86    3.64
  -3   3  10   60.14    3.68
   3   3 -10   64.77    3.72
  -2  -3  10   12.48    0.96
   2  -3 -10   12.65    1.46
  -2  -3  10   11.92    0.89
  -2  -3  10   11.97    0.82
  -2  -3  10   13.45    1.21
  -2  -3  10   12.34    0.97
  -2  -3  10   12.81    0.82
   2  -3 -10   12.87    0.93
  -2   3  10   12.63    0.88
  -2   3  10   11.93    1.00
  -2   3  10   11.01    1.02
   2   3 -10   12.23    0.86
  -2   3  10   10.03    1.40
  -1  -3  10  291.15   16.95
  -1  -3  10  294.75   16.76
  -1  -3  10  273.70   16.61
  -1  -3  10  275.00   16.49
   1  -3 -10  261.36   16.51
   1  -3 -10  251.60   16.90
   1  -3 -10  288.69   16.55
  -1  -3  10  259.33   16.54
  -1   3  10  264.45   16.69
  -1   3  10  276.69   16.72
   1   3 -10  282.38   16.64
  -1   3  10  293.51   16.71
  -1   3  10  280.19   16.74
   1   3 -10  274.58   16.69
  -1   3  10  272.49   16.97
  -1   3  10  278.55   16.56
   0  -3  10    3.60    0.71
   0  -3 -10    3.36    0.32
   0  -3  10    3.33    0.24
   0  -3  10    3.19    0.72
   0  -3 -10    3.42    0.38
   0  -3  10    3.23    0.31
   0  -3 -10    2.87    0.65
   0  -3  10    3.04    0.39
   0  -3 -10    3.36    0.33
   0   3 -10    2.57    0.43
   0   3 -10    2.91    0.54
   0   3 -10    3.50    0.39
   0   3  10    2.63    0.64
   0   3  10    3.06    0.51
   0   3  10    2.92    0.50
   0   3  10    3.05    0.59
   1  -3  10  148.75    8.77
   1  -3  10  144.16    9.25
   1  -3  10  139.98    8.85
  -1  -3 -10  143.32    9.04
  -1  -3 -10  153.86    8.86
  -1  -3 -10  147.25    8.89
   1  -3  10  150.35    9.42
  -1   3 -10  150.68    9.13
   1   3  10  143.96    9.16
  -1   3 -10  135.23    8.92
   1   3  10  158.42    8.91
   1   3  10  135.18    9.13
  -1   3 -10  153.75    8.87
  -2  -3 -10   42.78    3.23
  -2  -3 -10   49.52    3.23
   2  -3  10   51.91    3.06
   2  -3  10   50.27    3.11
  -2  -3 -10   52.44    3.14
   2  -3  10   44.16    3.27
   2  -3  10   55.45    3.08
   2  -3  10   43.66    4.13
  -2   3 -10   52.85    3.20
  -2   3 -10   49.92    3.53
   2   3  10   54.93    3.66
  -2   3 -10   52.33    3.19
   2   3  10   53.77    3.13
   3  -3  10    1.26    0.87
  -3  -3 -10    2.19    0.53
   3  -3  10    1.72    0.26
   3  -3  10    1.44    0.54
  -3  -3 -10    1.67    0.29
   3   3  10    1.98    0.25
   3   3  10    1.16    0.76
   3   3  10    2.31    0.28
  -3   3 -10    0.95    0.55
  -3   3 -10    1.92    0.31
  -3   3 -10    1.55    0.72
   3   3  10    1.10    0.87
  -3   3 -10    1.82    0.23
   4  -3  10   25.56    3.24
  -4  -3 -10   34.76    2.12
   4  -3  10   31.43    2.02
  -4   3 -10   33.31    2.73
   4   3  10   38.42    3.06
  -4   3 -10   31.65    1.99
  -5  -3 -10   81.70    5.01
  -5  -3 -10   80.74    5.44
   5   3  10   76.47    5.93
  -5   3 -10   80.99    5.57
   6  -3  10    0.95    1.69
  -6  -3 -10    1.42    1.08
  -6  -3 -10    0.79    0.43
   6   3  10    1.28    1.66
   6   3  10    1.72    1.69
  -6   3 -10    1.04    1.11
  -7  -4  10   32.90    2.39
  -7  -4  10   31.32    2.35
   7  -4 -10   33.18    4.08
   7  -4 -10   34.89    3.05
  -7   4  10   32.77    2.34
  -7   4  10   35.41    2.62
   7   4 -10   35.66    2.71
   6  -4 -10   28.52    3.09
  -6  -4  10   24.47    1.83
   6  -4 -10   28.85    2.47
   6  -4 -10   20.14    2.18
  -6  -4  10   22.40    1.79
   6   4 -10   26.52    1.96
  -6   4  10   21.93    1.95
  -6   4  10   24.32    1.74
  -5  -4  10   65.20    4.59
  -5  -4  10   71.41    4.79
   5  -4 -10   60.16    4.79
   5  -4 -10   80.88    5.15
  -5   4  10   80.03    4.55
   5   4 -10   79.33    4.67
   4  -4 -10    3.04    0.75
  -4  -4  10    2.12    0.38
  -4  -4  10    2.12    0.43
   4  -4 -10    4.60    0.99
   4  -4 -10    2.14    0.53
  -4  -4  10    2.04    0.44
   4   4 -10    3.29    0.48
  -4   4  10    2.79    0.42
   4   4 -10    2.61    0.36
   4   4 -10    3.70    0.94
  -4   4  10    0.92    1.08
  -4   4  10    2.70    0.50
   3  -4 -10   46.93    3.25
  -3  -4  10   49.90    3.19
  -3  -4  10   47.87    3.22
   3  -4 -10   54.54    3.74
  -3  -4  10   50.05    3.11
  -3   4  10   49.61    3.13
   3   4 -10   51.54    3.16
  -3   4  10   50.67    3.26
   3   4 -10   50.70    3.08
  -2  -4  10   59.20    4.01
  -2  -4  10   57.37    3.95
  -2  -4  10   69.95    3.95
   2  -4 -10   66.91    4.46
  -2  -4  10   65.02    3.93
   2   4 -10   66.38    3.87
   2   4 -10   62.58    3.92
  -2   4  10   64.10    4.09
  -1  -4  10    1.00    0.48
   1  -4 -10    1.18    0.23
   1  -4 -10    0.75    0.64
  -1  -4  10    1.07    0.24
  -1  -4  10    0.99    0.14
  -1  -4  10    1.38    0.41
  -1  -4  10    0.88    0.27
  -1  -4  10    0.46    0.22
   1  -4 -10    0.84    0.17
  -1   4  10    0.72    0.41
  -1   4  10    1.39    0.24
  -1   4  10    1.25    0.61
   1   4 -10    1.47    0.36
  -1   4  10    0.79    0.26
   0  -4 -10   28.57    2.35
   0  -4  10   29.68    2.03
   0  -4 -10   31.35    1.95
   0  -4  10   29.69    2.00
   0  -4  10   33.06    2.27
   0  -4 -10   31.51    1.97
   0  -4  10   30.42    2.65
   0  -4 -10   31.61    1.99
   0   4 -10   34.35    2.25
   0   4  10   31.04    2.09
   0   4 -10   31.77    2.22
   0   4  10   28.13    2.32
   0   4  10   28.50    2.21
   0   4  10   31.57    2.12
   1  -4  10   25.03    1.72
  -1  -4 -10   27.84    1.77
   1  -4  10   25.35    2.31
   1  -4  10   27.37    2.20
  -1  -4 -10   25.58    2.01
   1  -4  10   23.37    1.84
   1   4  10   30.03    1.94
   1   4  10   24.90    2.06
  -1   4 -10   27.50    1.85
  -1   4 -10   28.38    2.13
   1   4  10   28.37    1.78
  -1   4 -10   27.50    1.77
   1   4  10   22.25    1.94
   2  -4  10   20.31    1.34
  -2  -4 -10   20.53    1.58
   2  -4  10   16.87    1.56
   2  -4  10   19.24    2.14
  -2  -4 -10   21.02    1.35
  -2  -4 -10   18.56    1.47
   2   4  10   20.53    1.87
  -2   4 -10   19.72    1.43
   2   4  10   21.72    1.34
  -2   4 -10   19.81    1.90
  -3  -4 -10   36.93    2.58
   3  -4  10   40.36    2.49
  -3  -4 -10   38.32    2.51
   3  -4  10   30.93    3.38
   3   4  10   42.34    2.48
  -3   4 -10   36.59    3.09
  -3   4 -10   41.20    2.87
   3   4  10   40.91    3.15
  -3   4 -10   43.68    2.55
   4  -4  10  141.13    8.63
  -4  -4 -10  140.82    8.69
   4   4  10  142.09    9.41
  -4   4 -10  147.98    9.27
   5  -4  10    3.06    1.46
  -5  -4 -10    5.33    0.68
  -5   4 -10    6.53    1.28
   5   4  10    8.37    1.87
   7  -5 -10    9.72    2.49
   7  -5 -10    7.06    1.47
  -7  -5  10    8.37    1.08
  -7  -5  10   11.19    1.14
   7  -5 -10    7.55    1.49
  -7   5  10    7.36    1.23
  -7   5  10    8.52    0.99
   7   5 -10   11.26    1.40
  -6  -5  10   70.41    4.45
  -6  -5  10   61.81    4.44
   6  -5 -10   70.48    5.04
   6  -5 -10   72.97    5.69
  -6   5  10   68.56    4.39
   6   5 -10   78.40    4.61
  -6   5  10   62.58    4.59
   5  -5 -10    2.17    1.01
  -5  -5  10    2.65    0.55
   5  -5 -10    1.89    0.67
   5  -5 -10    2.00    1.16
  -5  -5  10    2.26    0.49
   5   5 -10    3.45    1.16
   5   5 -10    1.78    0.43
  -5   5  10    1.76    0.38
  -5   5  10    2.35    0.63
  -4  -5  10  166.45   10.73
  -4  -5  10  178.80   10.69
   4  -5 -10  175.71   11.16
   4  -5 -10  163.68   10.86
   4   5 -10  190.86   10.73
   4   5 -10  167.43   10.61
  -4   5  10  184.63   10.66
  -4   5  10  178.64   10.78
  -3  -5  10    1.71    0.43
  -3  -5  10    1.49    0.30
   3  -5 -10    2.71    0.92
  -3  -5  10    1.48    0.56
   3  -5 -10    1.99    0.47
   3  -5 -10    2.48    0.62
  -3  -5  10    1.62    0.35
  -3   5  10    1.68    0.29
   3   5 -10    2.25    0.38
  -3   5  10    1.72    0.51
  -3   5  10    1.39    0.98
   3   5 -10    2.66    0.31
   3   5 -10    3.08    0.93
  -2  -5  10   68.47    4.34
  -2  -5  10   70.80    4.38
   2  -5 -10   71.90    4.45
  -2  -5  10   73.83    4.82
   2  -5 -10   76.03    4.92
  -2  -5  10   68.70    4.45
   2   5 -10   73.23    4.27
  -2   5  10   68.67    4.54
   2   5 -10   68.84    4.36
  -2   5  10   68.86    4.36
  -1  -5  10   16.87    1.05
   1  -5 -10   16.44    1.16
  -1  -5  10   17.08    1.08
   1  -5 -10   20.09    1.84
  -1  -5  10   16.17    1.22
   1  -5 -10   18.49    1.23
  -1  -5  10   18.27    1.66
  -1  -5  10   16.06    1.30
  -1   5  10   16.48    1.17
   1   5 -10   17.71    1.39
  -1   5  10   17.71    1.23
  -1   5  10   16.67    1.41
   0  -5 -10   28.46    1.90
   0  -5 -10   29.45    1.89
   0  -5  10   26.76    1.92
   0  -5  10   30.39    2.46
   0  -5 -10   30.59    2.38
   0  -5  10   28.60    1.97
   0  -5 -10   28.87    1.90
   0  -5  10   28.14    2.14
   0   5 -10   31.04    2.24
   0   5  10   29.88    2.16
   1  -5  10    1.07    0.66
   1  -5  10    0.97    0.30
  -1  -5 -10    1.15    0.28
   1  -5  10    0.71    0.36
  -1  -5 -10    0.98    0.58
  -1  -5 -10    0.68    0.27
  -1  -5 -10    0.99    0.24
   1   5  10    0.37    0.50
  -1   5 -10    0.19    0.27
  -1   5 -10    1.58    0.65
   1   5  10    0.67    0.33
   2  -5  10  114.75    8.14
  -2  -5 -10  133.67    8.16
   2  -5  10  127.19    8.86
  -2  -5 -10  134.39    7.96
  -2  -5 -10  128.13    8.08
   2  -5  10  133.44    7.96
   2   5  10  142.83    7.96
  -2   5 -10  124.59    8.43
   2   5  10  133.66    8.37
  -2   5 -10  135.08    8.04
  -3  -5 -10    6.44    0.99
  -3  -5 -10    7.39    0.67
   3  -5  10    7.58    1.69
   3  -5  10    7.82    0.71
  -3   5 -10    6.62    1.32
   3   5  10    6.54    1.13
   4  -5  10   47.22    2.95
  -4  -5 -10   47.07    2.98
   4  -5  10   37.16    4.29
  -4   5 -10   50.86    3.76
   4   5  10   50.89    3.80
  -5  -5 -10   25.76    1.88
   5   5  10   26.80    3.06
  -5   5 -10   29.65    2.76
  -6  -6  10    9.68    1.14
   6  -6 -10   11.47    2.58
   6  -6 -10    7.26    1.37
   6  -6 -10   11.28    1.79
  -6  -6  10   11.35    1.11
   6   6 -10   11.17    1.19
  -6   6  10    9.26    1.31
  -6   6  10   10.23    0.97
  -5  -6  10   16.36    1.36
  -5  -6  10   16.07    1.44
   5  -6 -10   20.85    2.39
   5  -6 -10   18.66    2.22
   5  -6 -10   16.63    1.77
  -5   6  10   15.93    1.65
   5   6 -10   18.65    1.45
  -5   6  10   17.31    1.31
   4  -6 -10    8.67    1.38
   4  -6 -10    6.64    1.06
  -4  -6  10    7.29    0.90
   4  -6 -10    5.89    1.19
  -4  -6  10    7.93    0.78
   4   6 -10    8.88    0.82
  -4   6  10    7.15    0.71
  -4   6  10    8.47    1.06
  -3  -6  10   13.31    1.44
  -3  -6  10   12.15    1.11
   3  -6 -10   12.44    1.16
   3  -6 -10   11.74    1.69
  -3  -6  10   12.97    0.93
  -3   6  10   11.83    0.95
  -3   6  10   12.48    1.23
   2  -6 -10   99.45    5.98
  -2  -6  10   99.91    6.38
  -2  -6  10   94.12    5.77
  -2  -6  10   89.85    5.99
  -2  -6  10   96.12    5.96
   2  -6 -10   99.50    6.42
  -2   6  10   95.46    6.07
  -2   6  10   94.86    5.86
   2   6 -10   92.96    5.88
   1  -6 -10    4.49    0.53
  -1  -6  10    4.93    0.69
   1  -6 -10    4.98    0.59
  -1  -6  10    4.71    0.99
   1  -6 -10    6.04    1.10
  -1  -6  10    5.05    0.64
  -1  -6  10    4.88    0.61
  -1   6  10    4.09    0.73
  -1   6  10    5.32    0.51
   1   6 -10    6.27    0.82
   0  -6  10  132.80    7.99
   0  -6  10  126.20    7.94
   0  -6 -10  131.02    7.88
   0  -6  10  131.06    8.51
   0  -6 -10  130.74    7.86
   0  -6 -10  127.45    7.85
   0  -6  10  121.36    7.87
   0   6  10  134.12    8.10
   0   6 -10  125.39    8.16
  -1  -6 -10   80.98    5.31
   1  -6  10   79.03    4.96
  -1  -6 -10   80.46    4.94
  -1  -6 -10   81.48    4.98
   1  -6  10   78.50    5.73
  -1  -6 -10   80.38    4.99
   1   6  10   83.69    5.26
  -1   6 -10   72.99    5.39
  -2  -6 -10   25.57    2.00
  -2  -6 -10   23.84    1.59
   2  -6  10   21.92    2.56
  -2   6 -10   23.03    2.37
   2   6  10   21.12    2.04
  -3  -6 -10   47.21    3.02
   3  -6  10   47.85    3.05
   3  -6  10   42.43    4.25
  -3  -6 -10   46.05    3.24
   3   6  10   49.69    3.60
  -3   6 -10   52.26    3.87
   4  -6  10    5.52    0.72
  -4  -6 -10    5.54    0.71
   4  -6  10    5.14    1.79
   4   6  10    6.91    1.51
  -4   6 -10    5.83    1.37
  -5  -7  10    4.23    0.58
  -5  -7  10    3.72    0.68
   5  -7 -10    3.76    0.94
   5  -7 -10    4.01    1.41
   5  -7 -10    5.05    1.38
  -5   7  10    4.61    0.98
  -5   7  10    3.24    0.51
   5   7 -10    4.35    0.79
  -4  -7  10    3.25    0.59
   4  -7 -10    3.03    0.77
  -4  -7  10    2.52    0.80
   4  -7 -10    2.67    1.14
  -4  -7  10    3.20    0.42
  -4   7  10    2.10    0.77
  -4   7  10    1.95    0.38
   4   7 -10    3.32    0.63
  -3  -7  10   51.46    3.61
  -3  -7  10   57.54    3.41
   3  -7 -10   59.45    4.20
  -3  -7  10   54.96    4.05
   3  -7 -10   54.75    3.72
  -3   7  10   52.74    3.72
  -3   7  10   56.88    3.49
   2  -7 -10    1.64    0.49
  -2  -7  10    1.46    0.69
   2  -7 -10    2.05    0.92
  -2  -7  10    1.04    0.48
  -2   7  10    1.34    0.30
   2   7 -10    2.98    0.86
  -2   7  10    2.36    0.70
  -1  -7  10  145.52    9.15
   1  -7 -10  150.32    9.17
   1  -7 -10  143.09    9.59
  -1  -7  10  157.13    9.76
  -1   7  10  153.82    9.06
  -1   7  10  146.76    9.31
   1   7 -10  147.14    9.32
   0  -7  10   13.97    1.83
   0  -7 -10   13.13    1.08
   0  -7 -10   11.33    1.60
   0  -7  10   13.19    1.12
   0  -7 -10   13.21    1.03
   0   7 -10   11.83    1.55
   0   7  10   12.42    1.36
   1  -7  10   40.16    2.77
  -1  -7 -10   43.26    2.73
   1  -7  10   41.67    3.67
  -1  -7 -10   39.95    2.78
  -1  -7 -10   40.65    3.24
   1   7  10   47.28    3.12
  -1   7 -10   43.60    3.39
   2  -7  10   14.97    2.39
   2  -7  10   16.23    1.32
  -2  -7 -10   18.08    1.82
  -2  -7 -10   17.04    1.23
  -2  -7 -10   15.51    1.32
   2   7  10   18.25    1.82
  -2   7 -10   16.67    2.23
   3  -7  10    3.41    0.62
  -3  -7 -10    3.87    0.52
   3  -7  10    2.13    1.45
  -3  -7 -10    4.32    1.03
  -3   7 -10    1.61    1.24
   3   7  10    4.70    1.14
   4  -8 -10    1.22    1.12
  -4  -8  10    0.24    0.58
  -4  -8  10    0.16    0.76
   4  -8 -10   -0.21    0.59
  -4   8  10    0.53    0.79
  -4   8  10    0.23    0.30
  -3  -8  10   87.95    5.92
   3  -8 -10   76.45    5.90
   3  -8 -10   84.59    5.53
  -3   8  10   85.84    5.26
  -3   8  10   86.62    5.57
   2  -8 -10   15.39    2.10
  -2  -8  10   12.22    1.24
  -2  -8  10   13.23    1.76
   2  -8 -10   14.20    1.32
  -2   8  10   12.21    1.03
  -2   8  10   13.67    1.51
   1  -8 -10    8.59    0.97
   1  -8 -10    7.30    1.38
  -1  -8  10    9.81    1.03
  -1  -8  10    7.25    1.58
   1   8 -10    7.91    1.38
  -1   8  10    9.48    1.31
  -1   8  10    9.64    0.79
   0  -8 -10   12.41    1.14
   0  -8 -10   13.36    1.05
   0  -8  10   12.13    1.93
   0  -8  10   12.11    1.16
   0  -8 -10   13.73    1.78
   0   8  10   11.70    1.47
  -1  -8 -10   36.95    2.58
   1  -8  10   36.89    3.60
  -1  -8 -10   36.37    2.48
   1  -8  10   40.31    2.60
  -1  -8 -10   37.49    3.18
   1   8  10   40.55    2.93
  -1   8 -10   34.25    3.33
   2  -8  10    1.26    0.52
  -2  -8 -10    1.26    0.47
  -2  -8 -10    0.52    0.35
   2  -8  10    0.65    1.24
  -2  -8 -10    0.23    1.00
   2   8  10    0.89    0.90
  -2   8 -10   -0.08    1.30
  -2  -9  10   14.03    1.56
   2  -9 -10   18.31    2.41
  -2  -9  10   14.67    2.09
   2  -9 -10   14.84    1.50
  -2   9  10   14.21    1.17
   1  -9 -10    5.08    0.98
   1  -9 -10    4.45    1.44
  -1  -9  10    3.56    0.71
  -1  -9  10    4.91    1.37
  -1   9  10    6.33    0.66
  -1   9  10    7.66    1.17
   0  -9  10   15.29    1.44
   0  -9 -10   15.08    1.26
   0  -9 -10   15.06    1.38
   0  -9  10   15.45    2.44
   0  -9 -10   17.12    2.45
   0   9  10   18.28    2.52
  -7   0  11    0.30    0.44
   7   0 -11   -0.45    1.02
   7   0 -11    0.35    0.74
  -7   0  11   -0.51    0.46
   6   0 -11    0.43    0.57
   6   0 -11   -0.07    0.83
  -6   0  11    0.50    0.44
  -6   0  11    0.18    0.38
  -6   0  11    0.34    0.44
  -5   0  11    0.60    0.29
   5   0 -11    0.07    0.45
   5   0 -11   -0.19    0.59
  -5   0  11   -0.25    0.33
  -5   0  11   -0.16    0.39
  -5   0  11    0.01    0.29
  -4   0  11   -0.26    0.31
   4   0 -11   -0.04    0.34
  -4   0  11   -0.11    0.19
  -4   0  11    0.06    0.31
  -4   0  11   -0.17    0.21
  -3   0  11   -0.25    0.30
   3   0 -11   -0.04    0.22
  -3   0  11   -0.13    0.30
  -3   0  11    0.31    0.18
   3   0 -11    0.94    0.59
  -3   0  11    0.95    0.25
   2   0 -11    0.05    0.11
  -2   0  11    0.16    0.36
  -2   0  11    0.31    0.27
   2   0 -11    0.26    0.47
  -2   0  11   -0.37    0.25
  -2   0  11    0.03    0.13
  -2   0  11   -0.38    0.50
  -2   0  11    0.01    0.14
  -1   0  11    0.57    0.58
  -1   0  11   -0.07    0.11
  -1   0  11    0.06    0.32
  -1   0  11    0.12    0.26
  -1   0  11   -0.02    0.40
  -1   0  11    0.17    0.12
  -1   0  11    0.31    0.40
  -1   0  11    0.17    0.24
   0   0  11    0.21    0.10
   0   0  11   -0.73    0.46
   0   0  11    0.69    0.39
   0   0  11    0.01    0.38
   0   0  11    0.49    0.46
   0   0  11    0.11    0.11
   0   0  11    0.08    0.27
   0   0  11    0.15    0.18
   1   0  11   -0.60    0.37
   1   0  11    0.31    0.40
   1   0  11    0.15    0.46
  -1   0 -11   -0.22    0.33
  -1   0 -11    0.16    0.16
  -1   0 -11    0.26    0.14
   1   0  11    0.25    0.13
   1   0  11    0.18    0.18
   2   0  11   -0.21    0.49
  -2   0 -11    0.36    0.32
   2   0  11    0.36    0.15
  -2   0 -11    0.17    0.15
   2   0  11    0.30    0.29
   2   0  11    0.57    0.18
  -2   0 -11    0.47    0.52
  -3   0 -11    0.01    0.15
  -3   0 -11    0.86    0.59
   3   0  11   -0.06    0.23
   3   0  11   -0.12    0.18
  -3   0 -11   -0.31    0.43
   3   0  11    0.03    0.71
  -4   0 -11    0.33    0.68
   4   0  11    0.10    0.90
  -4   0 -11   -0.23    0.59
  -4   0 -11    0.12    0.18
   4   0  11   -0.08    0.24
   5   0  11   -0.21    1.31
  -5   0 -11    0.06    0.27
  -5   0 -11    0.49    0.90
   6   0  11    0.12    1.76
  -6   0 -11    0.13    0.37
  -6   0 -11   -0.35    0.97
  -7  -1  11    0.69    0.47
   7  -1 -11    1.36    0.83
  -7  -1  11    0.67    0.47
   7  -1 -11    2.10    1.26
   7   1 -11    1.75    1.22
   7   1 -11    0.09    0.75
  -7   1  11    0.58    0.43
  -7   1  11    0.09    0.50
  -6  -1  11   22.96    1.75
   6  -1 -11   23.25    2.20
   6  -1 -11   26.62    2.69
  -6  -1  11   24.12    1.76
  -6   1  11   22.98    1.72
   6   1 -11   21.67    2.05
  -6   1  11   22.90    1.71
  -6   1  11   23.83    1.81
  -5  -1  11   24.83    1.81
  -5  -1  11   24.18    1.85
  -5  -1  11   26.71    1.65
   5  -1 -11   21.44    2.10
  -5   1  11   27.16    1.77
  -5   1  11   26.23    1.79
   5   1 -11   25.98    2.01
  -5   1  11   27.26    1.79
  -5   1  11   28.12    1.93
  -4  -1  11   10.30    0.92
   4  -1 -11    7.88    1.09
  -4  -1  11    9.37    0.64
  -4  -1  11    8.97    0.70
  -4  -1  11   10.18    0.83
  -4  -1  11   10.29    0.82
  -4   1  11    9.77    0.86
  -4   1  11   10.44    0.86
  -4   1  11   10.70    0.99
  -4   1  11    9.21    0.78
   4   1 -11    9.84    0.90
  -3  -1  11  101.22    6.81
  -3  -1  11  105.22    6.69
  -3  -1  11  109.09    6.69
  -3  -1  11  121.26    6.83
  -3  -1  11  112.31    6.73
  -3   1  11  119.74    6.82
  -3   1  11  108.43    6.72
  -3   1  11  107.03    8.00
  -3   1  11  110.44    6.75
  -3   1  11  100.73    6.85
   3   1 -11  118.75    6.74
  -2  -1  11    4.89    0.45
  -2  -1  11    5.73    0.59
  -2  -1  11    4.70    0.58
   2  -1 -11    3.98    0.52
  -2  -1  11    5.27    0.42
  -2  -1  11    5.16    0.69
  -2   1  11    5.45    0.64
  -2   1  11    4.95    0.45
   2   1 -11    5.30    0.39
  -2   1  11    5.03    0.69
  -2   1  11    4.53    0.99
  -2   1  11    4.86    0.46
  -2   1  11    5.16    0.61
  -1  -1  11  145.21    8.61
  -1  -1  11  136.66    8.65
  -1  -1  11  131.20    8.50
  -1  -1  11  115.71    8.64
  -1  -1  11  146.91    8.30
  -1  -1  11  141.17    8.32
  -1  -1  11  130.48    8.40
  -1   1  11  130.09    8.43
  -1   1  11  142.22    8.52
  -1   1  11  141.31    8.52
  -1   1  11  138.24    8.57
  -1   1  11  149.74    8.82
  -1   1  11  141.90    8.33
  -1   1  11  135.24    8.59
  -1   1  11  142.31    8.32
   0  -1  11   41.08    2.73
   0  -1  11   42.52    3.05
   0  -1  11   45.40    2.67
   0  -1  11   43.99    3.10
   0  -1  11   44.71    2.66
   0  -1  11   42.97    3.06
   0   1  11   44.90    2.68
   0   1 -11   45.10    2.65
   0   1 -11   40.48    2.84
   0   1  11   42.67    2.99
   0   1  11   42.74    3.00
   0   1  11   45.61    2.69
   0   1  11   40.10    2.76
   0   1  11   42.43    2.98
   0   1  11   45.47    2.93
  -1  -1 -11   25.18    1.51
   1  -1  11   22.77    1.51
   1  -1  11   23.80    1.82
   1  -1  11   21.11    1.45
   1  -1  11   23.49    1.46
   1  -1  11   22.73    2.00
  -1  -1 -11   19.50    1.58
   1   1  11   25.96    1.68
   1   1  11   23.00    1.92
   1   1  11   23.31    1.49
  -1   1 -11   24.23    1.49
  -1   1 -11   24.71    1.79
   1   1  11   22.43    1.53
   1   1  11   24.03    1.95
   2  -1  11   39.63    3.17
   2  -1  11   39.39    2.44
   2  -1  11   37.42    2.62
   2  -1  11   40.09    2.44
  -2  -1 -11   41.18    2.46
  -2  -1 -11   40.05    2.80
  -2  -1 -11   33.59    2.64
   2   1  11   37.89    3.09
   2   1  11   40.60    2.51
  -2   1 -11   43.62    2.57
   2   1  11   38.41    2.46
   2   1  11   39.70    2.44
  -2   1 -11   41.15    2.85
  -2   1 -11   37.74    2.43
   3  -1  11    3.88    0.44
   3  -1  11    3.56    0.32
  -3  -1 -11    3.67    0.40
  -3  -1 -11    3.80    0.75
  -3  -1 -11    3.86    0.80
   3  -1  11    2.65    1.05
   3  -1  11    3.76    0.51
  -3   1 -11    2.27    0.81
   3   1  11    2.57    0.27
   3   1  11    3.12    0.30
  -3   1 -11    2.80    0.34
  -3   1 -11    3.95    0.66
   3   1  11    2.00    0.95
  -4  -1 -11   13.03    0.94
  -4  -1 -11   10.85    1.41
   4  -1  11   12.97    1.11
   4  -1  11    8.87    1.99
  -4  -1 -11   11.13    1.53
  -4   1 -11   14.50    1.83
  -4   1 -11   10.71    1.59
  -4   1 -11   12.01    0.89
   4   1  11   15.08    1.10
  -5  -1 -11    7.89    0.74
  -5  -1 -11    6.92    1.36
  -5   1 -11    8.42    0.70
  -5   1 -11    8.45    1.44
   5   1  11    4.54    1.75
  -6  -1 -11    0.71    0.40
   6  -1  11    0.90    1.74
  -6  -1 -11    1.55    1.27
   6   1  11   -0.78    1.79
  -6   1 -11    0.87    0.61
  -6   1 -11    0.42    1.12
  -7  -2  11    0.30    0.46
   7  -2 -11    0.20    1.29
  -7  -2  11    0.80    0.48
   7  -2 -11   -0.03    0.75
   7   2 -11   -0.21    0.64
  -7   2  11   -0.41    0.40
   7   2 -11    0.59    1.30
  -7   2  11    0.95    0.49
   6  -2 -11    6.37    1.17
  -6  -2  11    7.55    0.91
  -6  -2  11    7.65    0.93
   6  -2 -11    8.30    1.83
   6   2 -11   11.17    1.90
   6   2 -11    7.71    1.13
  -6   2  11    7.65    0.94
  -6   2  11    7.50    0.82
  -6   2  11    6.18    0.84
  -5  -2  11    0.44    0.33
   5  -2 -11    1.35    0.70
   5  -2 -11    0.88    0.67
   5  -2 -11   -0.47    0.70
  -5  -2  11    1.03    0.41
   5  -2 -11    1.13    0.61
   5   2 -11    1.38    0.43
  -5   2  11    1.30    0.38
   5   2 -11    1.49    0.86
  -5   2  11    0.38    0.43
  -5   2  11    1.01    0.33
  -4  -2  11    0.91    0.18
  -4  -2  11    1.20    0.33
   4  -2 -11    1.16    0.48
   4  -2 -11    2.12    0.71
   4  -2 -11    1.28    0.79
  -4  -2  11    1.52    0.41
  -4   2  11    0.80    0.37
  -4   2  11    1.17    0.33
  -4   2  11    0.93    0.27
   4   2 -11    2.02    0.80
   4   2 -11    1.21    0.32
  -3  -2  11    0.16    0.32
  -3  -2  11    0.15    0.20
  -3  -2  11    0.33    0.18
   3  -2 -11   -0.61    0.71
   3  -2 -11    0.03    0.42
  -3   2  11    0.50    0.73
  -3   2  11    0.22    0.27
  -3   2  11    0.01    0.30
   3   2 -11   -0.07    0.17
   3   2 -11    0.25    0.14
  -3   2  11    0.15    0.16
  -2  -2  11   11.64    0.94
  -2  -2  11   11.42    0.77
  -2  -2  11   10.25    0.90
   2  -2 -11   10.27    1.35
  -2  -2  11   11.59    1.14
  -2  -2  11   10.83    1.10
  -2  -2  11   10.70    0.82
   2  -2 -11   11.26    0.89
  -2   2  11   11.32    0.82
  -2   2  11   11.75    1.45
  -2   2  11   11.83    0.96
   2   2 -11   12.01    0.78
  -2   2  11   10.48    0.99
  -1  -2  11    3.36    0.47
  -1  -2  11    3.64    0.36
   1  -2 -11    3.95    0.75
  -1  -2  11    3.85    0.73
  -1  -2  11    2.90    0.77
   1  -2 -11    3.86    0.28
  -1  -2  11    4.19    0.75
  -1  -2  11    3.86    0.32
  -1   2  11    3.82    0.60
  -1   2  11    3.99    0.58
  -1   2  11    3.83    0.84
   1   2 -11    3.88    0.50
  -1   2  11    4.13    0.61
  -1   2  11    3.63    0.38
  -1   2  11    3.08    0.62
   0  -2 -11   15.57    0.98
   0  -2  11   15.70    0.98
   0  -2  11   14.62    1.44
   0  -2 -11   15.54    1.06
   0  -2  11   14.09    1.08
   0  -2  11   16.53    1.60
   0  -2 -11   15.64    1.35
   0  -2 -11   14.25    1.01
   0  -2  11   15.61    1.50
   0  -2  11   15.09    1.00
   0   2  11   18.14    1.47
   0   2 -11   15.29    1.02
   0   2  11   15.01    1.37
   0   2  11   14.43    1.25
   0   2 -11   15.08    1.23
   0   2  11   16.31    1.31
   1  -2  11    0.09    0.11
   1  -2  11    0.32    0.17
  -1  -2 -11    0.25    0.23
   1  -2  11    0.17    0.47
   1  -2  11    1.09    1.06
   1  -2  11    0.07    0.11
   1  -2  11    0.02    0.53
  -1  -2 -11    0.17    0.16
  -1   2 -11    0.74    0.43
   1   2  11    0.10    0.30
  -1   2 -11    0.20    0.15
   1   2  11    0.30    0.22
   1   2  11    0.30    0.54
   1   2  11    0.05    0.38
   1   2  11    0.47    0.40
   2  -2  11    2.80    0.99
  -2  -2 -11    3.74    0.40
   2  -2  11    2.71    0.35
  -2  -2 -11    2.16    0.49
   2  -2  11    3.11    0.34
   2  -2  11    2.69    0.62
   2   2  11    3.35    0.40
   2   2  11    2.00    0.76
   2   2  11    4.59    0.45
   2   2  11    3.21    0.84
  -2   2 -11    3.03    0.32
  -2   2 -11    3.86    0.48
  -2   2 -11    3.87    0.81
  -3  -2 -11    1.18    0.51
   3  -2  11    1.19    0.46
   3  -2  11    0.88    0.26
   3  -2  11    0.99    0.83
   3  -2  11    1.06    0.20
  -3  -2 -11    0.83    0.24
  -3  -2 -11    1.38    0.62
   3  -2  11    1.02    0.30
   3   2  11    0.79    0.91
  -3   2 -11    0.76    0.70
  -3   2 -11    0.98    0.20
   3   2  11    1.10    0.66
   3   2  11    0.79    0.17
   3   2  11    0.70    0.16
  -3   2 -11    0.52    0.39
   3   2  11    0.51    0.79
  -4  -2 -11   12.05    1.59
   4  -2  11    9.72    2.21
  -4  -2 -11   13.95    0.96
  -4   2 -11   10.43    1.58
  -4   2 -11   12.19    0.86
  -5  -2 -11    3.93    0.56
  -5  -2 -11    3.66    1.11
   5  -2  11    0.98    1.28
  -5   2 -11    2.58    1.02
  -5   2 -11    3.44    0.49
   5   2  11    1.21    1.40
  -7  -3  11    4.93    0.80
   7  -3 -11    6.97    1.48
  -7  -3  11    6.68    0.93
   7  -3 -11    5.77    1.21
   7  -3 -11    4.55    1.76
  -7   3  11    5.62    0.81
  -7   3  11    6.83    1.00
  -7   3  11    7.23    0.98
   7   3 -11    6.68    1.25
   7   3 -11    9.41    2.25
   6  -3 -11   27.39    2.58
  -6  -3  11   23.09    1.90
  -6  -3  11   26.21    1.91
   6  -3 -11   28.14    2.98
   6   3 -11   26.35    2.06
  -6   3  11   25.93    1.85
  -6   3  11   25.09    1.99
  -5  -3  11   28.89    2.27
   5  -3 -11   38.42    3.02
  -5  -3  11   29.58    2.26
   5  -3 -11   37.43    2.92
  -5   3  11   33.57    2.27
   5   3 -11   32.59    2.31
  -5   3  11   33.43    2.20
  -4  -3  11   36.34    2.68
   4  -3 -11   47.49    3.30
  -4  -3  11   37.89    2.65
  -4  -3  11   39.33    2.53
  -4   3  11   43.03    2.61
   4   3 -11   41.63    2.64
  -4   3  11   40.92    2.67
   3  -3 -11   40.68    2.97
  -3  -3  11   43.29    2.89
  -3  -3  11   44.91    2.78
  -3  -3  11   46.56    2.78
  -3  -3  11   43.99    2.95
   3  -3 -11   50.61    3.48
   3   3 -11   46.90    2.86
   3   3 -11   46.20    2.80
  -3   3  11   44.78    2.95
  -3   3  11   46.87    2.86
  -2  -3  11    2.82    0.44
   2  -3 -11    3.38    0.75
  -2  -3  11    1.97    0.32
   2  -3 -11    2.41    0.78
   2  -3 -11    2.25    0.43
  -2  -3  11    2.24    0.41
  -2  -3  11    2.04    0.66
  -2  -3  11    2.01    0.38
  -2  -3  11    2.06    0.26
   2   3 -11    1.93    0.32
  -2   3  11    3.09    0.48
  -2   3  11    1.91    0.34
  -2   3  11    2.35    0.77
  -1  -3  11   18.63    1.50
  -1  -3  11   16.52    1.16
   1  -3 -11   17.98    1.12
  -1  -3  11   17.72    1.10
   1  -3 -11   19.41    1.17
  -1  -3  11   17.23    1.65
   1  -3 -11   16.19    1.68
  -1  -3  11   15.90    1.24
   1   3 -11   16.70    1.28
  -1   3  11   18.40    1.18
  -1   3  11   16.93    1.40
  -1   3  11   16.65    1.65
  -1   3  11   17.67    1.35
   0  -3 -11   36.44    2.16
   0  -3  11   31.69    2.61
   0  -3 -11   34.84    2.14
   0  -3 -11   35.47    2.21
   0  -3 -11   32.05    2.50
   0  -3  11   36.23    2.62
   0  -3  11   34.18    2.13
   0  -3  11   31.91    2.21
   0   3 -11   31.74    2.32
   0   3  11   34.40    2.35
   0   3  11   37.32    2.56
   0   3  11   35.13    2.41
   0   3 -11   35.21    2.38
   0   3  11   32.42    2.47
   1  -3  11    4.45    0.39
  -1  -3 -11    5.26    0.56
   1  -3  11    5.01    1.06
   1  -3  11    6.54    0.94
  -1  -3 -11    5.44    0.52
   1  -3  11    5.33    0.51
  -1  -3 -11    5.60    0.82
   1  -3  11    5.39    0.38
  -1   3 -11    5.64    0.67
   1   3  11    2.88    0.74
   1   3  11    6.43    0.86
   1   3  11    4.91    0.61
   1   3  11    4.80    0.88
  -1   3 -11    5.28    0.50
  -1   3 -11    5.72    0.80
   2  -3  11   63.75    4.97
   2  -3  11   70.64    4.15
   2  -3  11   69.60    4.12
   2  -3  11   58.64    4.24
   2  -3  11   77.81    4.53
   2  -3  11   66.47    4.19
  -2  -3 -11   69.25    4.22
  -2  -3 -11   65.00    4.30
   2   3  11   73.13    4.22
  -2   3 -11   68.90    4.27
   2   3  11   70.49    4.76
  -3  -3 -11    0.21    0.46
  -3  -3 -11    0.37    0.24
   3  -3  11    0.70    0.48
   3  -3  11    0.30    0.20
   3  -3  11    0.60    0.83
   3   3  11    0.81    0.97
   3   3  11    0.36    0.74
  -3   3 -11    0.15    0.71
   3   3  11    0.44    0.20
  -3   3 -11    0.58    0.37
  -3   3 -11    0.43    0.17
   3   3  11    0.44    0.55
  -4  -3 -11   27.51    1.75
   4  -3  11   19.98    3.04
  -4   3 -11   27.36    2.42
   4   3  11   27.31    2.81
   5  -3  11    1.63    1.51
  -5  -3 -11    1.15    0.36
   5   3  11    0.29    1.32
   5   3  11    2.30    1.46
  -5   3 -11    1.25    0.98
   7  -4 -11    3.84    1.78
   7  -4 -11    4.14    1.30
  -7  -4  11    2.61    0.63
   7  -4 -11    1.55    0.91
  -7  -4  11    2.48    0.57
  -7   4  11    1.85    0.52
   7   4 -11    3.09    0.78
   7   4 -11    2.34    1.32
  -7   4  11    1.18    0.80
   6  -4 -11    0.84    0.97
   6  -4 -11    0.54    0.76
   6  -4 -11    0.29    1.05
  -6  -4  11    1.16    0.47
  -6  -4  11    0.05    0.39
  -6   4  11    0.12    0.60
  -6   4  11    0.67    0.34
   6   4 -11    0.95    0.97
   6   4 -11    0.19    0.39
   5  -4 -11   17.62    2.10
  -5  -4  11   17.59    1.43
  -5  -4  11   15.84    1.41
   5  -4 -11   20.74    2.18
  -5   4  11   16.56    1.47
  -5   4  11   17.16    1.31
   5   4 -11   18.64    1.41
  -4  -4  11    1.10    0.38
   4  -4 -11    1.32    0.69
  -4  -4  11    0.68    0.22
   4  -4 -11    1.41    0.95
   4  -4 -11    0.74    0.44
  -4  -4  11    0.59    0.35
   4   4 -11    2.34    0.92
  -4   4  11    0.48    0.23
   4   4 -11    0.82    0.28
  -3  -4  11   13.37    0.91
  -3  -4  11   12.56    1.04
  -3  -4  11   12.20    1.06
   3  -4 -11   14.35    1.74
   3  -4 -11   11.96    1.09
  -3   4  11   12.41    0.95
  -3   4  11   11.75    1.14
   3   4 -11   13.45    0.88
   3   4 -11   13.47    0.97
  -2  -4  11    0.89    0.16
  -2  -4  11    0.37    0.46
  -2  -4  11    0.55    0.19
   2  -4 -11    0.76    0.46
   2  -4 -11    0.48    0.25
  -2  -4  11    0.82    0.28
  -2  -4  11    0.31    0.31
  -2  -4  11    0.45    0.29
   2  -4 -11    0.60    0.76
  -2   4  11    0.56    0.38
  -2   4  11    0.40    0.21
   2   4 -11    0.65    0.26
  -2   4  11    0.51    0.74
   1  -4 -11    2.71    0.88
  -1  -4  11    2.31    0.40
   1  -4 -11    2.56    0.38
  -1  -4  11    2.39    0.34
  -1  -4  11    2.22    0.40
  -1  -4  11    2.94    0.55
   1  -4 -11    2.86    0.30
  -1  -4  11    3.27    0.78
  -1   4  11    2.94    0.79
   1   4 -11    3.12    0.50
  -1   4  11    3.20    0.37
  -1   4  11    3.17    0.52
   0  -4 -11   12.81    0.89
   0  -4  11   10.87    0.97
   0  -4  11   14.19    1.37
   0  -4 -11   12.76    0.94
   0  -4  11   13.00    1.45
   0  -4 -11   12.89    1.45
   0  -4 -11   12.90    0.90
   0  -4  11   11.89    0.96
   0   4  11   10.98    1.22
   0   4  11   14.65    1.23
   0   4  11   12.31    1.34
   0   4  11   13.64    1.15
   0   4 -11   11.17    1.15
   1  -4  11   33.93    2.89
  -1  -4 -11   35.22    2.54
   1  -4  11   34.15    2.23
  -1  -4 -11   34.58    2.23
  -1  -4 -11   35.44    2.28
   1   4  11   38.29    2.52
   1   4  11   35.96    2.62
   1   4  11   34.71    2.29
  -1   4 -11   34.38    2.26
  -1   4 -11   34.10    2.60
   1   4  11   30.75    2.52
  -2  -4 -11   22.32    1.43
   2  -4  11   19.33    2.25
  -2  -4 -11   18.35    1.56
  -2  -4 -11   21.27    1.65
   2  -4  11   18.61    1.65
   2  -4  11   21.47    1.41
  -2   4 -11   21.14    1.49
   2   4  11   22.08    2.04
   2   4  11   22.81    1.42
  -2   4 -11   20.12    1.51
  -2   4 -11   22.81    2.01
  -3  -4 -11   13.87    1.17
  -3  -4 -11   15.32    1.07
   3  -4  11   15.98    1.03
  -3  -4 -11   11.06    1.37
   3  -4  11   11.45    2.18
   3   4  11   17.17    1.98
  -3   4 -11   13.09    1.81
   4  -4  11    9.61    2.20
  -4  -4 -11   10.97    0.92
   4   4  11   12.37    2.03
  -4   4 -11    9.86    1.56
   5  -4  11    0.12    1.41
  -5  -4 -11    0.48    0.36
  -5   4 -11    0.64    1.11
   5   4  11   -1.22    1.54
   6  -5 -11    0.39    1.08
  -6  -5  11    1.92    0.58
   6  -5 -11    0.72    0.85
  -6  -5  11    2.66    0.59
   6  -5 -11    0.91    1.25
   6   5 -11    1.25    0.51
   6   5 -11    0.34    1.15
  -6   5  11    1.74    0.76
  -6   5  11    0.49    0.36
   5  -5 -11    4.97    1.18
  -5  -5  11    4.89    0.74
  -5  -5  11    3.80    0.61
   5  -5 -11    2.84    0.84
   5  -5 -11    2.85    1.14
   5   5 -11    7.25    1.73
  -5   5  11    4.19    0.59
   5   5 -11    4.27    0.67
  -5   5  11    3.88    0.77
   4  -5 -11    1.81    0.57
  -4  -5  11    2.95    0.50
   4  -5 -11    3.50    0.86
  -4  -5  11    1.83    0.51
   4  -5 -11    1.73    1.01
   4   5 -11    4.52    1.19
  -4   5  11    3.07    0.63
  -4   5  11    2.71    0.42
   4   5 -11    3.22    0.51
  -3  -5  11   32.31    2.43
  -3  -5  11   39.56    2.87
   3  -5 -11   40.14    3.14
  -3  -5  11   35.35    2.50
  -3  -5  11   35.03    2.40
   3  -5 -11   35.76    2.54
   3   5 -11   39.95    2.43
   3   5 -11   37.66    2.31
  -3   5  11   38.66    2.40
  -3   5  11   37.84    2.58
  -2  -5  11    9.27    0.71
  -2  -5  11    9.24    0.88
  -2  -5  11    8.63    0.73
   2  -5 -11    9.57    1.44
  -2  -5  11    8.66    0.73
   2  -5 -11    9.11    0.81
  -2  -5  11    8.30    1.18
  -2  -5  11    8.06    0.60
  -2   5  11    9.59    0.73
   2   5 -11    8.27    0.78
  -2   5  11    8.63    1.02
   1  -5 -11   66.57    4.99
  -1  -5  11   76.45    4.37
  -1  -5  11   73.27    4.61
  -1  -5  11   73.12    4.40
  -1  -5  11   70.97    4.53
   1  -5 -11   76.01    4.54
   1  -5 -11   70.24    4.47
  -1  -5  11   69.05    4.56
  -1  -5  11   74.52    5.05
  -1   5  11   75.52    4.58
   1   5 -11   72.90    4.62
  -1   5  11   72.15    4.72
  -1   5  11   75.10    4.50
   0  -5 -11    5.73    1.05
   0  -5 -11    4.99    0.52
   0  -5 -11    5.33    0.52
   0  -5  11    3.30    0.78
   0  -5  11    4.94    0.61
   0  -5  11    3.82    0.67
   0  -5  11    5.05    1.04
   0  -5 -11    5.07    0.55
   0   5 -11    5.26    0.83
   0   5  11    3.41    0.75
   0   5  11    5.70    0.82
  -1  -5 -11   24.84    2.09
  -1  -5 -11   25.76    1.69
  -1  -5 -11   24.37    1.68
   1  -5  11   23.87    2.41
  -1  -5 -11   28.05    1.76
   1  -5  11   24.75    1.70
   1  -5  11   21.97    1.84
  -1   5 -11   24.87    1.75
  -1   5 -11   27.33    2.20
   1   5  11   24.94    2.07
  -2  -5 -11    1.28    0.28
   2  -5  11    1.60    0.96
   2  -5  11    0.92    0.31
  -2  -5 -11    1.29    0.58
  -2  -5 -11    1.40    0.42
  -2   5 -11    0.78    0.88
   2   5  11    1.09    0.74
   3  -5  11    0.18    0.28
  -3  -5 -11    0.09    0.24
   3  -5  11   -0.36    0.95
  -3  -5 -11    0.55    0.74
  -3   5 -11   -0.39    0.95
   3   5  11   -0.03    0.91
   4  -5  11    2.03    1.53
  -4  -5 -11    1.45    0.36
  -4   5 -11    1.95    1.16
   4   5  11    1.19    1.14
   6   6 -11   13.63    2.57
   5  -6 -11    2.13    0.75
   5  -6 -11    1.40    0.94
   5  -6 -11    2.58    1.18
  -5  -6  11    1.33    0.48
  -5  -6  11    1.88    0.61
   5   6 -11    2.06    1.09
   5   6 -11    1.50    0.45
  -5   6  11    1.41    0.37
  -5   6  11    1.36    0.73
   4  -6 -11    2.82    0.86
  -4  -6  11    1.65    0.63
  -4  -6  11    1.23    0.49
  -4  -6  11    0.96    0.39
   4  -6 -11    2.19    0.62
   4  -6 -11    4.22    1.15
   4   6 -11    1.73    0.37
  -4   6  11    1.57    0.61
  -4   6  11    1.34    0.33
  -3  -6  11    1.91    0.35
   3  -6 -11    2.52    0.71
  -3  -6  11    1.64    0.51
   3  -6 -11    1.64    0.47
  -3  -6  11    1.52    0.67
   3  -6 -11    1.85    0.96
  -3   6  11    1.90    0.61
  -3   6  11    1.30    0.34
   2  -6 -11   10.34    0.91
   2  -6 -11   12.93    1.85
  -2  -6  11   12.11    1.05
  -2  -6  11   12.90    1.46
   2  -6 -11   11.30    1.03
  -2  -6  11   11.01    0.78
  -2   6  11   10.96    1.21
  -2   6  11   11.46    0.90
   2   6 -11   12.45    1.00
  -1  -6  11   12.06    1.52
   1  -6 -11   10.87    0.90
  -1  -6  11   11.80    1.02
   1  -6 -11   12.03    1.77
   1  -6 -11   12.92    1.00
  -1   6  11   11.17    1.26
   1   6 -11   10.90    1.21
  -1   6  11   11.81    0.91
   0  -6 -11    4.69    1.09
   0  -6  11    6.20    0.71
   0  -6 -11    6.27    0.65
   0  -6 -11    6.21    0.63
   0  -6  11    6.31    1.33
   0  -6 -11    6.17    0.64
   0   6 -11    6.04    1.00
   0   6  11    5.88    0.89
   1  -6  11    2.85    1.06
  -1  -6 -11    2.86    0.51
  -1  -6 -11    2.62    0.42
  -1  -6 -11    3.08    1.01
   1  -6  11    2.67    0.47
   1   6  11    3.19    0.81
  -1   6 -11    2.33    0.96
   2  -6  11    9.21    1.93
  -2  -6 -11   10.61    1.42
  -2  -6 -11   10.02    0.86
   2  -6  11    9.50    0.93
  -2   6 -11   10.17    1.56
   2   6  11   10.83    1.50
  -3  -6 -11    3.67    0.50
   3  -6  11    4.75    0.70
   3  -6  11    2.99    1.42
   3   6  11    4.12    1.16
  -3   6 -11    2.71    1.25
  -4  -6 -11   26.14    1.78
   4  -6  11   22.43    3.67
  -4   6 -11   24.44    2.85
   4   6  11   24.62    2.85
  -5  -7  11   10.28    1.54
  -5  -7  11   10.48    1.57
   5  -7 -11    9.43    1.56
  -5   7  11   10.26    1.54
  -5   7  11    9.58    0.95
   5   7 -11   10.86    1.11
  -4  -7  11    7.67    1.41
   4  -7 -11    5.58    1.45
   4  -7 -11    7.03    1.21
  -4  -7  11    7.16    1.01
  -4   7  11    7.80    1.10
  -4   7  11    8.05    0.78
   3  -7 -11    2.30    1.20
  -3  -7  11    1.91    0.56
  -3  -7  11    1.84    0.78
   3  -7 -11    2.49    0.61
  -3   7  11    2.49    0.71
  -3   7  11    1.73    0.36
  -2  -7  11    2.46    0.83
   2  -7 -11    2.75    1.19
   2  -7 -11    2.34    0.53
  -2  -7  11    2.10    0.51
  -2   7  11    2.54    0.74
  -2   7  11    2.64    0.43
  -1  -7  11    0.43    0.41
  -1  -7  11    0.68    0.70
   1  -7 -11    1.73    1.06
   1  -7 -11    1.19    0.40
   1   7 -11    1.85    0.72
  -1   7  11    0.76    0.63
  -1   7  11    1.00    0.31
   0  -7 -11    2.18    0.43
   0  -7 -11    2.44    1.05
   0  -7  11    2.02    0.49
   0  -7 -11    2.31    0.44
   0  -7  11    1.89    0.89
   0   7 -11    1.03    0.89
   0   7  11    1.76    0.73
   1  -7  11    0.83    0.90
   1  -7  11    0.33    0.38
  -1  -7 -11    0.17    0.29
  -1  -7 -11    0.49    0.32
  -1  -7 -11   -0.20    0.90
   1   7  11    1.40    0.75
  -1   7 -11   -0.13    0.95
   2  -7  11    9.19    0.97
  -2  -7 -11    8.77    0.92
  -2  -7 -11    8.63    1.26
  -2  -7 -11    8.86    0.84
   2  -7  11    6.87    1.72
   2   7  11   11.98    1.65
  -2   7 -11    9.68    1.63
   3  -7  11    2.97    1.54
   3  -7  11    3.37    0.61
  -3  -7 -11    2.34    0.47
   3   7  11    1.29    1.08
  -3   7 -11    1.99    1.35
   3  -8 -11    2.82    0.74
   3  -8 -11    5.88    1.53
  -3  -8  11    3.22    0.97
  -3  -8  11    2.48    0.69
  -3   8  11    2.76    0.48
  -3   8  11    4.17    0.95
  -2  -8  11    0.84    0.83
  -2  -8  11    0.05    0.51
   2  -8 -11   -0.24    0.43
   2  -8 -11    1.20    1.19
  -2   8  11    1.25    0.75
  -2   8  11    0.73    0.38
  -1  -8  11    2.57    0.62
  -1  -8  11    2.30    1.03
   1  -8 -11    2.35    1.26
   1  -8 -11    3.41    0.64
  -1   8  11    2.76    0.43
  -1   8  11    2.73    0.85
   0  -8 -11    8.98    0.85
   0  -8 -11    7.27    1.47
   0  -8  11    5.43    1.40
   0  -8  11    7.04    0.95
   0  -8 -11    8.27    0.90
   0   8  11    7.97    1.25
   0   8 -11    8.23    1.47
  -1  -8 -11    3.33    0.61
   1  -8  11    3.75    0.66
  -1  -8 -11    3.88    1.30
   1  -8  11    3.62    1.31
  -1  -8 -11    4.40    0.58
  -1   8 -11    1.21    1.34
   1   8  11    4.77    1.05
   7   0 -12    0.62    0.78
   7   0 -12    0.80    1.20
  -7   0  12    1.20    0.55
  -7   0  12    0.89    0.52
   6   0 -12    4.32    0.98
   6   0 -12    5.86    1.34
  -6   0  12    4.72    0.78
  -6   0  12    5.71    0.80
   5   0 -12   21.61    1.93
  -5   0  12   21.86    1.59
  -5   0  12   26.15    1.84
  -5   0  12   25.02    1.69
  -4   0  12   37.00    2.43
  -4   0  12   38.43    2.65
   4   0 -12   35.11    2.60
  -4   0  12   43.14    2.58
  -4   0  12   38.98    2.50
   3   0 -12   46.24    2.93
  -3   0  12   41.40    3.05
  -3   0  12   42.68    2.92
  -3   0  12   54.23    3.10
  -3   0  12   47.55    2.92
   2   0 -12    9.27    0.59
  -2   0  12    7.84    0.82
  -2   0  12    8.85    0.67
  -2   0  12    8.23    0.87
  -2   0  12   10.43    1.04
  -2   0  12    8.71    0.69
  -1   0  12   58.33    3.64
  -1   0  12   51.51    3.32
  -1   0  12   54.57    3.67
  -1   0  12   51.47    3.54
  -1   0  12   56.82    4.00
  -1   0  12   54.04    3.31
  -1   0  12   52.61    3.54
   0   0  12   46.31    2.78
   0   0  12   45.07    3.27
   0   0  12   44.54    2.76
   0   0  12   41.83    2.84
   0   0  12   46.77    3.13
   0   0  12   45.22    3.14
   1   0  12   20.71    1.88
   1   0  12   19.38    1.36
  -1   0 -12   19.47    1.34
  -1   0 -12   20.68    1.64
   1   0  12   21.16    1.61
  -1   0 -12   21.64    1.33
   1   0  12   20.30    1.32
  -2   0 -12  125.95    7.11
  -2   0 -12  114.98    7.30
  -2   0 -12  109.94    6.96
   2   0  12  114.01    6.94
   2   0  12  108.43    6.96
   2   0  12  122.85    7.07
   2   0  12  109.28    7.69
   3   0  12    1.92    0.28
  -3   0 -12    2.18    0.30
  -3   0 -12    0.83    0.72
  -3   0 -12    2.64    0.68
   3   0  12    1.69    0.95
  -4   0 -12   22.76    1.63
   4   0  12   17.21    2.79
  -4   0 -12   25.56    2.18
  -5   0 -12    3.23    1.10
   5   0  12    1.02    1.43
  -5   0 -12    2.22    0.40
  -7  -1  12    0.67    0.51
   7  -1 -12    2.31    0.93
   7  -1 -12    0.25    1.23
  -7  -1  12    0.29    0.48
  -7   1  12    0.53    0.50
   7   1 -12    0.43    0.70
   7   1 -12    0.54    1.15
  -7   1  12    0.77    0.56
  -6  -1  12   66.71    4.49
  -6  -1  12   72.09    4.53
   6  -1 -12   63.85    4.87
   6   1 -12   69.90    4.76
  -6   1  12   68.96    4.47
  -6   1  12   74.72    4.50
  -6   1  12   74.94    4.58
  -5  -1  12   40.47    2.92
  -5  -1  12   44.13    2.87
   5  -1 -12   38.91    3.15
  -5   1  12   44.99    3.00
  -5   1  12   45.66    2.81
   5   1 -12   46.90    3.04
  -5   1  12   43.51    2.85
  -4  -1  12    1.68    0.45
  -4  -1  12    1.92    0.27
   4  -1 -12    1.59    0.66
   4  -1 -12    1.09    0.49
  -4  -1  12    0.94    0.37
   4   1 -12    1.66    0.36
  -4   1  12    2.48    0.55
  -4   1  12    1.32    0.34
  -4   1  12    2.07    0.46
  -4   1  12    1.49    0.33
   4   1 -12    2.67    0.88
  -3  -1  12   84.61    5.46
  -3  -1  12   84.56    5.33
  -3  -1  12   95.77    5.51
   3  -1 -12   74.63    5.43
  -3  -1  12   89.63    5.36
  -3   1  12   84.92    5.38
  -3   1  12   95.27    5.49
  -3   1  12   87.44    5.36
  -3   1  12   83.07    5.51
   3   1 -12   92.90    5.33
   2  -1 -12   74.84    5.10
  -2  -1  12   89.13    5.40
  -2  -1  12   86.68    5.11
  -2  -1  12   82.54    5.23
  -2  -1  12   78.32    5.23
  -2  -1  12   87.98    5.51
  -2  -1  12   84.64    5.14
  -2   1  12   81.87    5.25
  -2   1  12   86.85    6.12
  -2   1  12   84.59    5.31
  -2   1  12   84.65    5.14
   2   1 -12   93.56    5.08
  -2   1  12   77.28    5.28
  -1  -1  12   20.40    1.39
  -1  -1  12   20.93    1.66
  -1  -1  12   21.21    1.36
  -1  -1  12   20.34    1.50
  -1  -1  12   20.71    1.76
  -1  -1  12   22.94    1.85
  -1   1  12   22.12    1.66
  -1   1  12   22.19    1.58
  -1   1  12   22.51    1.73
  -1   1  12   20.51    1.41
  -1   1  12   23.58    2.00
  -1   1  12   21.03    1.69
   0  -1  12  220.72   13.37
   0  -1  12  212.80   13.26
   0  -1  12  210.50   13.32
   0  -1  12  214.56   12.88
   0  -1  12  204.25   12.89
   0  -1  12  201.63   12.96
   0   1  12  217.24   13.14
   0   1 -12  220.68   13.09
   0   1  12  219.56   13.24
   0   1  12  205.87   12.99
   0   1  12  231.91   12.96
   0   1  12  210.06   12.91
   0   1  12  226.80   13.30
   1  -1  12   31.17    2.58
   1  -1  12   31.68    1.97
   1  -1  12   32.80    2.34
  -1  -1 -12   32.29    2.08
  -1  -1 -12   32.19    2.02
   1  -1  12   28.88    2.02
   1  -1  12   31.33    1.97
   1   1  12   31.77    2.18
  -1   1 -12   31.84    2.30
   1   1  12   31.30    2.50
   1   1  12   31.55    2.04
  -1   1 -12   32.98    1.99
   2  -1  12   43.92    2.80
   2  -1  12   50.36    3.04
   2  -1  12   44.20    2.81
  -2  -1 -12   40.65    3.01
  -2  -1 -12   45.32    2.84
   2  -1  12   41.18    3.59
  -2  -1 -12   45.01    3.16
   2   1  12   48.26    2.89
  -2   1 -12   50.67    2.92
  -2   1 -12   44.41    3.21
   2   1  12   43.80    3.55
   2   1  12   46.27    2.81
  -2   1 -12   45.06    2.81
   3  -1  12   84.52    4.93
   3  -1  12   79.77    4.84
   3  -1  12   74.68    5.91
  -3  -1 -12   83.52    5.34
  -3  -1 -12   80.97    4.99
  -3  -1 -12   78.48    5.23
  -3   1 -12   87.47    4.89
   3   1  12   76.47    4.83
   3   1  12   69.25    5.77
  -3   1 -12   86.78    5.43
  -4  -1 -12   13.85    0.97
   4  -1  12    8.98    2.03
  -4  -1 -12   11.44    1.57
  -4   1 -12   14.19    1.80
  -4   1 -12   13.64    0.92
   4   1  12    8.97    2.26
  -5  -1 -12   27.81    1.78
  -5  -1 -12   25.63    2.55
  -5   1 -12   24.37    1.83
  -5   1 -12   23.68    2.57
  -7  -2  12   44.41    3.10
  -7  -2  12   43.56    3.13
   7  -2 -12   55.58    4.61
   7  -2 -12   39.18    3.60
  -7   2  12   46.38    3.15
  -7   2  12   43.56    3.09
   7   2 -12   48.02    3.44
  -6  -2  12   35.83    2.49
  -6  -2  12   34.23    2.50
   6  -2 -12   31.98    2.89
  -6   2  12   37.45    2.56
  -6   2  12   36.69    2.44
  -6   2  12   35.21    2.48
   6   2 -12   37.17    2.65
  -5  -2  12   24.71    1.77
  -5  -2  12   22.78    1.71
  -5  -2  12   21.23    1.79
  -5   2  12   26.75    1.89
  -5   2  12   25.54    1.71
  -5   2  12   23.50    1.71
   5   2 -12   24.99    1.80
  -4  -2  12   44.10    2.89
   4  -2 -12   49.40    3.54
  -4  -2  12   41.61    2.96
  -4   2  12   45.42    2.86
   4   2 -12   45.65    2.87
  -4   2  12   43.88    2.88
  -4   2  12   48.45    3.07
  -4   2  12   40.42    2.92
   3  -2 -12    5.84    0.87
  -3  -2  12    7.77    0.71
   3  -2 -12    7.48    1.26
  -3  -2  12    7.84    0.64
  -3  -2  12    8.17    0.84
  -3  -2  12    7.75    0.63
  -3   2  12    7.24    0.90
   3   2 -12    9.47    0.64
  -3   2  12    7.63    0.67
  -3   2  12    7.72    0.77
  -2  -2  12    5.20    0.86
  -2  -2  12    5.33    0.51
   2  -2 -12    5.02    0.71
  -2  -2  12    5.26    0.43
  -2  -2  12    4.97    0.80
  -2  -2  12    5.33    0.72
   2  -2 -12    6.78    1.06
  -2  -2  12    4.96    0.65
   2   2 -12    5.78    0.42
  -2   2  12    3.81    0.49
  -2   2  12    4.19    0.99
  -2   2  12    4.71    0.77
  -2   2  12    5.06    0.68
   1  -2 -12   49.05    3.42
  -1  -2  12   48.57    3.43
  -1  -2  12   49.92    3.02
  -1  -2  12   45.94    3.10
  -1  -2  12   50.17    2.98
  -1   2  12   52.00    3.30
  -1   2  12   46.39    3.17
  -1   2  12   49.48    3.03
  -1   2  12   46.33    3.25
  -1   2  12   50.03    3.56
   1   2 -12   47.23    3.12
   0  -2  12    3.50    0.49
   0  -2 -12    4.45    0.46
   0  -2  12    3.96    1.30
   0  -2 -12    3.48    0.42
   0  -2  12    4.44    0.35
   0  -2  12    4.43    0.97
   0  -2  12    4.42    0.38
   0  -2  12    3.54    0.91
   0   2 -12    3.61    0.60
   0   2  12    4.20    0.66
   0   2  12    4.69    0.74
   0   2  12    4.52    0.75
   0   2  12    5.77    0.96
   0   2  12    4.54    0.57
   0   2  12    4.26    0.42
   1  -2  12    4.45    0.49
   1  -2  12    6.36    0.93
  -1  -2 -12    4.38    0.48
   1  -2  12    4.19    1.04
   1  -2  12    4.77    0.40
  -1  -2 -12    3.63    0.61
   1  -2  12    5.39    0.41
  -1   2 -12    5.00    0.75
  -1   2 -12    5.14    0.46
   1   2  12    4.85    0.55
   1   2  12    3.94    0.87
   1   2  12    5.47    0.94
   1   2  12    4.97    0.71
   1   2  12    6.30    0.99
  -2  -2 -12   19.39    1.40
   2  -2  12   21.11    1.30
   2  -2  12   23.16    1.78
   2  -2  12   20.12    1.33
   2  -2  12   19.35    1.34
   2  -2  12   17.37    2.12
  -2   2 -12   20.56    1.43
   2   2  12   21.43    2.15
   2   2  12   20.60    1.37
  -2   2 -12   22.06    1.89
   2   2  12   23.49    1.42
   2   2  12   18.83    2.04
  -3  -2 -12   50.12    3.23
   3  -2  12   49.78    3.16
   3  -2  12   45.19    4.23
  -3   2 -12   52.06    3.17
   3   2  12   53.88    3.22
  -3   2 -12   53.33    3.76
   3   2  12   49.52    3.99
  -3   2 -12   56.95    3.40
  -4  -2 -12    9.92    0.82
  -4  -2 -12    9.40    1.35
   4  -2  12    7.11    1.88
   4   2  12    7.54    1.74
  -4   2 -12   10.60    0.76
  -4   2 -12    8.97    1.48
  -5  -2 -12  115.04    6.80
  -5  -2 -12  102.18    7.30
  -5   2 -12  112.76    7.43
  -7  -3  12    0.48    0.54
   7  -3 -12    0.58    0.87
  -7  -3  12    1.37    0.62
   7  -3 -12    0.85    1.45
  -7   3  12    1.29    0.56
  -7   3  12    1.59    0.64
   7   3 -12    1.05    0.71
   7   3 -12    2.75    1.64
  -6  -3  12   22.44    1.73
   6  -3 -12   17.58    2.09
   6  -3 -12   22.63    2.53
   6  -3 -12   27.28    2.76
  -6  -3  12   20.07    1.70
  -6   3  12   20.78    1.62
   6   3 -12   23.01    1.81
   5  -3 -12   94.89    6.06
  -5  -3  12   83.64    5.46
  -5  -3  12   79.00    5.47
   5   3 -12   91.46    5.48
  -5   3  12   87.08    5.40
  -5   3  12   86.48    5.44
   4  -3 -12    3.28    0.82
   4  -3 -12    2.45    1.00
   4  -3 -12    1.89    0.60
  -4  -3  12    1.54    0.30
  -4  -3  12    1.68    0.47
  -4  -3  12    1.62    0.41
  -4   3  12    1.71    0.45
   4   3 -12    1.79    0.34
   4   3 -12    2.67    0.92
  -4   3  12    1.82    0.34
   3  -3 -12  165.30   10.57
  -3  -3  12  155.31    9.95
  -3  -3  12  184.62    9.98
  -3  -3  12  155.47   10.03
  -3  -3  12  163.86   10.05
  -3  -3  12  161.44   10.11
  -3   3  12  172.06   10.02
   3   3 -12  170.39   10.00
  -3   3  12  160.09   10.11
  -2  -3  12   13.43    1.15
  -2  -3  12   13.33    0.85
  -2  -3  12   12.69    0.95
  -2  -3  12   13.11    1.06
  -2  -3  12   12.87    1.35
  -2  -3  12   11.92    1.05
   2  -3 -12   12.29    0.97
   2  -3 -12   12.75    1.61
  -2   3  12   13.42    0.94
  -2   3  12    9.44    1.64
  -2   3  12   13.73    1.14
   1  -3 -12   30.66    1.99
  -1  -3  12   34.53    2.38
  -1  -3  12   32.29    1.94
   1  -3 -12   32.92    2.53
   1  -3 -12   33.28    1.95
  -1  -3  12   29.91    2.09
  -1  -3  12   31.47    2.00
  -1  -3  12   31.44    2.48
  -1   3  12   31.69    2.02
   1   3 -12   31.22    2.12
  -1   3  12   30.89    2.56
  -1   3  12   30.00    2.21
  -1   3  12   29.72    2.37
   0  -3 -12   41.15    2.57
   0  -3  12   39.05    2.57
   0  -3  12   39.71    2.45
   0  -3  12   41.57    3.10
   0  -3  12   39.27    2.49
   0  -3  12   39.33    3.03
   0  -3 -12   39.33    2.51
   0  -3 -12   41.09    2.49
   0  -3 -12   39.14    2.87
   0   3  12   42.79    3.00
   0   3  12   38.53    2.86
   0   3  12   40.95    2.83
   0   3  12   40.40    2.76
   0   3 -12   39.92    2.74
  -1  -3 -12   49.15    3.41
  -1  -3 -12   53.09    3.24
   1  -3  12   48.72    3.21
   1  -3  12   51.70    3.14
   1  -3  12   49.86    3.65
   1  -3  12   49.73    3.87
  -1   3 -12   52.91    3.54
   1   3  12   53.88    3.67
  -1   3 -12   50.89    3.22
   1   3  12   53.37    3.68
   1   3  12   53.48    3.30
  -2  -3 -12    4.19    0.78
   2  -3  12    6.19    0.44
  -2  -3 -12    5.53    0.57
   2  -3  12    7.76    1.00
   2  -3  12    5.25    0.55
   2  -3  12    4.44    1.11
  -2   3 -12    5.62    0.62
  -2   3 -12    7.27    1.08
   2   3  12    5.32    1.28
   2   3  12    6.71    0.59
   2   3  12    6.23    0.68
   2   3  12    8.60    1.30
  -3  -3 -12  123.90    7.33
   3  -3  12  103.36    8.33
   3  -3  12  126.43    7.27
   3   3  12  122.20    8.07
  -3   3 -12  124.32    7.83
  -4  -3 -12    8.89    0.80
   4  -3  12    6.79    1.91
  -4   3 -12    7.69    1.30
   4   3  12    9.54    1.81
   5  -3  12   22.35    3.70
  -5  -3 -12   31.37    2.00
  -5   3 -12   28.21    2.78
   5   3  12   29.58    3.88
  -6  -4  12    2.44    0.56
   6  -4 -12    1.37    1.31
   6  -4 -12    0.91    0.84
  -6  -4  12    2.18    0.60
   6  -4 -12    3.76    1.32
   6   4 -12    3.98    1.43
   6   4 -12    3.53    0.67
  -6   4  12    2.15    0.47
  -6   4  12    3.12    0.80
  -5  -4  12    0.85    0.45
   5  -4 -12    3.21    1.00
   5  -4 -12    1.27    0.68
   5  -4 -12    1.82    0.99
  -5  -4  12    2.22    0.55
  -5   4  12    1.40    0.36
  -5   4  12    2.23    0.61
   5   4 -12    2.90    1.04
   4  -4 -12   27.65    2.47
   4  -4 -12   18.56    1.82
  -4  -4  12   21.37    1.71
  -4  -4  12   23.72    1.69
  -4   4  12   24.10    1.61
  -4   4  12   24.30    1.76
   4   4 -12   24.56    1.62
   3  -4 -12   33.33    2.53
  -3  -4  12   37.57    2.85
  -3  -4  12   38.12    2.53
  -3  -4  12   38.05    2.34
  -3  -4  12   37.15    2.47
   3  -4 -12   38.86    3.16
  -3  -4  12   36.45    2.33
   3   4 -12   38.79    2.41
  -3   4  12   37.94    2.58
  -3   4  12   38.21    2.41
  -2  -4  12    4.58    0.56
  -2  -4  12    4.95    0.98
  -2  -4  12    3.77    0.55
  -2  -4  12    3.10    0.51
   2  -4 -12    3.68    0.53
  -2  -4  12    4.02    0.35
   2  -4 -12    4.89    1.16
  -2   4  12    3.57    0.48
  -2   4  12    3.67    0.63
  -1  -4  12  103.23    5.99
  -1  -4  12   98.36    6.61
   1  -4 -12  102.72    6.09
  -1  -4  12   87.76    6.06
  -1  -4  12  104.62    6.29
  -1  -4  12   93.41    6.15
   1  -4 -12  101.30    6.05
  -1   4  12   99.03    6.31
  -1   4  12   99.50    6.09
  -1   4  12  105.87    6.27
   1   4 -12  101.91    6.19
   0  -4  12   26.57    2.39
   0  -4 -12   27.48    1.84
   0  -4  12   29.25    2.29
   0  -4 -12   28.55    2.31
   0  -4 -12   28.58    1.78
   0  -4  12   25.35    1.74
   0  -4 -12   28.05    1.79
   0  -4  12   26.21    1.85
   0   4  12   24.62    2.12
   0   4  12   28.94    2.30
   0   4 -12   26.50    2.04
   0   4  12   29.67    2.09
  -1  -4 -12   46.21    3.01
  -1  -4 -12   47.89    3.08
  -1  -4 -12   51.20    3.05
   1  -4  12   47.56    3.77
  -1  -4 -12   46.56    3.30
   1  -4  12   48.94    3.04
  -1   4 -12   48.28    3.06
   1   4  12   50.09    3.46
  -1   4 -12   50.23    3.39
   1   4  12   48.98    3.11
   1   4  12   43.45    3.39
  -2  -4 -12   68.32    4.44
  -2  -4 -12   72.20    4.31
  -2  -4 -12   61.73    4.42
   2  -4  12   64.83    5.23
   2  -4  12   72.25    4.29
  -2   4 -12   73.96    4.78
  -2   4 -12   67.65    4.36
   2   4  12   75.53    4.87
   3  -4  12    2.49    1.25
   3  -4  12    4.43    0.54
  -3  -4 -12    5.04    0.58
  -3   4 -12    3.79    1.14
   3   4  12    5.58    1.37
  -4  -4 -12   19.15    1.39
   4  -4  12   14.30    3.00
  -4   4 -12   18.44    2.22
   4   4  12   25.74    2.87
   6  -5 -12   56.25    4.38
  -6  -5  12   49.33    3.26
  -6  -5  12   40.80    3.24
   6  -5 -12   50.01    4.07
   6   5 -12   49.29    3.30
  -6   5  12   47.85    3.45
  -6   5  12   45.21    3.18
   5  -5 -12    4.35    1.12
   5  -5 -12    3.70    0.88
   5  -5 -12    3.81    1.18
  -5  -5  12    3.78    0.62
  -5  -5  12    3.01    0.65
   5   5 -12    3.89    0.67
  -5   5  12    3.61    0.77
  -5   5  12    3.04    0.49
   4  -5 -12    1.95    0.76
   4  -5 -12    1.96    1.11
   4  -5 -12    0.82    0.54
  -4  -5  12    1.46    0.62
  -4  -5  12    1.33    0.49
  -4  -5  12    0.64    0.40
  -4   5  12    1.00    0.34
   4   5 -12    1.67    0.99
   4   5 -12    1.22    0.32
  -4   5  12    1.99    0.59
  -3  -5  12    6.52    1.13
   3  -5 -12    6.19    0.84
  -3  -5  12    6.32    0.69
  -3  -5  12    6.64    0.85
   3  -5 -12    6.09    1.33
  -3   5  12    5.75    0.64
  -3   5  12    7.47    0.94
   2  -5 -12  108.27    6.74
  -2  -5  12  105.00    6.63
  -2  -5  12   99.32    6.64
  -2  -5  12  109.76    7.21
   2  -5 -12  110.81    7.33
  -2   5  12  111.34    6.68
  -2   5  12  121.96    6.82
   2   5 -12  106.53    6.65
  -2   5  12  109.49    6.87
  -1  -5  12    1.04    0.37
  -1  -5  12    0.95    0.58
   1  -5 -12    0.87    0.87
  -1  -5  12    0.68    0.34
   1  -5 -12    0.57    0.27
   1  -5 -12    0.86    0.23
  -1   5  12    0.40    0.53
  -1   5  12    0.69    0.22
   1   5 -12    0.85    0.47
  -1   5  12    0.93    0.38
   0  -5 -12  178.25   10.40
   0  -5  12  161.03   10.42
   0  -5 -12  178.31   10.40
   0  -5 -12  175.60   10.42
   0  -5  12  169.88   11.08
   0  -5 -12  156.22   10.99
   0   5  12  172.28   10.57
   0   5  12  176.37   10.68
   0   5 -12  174.58   10.62
  -1  -5 -12    9.90    0.82
   1  -5  12    9.39    0.86
  -1  -5 -12    9.62    1.41
  -1  -5 -12    9.18    0.79
  -1  -5 -12    9.69    0.92
   1  -5  12    9.03    1.60
  -1   5 -12   10.11    1.36
   1   5  12    9.28    1.40
  -2  -5 -12   43.04    3.00
   2  -5  12   40.52    3.77
  -2  -5 -12   43.93    2.75
   2  -5  12   44.31    2.74
  -2   5 -12   43.77    3.39
   2   5  12   37.81    3.26
   3  -5  12   14.86    2.67
  -3  -5 -12   16.32    1.25
   3  -5  12   18.17    1.25
  -3   5 -12   14.38    1.91
   3   5  12   19.47    2.22
   4  -5  12   11.05    2.56
  -4  -5 -12   13.66    1.16
   4   5  12   19.24    2.55
  -4   5 -12   18.32    2.32
   5  -6 -12   13.09    2.01
  -5  -6  12   11.57    1.25
   5  -6 -12   11.04    1.84
   5  -6 -12   10.38    1.48
  -5  -6  12    9.73    1.06
  -5   6  12   10.20    0.97
  -5   6  12    8.36    1.18
   5   6 -12    9.67    1.01
   4  -6 -12   69.84    5.16
  -4  -6  12   75.98    5.04
  -4  -6  12   83.34    4.92
  -4  -6  12   80.04    5.47
   4  -6 -12   85.07    5.78
  -4   6  12   78.48    4.92
   4   6 -12   80.82    4.98
  -4   6  12   78.16    5.13
   3  -6 -12    3.54    0.65
  -3  -6  12    3.12    0.60
  -3  -6  12    2.87    0.83
   3  -6 -12    5.48    1.28
  -3   6  12    2.29    0.41
  -3   6  12    2.44    0.66
   2  -6 -12   37.00    3.17
  -2  -6  12   36.12    2.93
   2  -6 -12   37.40    2.43
  -2  -6  12   31.90    2.41
  -2   6  12   35.90    2.32
  -2   6  12   33.98    2.58
  -1  -6  12   21.96    1.67
  -1  -6  12   22.37    2.26
   1  -6 -12   24.09    1.65
   1  -6 -12   20.88    2.43
   1   6 -12   22.50    1.80
  -1   6  12   24.29    1.58
  -1   6  12   22.89    1.92
   0  -6 -12    3.18    0.48
   0  -6  12    2.22    0.49
   0  -6  12    2.35    0.92
   0  -6 -12    2.86    0.50
   0  -6 -12    1.51    1.03
   0   6  12    3.51    0.83
   0   6 -12    2.39    0.79
   1  -6  12    3.54    1.17
  -1  -6 -12    3.32    0.92
  -1  -6 -12    2.88    0.45
   1  -6  12    2.83    0.49
  -1  -6 -12    3.01    0.53
   1   6  12    2.31    0.87
  -1   6 -12    2.27    0.96
  -2  -6 -12   56.23    3.52
   2  -6  12   57.59    3.54
  -2  -6 -12   54.36    3.85
  -2  -6 -12   52.90    3.54
   2  -6  12   48.50    4.60
   2   6  12   63.48    4.13
  -2   6 -12   54.30    4.17
  -3  -6 -12   16.35    1.25
   3  -6  12   12.58    2.83
   3  -6  12   16.67    1.31
   3   6  12   17.86    2.21
  -3   6 -12   13.90    2.00
   4  -7 -12    0.21    1.24
   4  -7 -12    0.08    0.57
  -4  -7  12    0.58    0.80
  -4  -7  12    1.12    0.56
  -4   7  12    0.63    0.75
  -4   7  12    0.75    0.35
   3  -7 -12   81.84    5.97
   3  -7 -12   81.23    5.37
  -3  -7  12   84.87    5.82
  -3  -7  12   75.93    5.27
  -3   7  12   85.93    5.16
  -3   7  12   86.69    5.43
   2  -7 -12    1.71    1.22
  -2  -7  12    1.06    0.49
   2  -7 -12    1.06    0.46
  -2  -7  12    1.71    0.84
  -2   7  12    0.68    0.36
  -2   7  12    0.69    0.70
  -1  -7  12    6.66    0.90
  -1  -7  12    6.63    1.56
   1  -7 -12    9.27    1.66
   1  -7 -12    7.48    0.87
  -1   7  12    9.67    1.21
  -1   7  12    7.60    0.73
   0  -7 -12    0.67    0.34
   0  -7 -12    1.60    1.15
   0  -7  12    1.36    0.50
   0  -7 -12    1.60    0.41
   0  -7  12    0.95    0.90
   0   7  12    0.48    0.72
  -1  -7 -12   30.62    2.20
  -1  -7 -12   33.97    2.25
   1  -7  12   32.66    3.33
   1  -7  12   33.14    2.28
  -1  -7 -12   33.44    2.90
   1   7  12   34.45    2.71
  -1   7 -12   30.06    3.01
   2  -7  12    2.49    1.46
  -2  -7 -12    1.52    0.44
  -2  -7 -12    1.47    0.42
   2  -7  12    1.86    0.55
  -2   7 -12    2.31    1.32
   2   7  12    0.72    1.02
  -1  -8  12   96.47    6.75
   1  -8 -12   85.29    6.60
  -1  -8  12   82.17    5.83
   1  -8 -12  104.43    6.19
  -1   8  12   92.78    6.24
  -7   0  13    0.80    0.56
  -7   0  13   -0.47    0.49
   7   0 -13   -0.88    1.18
   7   0 -13    0.11    0.78
  -6   0  13   -0.11    0.54
   6   0 -13    0.47    0.88
   6   0 -13    0.16    0.60
  -6   0  13    0.01    0.42
   5   0 -13    0.16    0.71
   5   0 -13    0.26    0.47
  -5   0  13   -0.31    0.50
  -5   0  13   -0.08    0.37
  -5   0  13    0.66    0.38
  -4   0  13    0.05    0.26
  -4   0  13   -0.20    0.43
   4   0 -13   -0.16    0.65
  -4   0  13   -0.07    0.26
   4   0 -13   -0.07    0.28
  -3   0  13    0.72    0.44
  -3   0  13    1.02    0.56
   3   0 -13   -0.20    0.58
  -3   0  13    0.66    0.30
  -2   0  13   -0.01    0.19
  -2   0  13    0.21    0.44
  -2   0  13    0.79    0.36
  -2   0  13   -0.85    0.55
  -2   0  13    0.42    0.38
  -1   0  13    0.23    0.43
  -1   0  13    0.92    0.67
  -1   0  13   -0.03    0.34
  -1   0  13    0.45    0.30
  -1   0  13    0.54    0.17
   0   0  13    0.24    0.58
   0   0  13    0.00    0.16
   0   0  13   -0.06    0.39
   0   0  13   -0.22    0.66
   0   0  13    0.38    0.17
   0   0  13    0.32    0.25
   1   0  13    0.10    0.15
  -1   0 -13    0.13    0.13
   1   0  13    0.05    0.51
   1   0  13    0.29    0.52
  -1   0 -13    0.21    0.44
   1   0  13   -0.16    0.20
   1   0  13    0.16    0.20
   2   0  13    0.04    0.18
  -2   0 -13    0.09    0.28
  -2   0 -13    0.39    0.20
  -2   0 -13    0.26    0.63
   2   0  13    0.13    0.70
  -3   0 -13   -0.01    0.23
  -3   0 -13    0.63    0.75
   3   0  13    0.68    0.95
  -3   0 -13   -0.35    0.49
   4   0  13    0.82    1.30
  -4   0 -13    0.30    0.26
  -4   0 -13    0.00    0.92
  -7  -1  13   10.66    1.30
   7  -1 -13   13.97    2.52
  -7  -1  13   12.64    1.32
   7  -1 -13   14.42    2.75
  -7   1  13   10.58    1.25
   7   1 -13    9.95    1.68
  -7   1  13   11.76    1.43
   7   1 -13   16.48    2.71
  -6  -1  13    3.48    0.64
  -6  -1  13    4.47    0.74
   6  -1 -13    6.99    1.59
   6  -1 -13    4.71    0.97
  -6   1  13    4.00    0.61
   6   1 -13    4.07    0.79
  -6   1  13    4.14    0.76
  -5  -1  13   18.62    1.52
   5  -1 -13   16.95    1.81
  -5  -1  13   21.40    1.65
   5   1 -13   20.27    1.60
  -5   1  13   19.89    1.46
  -5   1  13   20.76    1.50
  -5   1  13   23.35    1.73
  -4  -1  13   35.44    2.62
   4  -1 -13   33.23    2.65
  -4  -1  13   39.92    2.53
  -4   1  13   40.01    2.71
  -4   1  13   40.88    2.67
   4   1 -13   38.09    2.50
  -4   1  13   39.34    2.49
  -4   1  13   40.07    2.51
  -3  -1  13    4.18    0.55
  -3  -1  13    6.24    0.57
   3  -1 -13    4.21    0.59
  -3  -1  13    6.39    0.85
  -3  -1  13    4.86    0.73
   3  -1 -13    6.87    1.54
  -3   1  13    2.46    0.66
  -3   1  13    4.33    0.62
  -3   1  13    4.16    0.69
  -3   1  13    4.38    0.52
   3   1 -13    4.75    0.43
  -2  -1  13   50.14    3.19
  -2  -1  13   54.03    3.55
  -2  -1  13   52.15    3.59
  -2  -1  13   52.79    3.18
  -2  -1  13   48.06    3.31
  -2  -1  13   51.32    3.31
  -2   1  13   50.40    3.33
  -2   1  13   53.46    3.46
  -2   1  13   46.69    3.26
  -2   1  13   53.67    3.52
  -2   1  13   49.85    3.36
  -1  -1  13   19.95    1.24
  -1  -1  13   17.77    1.89
  -1  -1  13   20.38    1.61
  -1  -1  13   19.32    1.72
  -1  -1  13   18.22    1.39
  -1  -1  13   19.31    1.27
  -1   1  13   18.75    1.28
  -1   1  13   19.78    1.64
  -1   1  13   18.51    1.59
  -1   1  13   17.81    1.43
   0  -1  13   27.73    1.75
   0  -1  13   27.77    1.77
   0  -1  13   27.55    1.86
   0  -1  13   28.20    2.31
   0   1  13   28.37    1.90
   0   1 -13   27.15    2.00
   0   1  13   28.08    2.22
   0   1  13   28.47    1.79
   0   1  13   26.92    2.15
   1  -1  13   63.29    4.19
  -1  -1 -13   61.24    3.87
   1  -1  13   63.72    3.83
   1  -1  13   64.39    3.83
   1  -1  13   62.85    3.88
   1  -1  13   60.27    4.49
  -1  -1 -13   65.70    3.86
   1   1  13   61.72    4.39
   1   1  13   59.10    3.88
  -1   1 -13   64.37    3.82
  -1   1 -13   61.03    4.14
   1   1  13   61.39    4.03
   1   1  13   63.73    4.46
  -2  -1 -13    1.40    0.59
   2  -1  13    1.09    0.24
  -2  -1 -13    1.19    0.46
   2  -1  13    1.16    0.24
   2  -1  13    0.84    0.73
  -2  -1 -13    1.20    0.40
   2   1  13    0.92    0.23
  -2   1 -13    0.73    0.23
  -2   1 -13    1.16    0.30
   2   1  13    0.37    0.87
   2   1  13    1.14    0.82
  -2   1 -13    0.85    0.67
  -3  -1 -13   45.79    3.32
  -3  -1 -13   46.18    3.45
   3  -1  13   40.44    4.04
  -3  -1 -13   49.07    2.98
  -3   1 -13   48.07    2.94
   3   1  13   40.46    3.99
  -3   1 -13   51.84    3.57
  -3   1 -13   54.08    3.19
   4  -1  13    0.32    1.32
  -4  -1 -13    0.01    0.97
   4   1  13   -0.67    1.25
  -4   1 -13    0.61    0.95
   6  -2 -13    7.97    1.90
   6  -2 -13    5.00    1.09
  -6  -2  13    5.31    0.77
  -6  -2  13    3.93    0.69
  -6   2  13    3.82    0.76
  -6   2  13    3.85    0.63
   5  -2 -13    0.47    0.84
  -5  -2  13   -0.35    0.46
   5  -2 -13   -0.01    0.61
  -5  -2  13    1.03    0.40
   5   2 -13    0.30    0.79
   5   2 -13    0.39    0.33
  -5   2  13    1.29    0.55
  -5   2  13   -0.06    0.38
  -5   2  13    0.25    0.31
   4  -2 -13    6.62    1.07
  -4  -2  13    5.97    0.93
  -4  -2  13    8.36    0.82
  -4   2  13    7.65    1.01
  -4   2  13    7.35    0.82
  -4   2  13    7.47    0.73
   4   2 -13    7.94    0.68
   3  -2 -13    0.77    0.45
  -3  -2  13    0.35    0.25
   3  -2 -13    0.81    0.63
  -3  -2  13    0.19    0.38
  -3  -2  13    0.64    0.30
   3   2 -13    0.47    0.17
  -3   2  13    0.26    0.22
  -3   2  13    0.03    0.43
   3   2 -13    0.73    0.75
  -3   2  13    0.45    0.37
  -2  -2  13    3.59    0.84
  -2  -2  13    3.55    0.54
  -2  -2  13    3.29    0.45
  -2  -2  13    3.52    0.36
  -2  -2  13    4.04    0.57
  -2  -2  13    3.31    0.81
   2  -2 -13    2.56    0.44
  -2   2  13    3.79    0.60
  -2   2  13    2.44    0.55
  -2   2  13    3.42    0.42
  -2   2  13    2.90    0.67
  -1  -2  13    0.57    0.47
  -1  -2  13    0.66    0.16
  -1  -2  13    1.27    0.84
  -1  -2  13    0.95    0.23
  -1  -2  13    0.82    0.49
  -1  -2  13    0.43    0.32
  -1   2  13    0.70    0.40
  -1   2  13    0.55    0.68
  -1   2  13    0.39    0.37
  -1   2  13    0.65    0.24
  -1   2  13    0.29    0.46
   0  -2  13    5.27    1.01
   0  -2  13    4.48    0.58
   0  -2  13    4.88    0.42
   0  -2  13    4.75    0.45
   0   2  13    5.77    1.22
   0   2  13    5.41    0.67
   0   2  13    5.37    0.50
   0   2 -13    5.66    0.82
   0   2  13    5.09    0.86
   0   2  13    5.29    0.87
  -1  -2 -13    2.04    0.34
   1  -2  13    2.56    0.36
   1  -2  13    2.43    0.31
   1  -2  13    2.60    0.30
   1  -2  13    2.64    0.86
   1  -2  13    1.33    0.84
  -1  -2 -13    2.17    0.45
   1   2  13    2.54    0.76
   1   2  13    2.26    0.39
  -1   2 -13    2.81    0.68
   1   2  13    1.69    0.76
   1   2  13    2.68    0.76
  -1   2 -13    2.31    0.34
   1   2  13    2.92    0.55
  -2  -2 -13    7.02    1.02
   2  -2  13    7.38    0.66
  -2  -2 -13    8.78    0.73
   2  -2  13    9.52    0.62
   2  -2  13    7.04    1.61
   2   2  13    8.43    0.69
   2   2  13    9.95    1.58
   2   2  13    7.61    1.55
  -2   2 -13    9.03    0.74
  -2   2 -13    7.05    1.11
   3  -2  13    4.08    1.45
  -3  -2 -13    3.39    0.83
  -3  -2 -13    4.24    0.52
  -3   2 -13    4.54    0.49
  -3   2 -13    4.07    1.01
   3   2  13    2.51    1.19
   3   2  13    2.79    1.42
  -4  -2 -13    2.01    0.40
  -4  -2 -13    2.54    0.99
   4  -2  13    1.40    1.44
   4   2  13    0.74    1.25
  -4   2 -13   -0.33    1.02
   4   2  13    1.41    1.58
  -6  -3  13    2.35    0.62
   6  -3 -13    1.23    0.86
  -6  -3  13    2.36    0.61
   6  -3 -13    2.92    1.26
  -6   3  13    1.82    0.65
  -6   3  13    3.21    0.69
   6   3 -13    2.23    0.54
  -6   3  13    1.97    0.49
   6   3 -13    3.09    1.27
  -5  -3  13    2.43    0.55
  -5  -3  13    0.96    0.55
   5  -3 -13    2.21    0.84
   5  -3 -13    3.05    0.99
   5  -3 -13    3.09    1.32
  -5   3  13    2.25    0.70
   5   3 -13    1.88    0.42
   5   3 -13    2.57    1.12
  -5   3  13    2.33    0.45
  -4  -3  13   26.08    2.11
  -4  -3  13   28.01    2.16
   4  -3 -13   31.21    2.85
   4   3 -13   30.84    1.96
  -4   3  13   30.62    1.99
  -3  -3  13    0.18    0.21
  -3  -3  13    0.70    0.32
   3  -3 -13    0.04    0.40
   3  -3 -13    0.17    0.55
  -3  -3  13    1.26    0.40
  -3  -3  13    0.40    0.41
  -3  -3  13    0.22    0.25
   3  -3 -13    0.24    0.87
  -3   3  13    0.60    0.24
   3   3 -13    0.43    0.18
   3   3 -13    1.24    0.84
   2  -3 -13   62.21    4.50
  -2  -3  13   73.65    4.40
  -2  -3  13   79.96    4.71
  -2  -3  13   77.04    4.99
  -2  -3  13   72.13    4.58
   2  -3 -13   63.39    4.99
  -2  -3  13   66.76    4.56
  -2  -3  13   76.55    4.50
  -2   3  13   77.86    4.74
  -2   3  13   73.26    4.65
  -2   3  13   73.19    4.48
  -1  -3  13   15.97    1.67
   1  -3 -13   16.84    1.08
  -1  -3  13   15.99    1.25
  -1  -3  13   16.93    1.15
   1  -3 -13   16.85    2.49
   1  -3 -13   16.07    1.12
  -1  -3  13   16.91    1.07
  -1  -3  13   16.13    1.69
  -1   3  13   16.06    1.86
  -1   3  13   17.96    1.45
   1   3 -13   16.19    1.31
  -1   3  13   16.57    1.48
  -1   3  13   17.14    1.17
   0  -3 -13   55.65    3.30
   0  -3 -13   53.10    3.70
   0  -3  13   53.48    3.32
   0  -3  13   56.86    4.01
   0  -3  13   54.10    3.41
   0  -3 -13   47.64    3.34
   0   3  13   50.88    3.70
   0   3  13   57.29    3.91
   0   3  13   56.79    3.75
   0   3  13   53.78    3.37
   0   3 -13   55.01    3.58
   1  -3  13   14.53    1.82
   1  -3  13   14.34    0.99
  -1  -3 -13   15.50    1.11
   1  -3  13   15.48    1.10
   1   3  13   13.99    1.24
   1   3  13   14.57    1.68
   1   3  13   15.63    1.68
  -1   3 -13   15.04    1.08
   1   3  13   14.94    1.15
  -1   3 -13   15.27    1.53
   2  -3  13    1.69    0.33
  -2  -3 -13    1.41    0.52
  -2  -3 -13    1.83    0.36
   2  -3  13    1.13    0.88
  -2   3 -13    2.86    0.80
  -2   3 -13    2.04    0.39
   2   3  13    2.37    1.02
   2   3  13    2.14    0.36
   2   3  13    2.73    0.91
  -3  -3 -13    5.99    0.63
   3  -3  13    5.68    1.63
  -3   3 -13    6.18    1.23
   3   3  13    4.44    1.29
   3   3  13    4.01    1.36
   4  -3  13    7.67    2.07
  -4  -3 -13    9.83    0.89
   4   3  13   11.22    2.17
  -4   3 -13    9.95    1.65
  -6  -4  13    1.06    0.59
   6  -4 -13    1.08    1.26
  -6  -4  13    0.62    0.59
   6  -4 -13    1.30    0.87
   6  -4 -13   -0.56    1.07
   6   4 -13    0.28    0.40
  -6   4  13   -1.25    0.68
  -6   4  13    0.41    0.49
   6   4 -13    1.81    1.39
   5  -4 -13    4.05    1.32
  -5  -4  13    1.49    0.58
   5  -4 -13    1.35    0.77
  -5  -4  13    2.86    0.60
   5   4 -13    3.59    1.27
  -5   4  13    1.26    0.60
  -5   4  13    1.36    0.39
   5   4 -13    2.23    0.46
  -4  -4  13    1.53    0.50
   4  -4 -13    2.71    1.17
   4  -4 -13    1.66    0.57
  -4  -4  13    2.08    0.52
   4  -4 -13    3.02    1.10
  -4   4  13    1.61    0.35
   4   4 -13    2.28    0.44
  -4   4  13    2.11    0.59
   4   4 -13    4.23    1.20
  -3  -4  13    3.21    0.54
   3  -4 -13    3.70    1.14
  -3  -4  13    3.17    0.53
   3  -4 -13    3.19    0.59
  -3  -4  13    4.73    1.00
  -3   4  13    3.45    0.63
   3   4 -13    3.60    0.46
  -3   4  13    3.57    0.51
   2  -4 -13    1.43    0.24
   2  -4 -13    2.08    0.99
  -2  -4  13    2.11    0.39
   2  -4 -13    1.20    0.34
  -2  -4  13    1.62    0.63
  -2  -4  13    1.37    0.42
  -2  -4  13    1.63    0.46
  -2   4  13    1.48    0.43
  -2   4  13    1.39    0.55
  -2   4  13    1.68    0.35
   1  -4 -13   21.42    1.33
  -1  -4  13   19.54    1.48
  -1  -4  13   19.72    1.97
  -1  -4  13   18.17    1.38
   1  -4 -13   20.41    1.38
   1  -4 -13   17.81    2.07
   1   4 -13   18.83    1.54
  -1   4  13   20.68    1.40
  -1   4  13   21.24    1.72
  -1   4  13   23.19    1.65
   0  -4 -13    3.77    1.02
   0  -4 -13    3.02    0.45
   0  -4 -13    3.78    0.49
   0  -4 -13    3.83    0.41
   0  -4  13    3.06    0.47
   0  -4  13    3.36    0.95
   0   4  13    3.14    0.46
   0   4  13    3.54    0.88
   0   4  13    2.84    0.80
   0   4 -13    3.74    0.71
   1  -4  13    2.87    1.01
  -1  -4 -13    1.34    0.29
  -1  -4 -13    1.34    0.38
  -1  -4 -13    1.92    0.67
   1  -4  13    1.95    0.42
  -1  -4 -13    1.93    0.38
  -1   4 -13    1.49    0.69
   1   4  13    0.87    0.72
   1   4  13    2.18    0.78
  -1   4 -13    1.80    0.37
   2  -4  13   -0.29    0.79
  -2  -4 -13    1.22    0.35
  -2  -4 -13    1.50    0.57
  -2  -4 -13    0.87    0.49
   2  -4  13    1.18    0.32
  -2   4 -13    0.96    0.82
   2   4  13    1.42    0.96
   2   4  13    1.23    0.35
  -3  -4 -13    9.38    0.87
   3  -4  13    9.66    2.13
  -3   4 -13    8.42    1.35
   3   4  13   13.38    1.94
   4  -4  13    1.39    1.63
  -4   4 -13    3.61    1.22
   5  -5 -13   11.91    1.88
  -5  -5  13   10.77    1.24
  -5  -5  13   12.36    1.19
   5  -5 -13    9.20    1.44
   5   5 -13   11.92    1.05
  -5   5  13   11.35    1.37
  -5   5  13   11.83    1.03
   4  -5 -13   20.17    2.44
  -4  -5  13   15.63    1.71
  -4  -5  13   16.87    1.42
  -4  -5  13   16.31    1.32
   4  -5 -13   14.75    1.53
  -4   5  13   17.41    1.52
  -4   5  13   15.00    1.23
   4   5 -13   16.35    1.24
   3  -5 -13    2.86    0.58
   3  -5 -13    2.31    1.30
  -3  -5  13    2.82    0.81
  -3  -5  13    3.23    0.62
  -3  -5  13    2.88    0.49
  -3   5  13    3.09    0.73
  -3   5  13    2.86    0.44
  -2  -5  13    4.70    1.01
  -2  -5  13    4.90    0.73
   2  -5 -13    4.19    0.62
   2  -5 -13    8.01    1.51
   2  -5 -13    4.41    0.47
  -2   5  13    3.69    0.56
  -2   5  13    3.80    0.70
  -2   5  13    3.21    0.71
   1  -5 -13    8.15    0.70
  -1  -5  13    9.20    1.47
   1  -5 -13    8.30    1.44
   1  -5 -13    8.16    0.77
  -1  -5  13    8.71    0.90
   1   5 -13    8.28    1.00
  -1   5  13    9.52    1.15
  -1   5  13    8.42    0.75
   0  -5 -13    0.78    0.34
   0  -5 -13   -0.16    0.88
   0  -5  13    0.45    0.32
   0  -5 -13    0.66    0.24
   0  -5  13    0.60    0.75
   0  -5 -13    0.62    0.28
   0   5  13    0.73    0.65
   0   5 -13    0.36    0.57
  -1  -5 -13   37.27    2.47
  -1  -5 -13   45.72    3.08
   1  -5  13   38.64    2.52
   1  -5  13   35.23    3.39
  -1  -5 -13   38.75    2.52
  -1  -5 -13   36.30    3.11
   1   5  13   35.89    2.96
  -1   5 -13   38.23    2.93
   2  -5  13   -0.30    0.89
   2  -5  13    0.47    0.35
  -2  -5 -13    0.18    0.31
  -2   5 -13   -0.34    0.84
   2   5  13    0.40    0.89
   3  -5  13   24.60    3.38
  -3  -5 -13   27.27    1.86
   3   5  13   24.70    2.82
  -3   5 -13   28.49    2.72
  -4  -6  13   18.93    1.96
  -4  -6  13   14.19    1.50
   4  -6 -13   23.68    2.76
   4  -6 -13   15.07    1.63
  -4   6  13   13.12    1.62
  -4   6  13   17.59    1.30
   3  -6 -13    0.62    1.31
  -3  -6  13    0.76    0.70
  -3  -6  13   -0.16    0.51
   3  -6 -13    0.39    0.44
  -3   6  13    0.92    0.71
  -3   6  13    0.84    0.36
   2  -6 -13    5.14    0.78
  -2  -6  13    5.27    0.75
  -2  -6  13    5.63    1.22
   2  -6 -13    5.01    1.41
  -2   6  13    4.40    0.86
  -2   6  13    5.25    0.68
  -1  -6  13    0.95    0.44
   1  -6 -13    1.48    0.41
  -1  -6  13    1.38    0.82
   1  -6 -13    3.72    1.25
  -1   6  13    1.05    0.32
  -1   6  13    1.65    0.72
   0  -6 -13    6.84    1.28
   0  -6  13    4.40    1.25
   0  -6 -13    5.00    0.68
   0  -6 -13    4.56    0.61
   0  -6  13    4.82    0.66
   0   6  13    4.96    0.62
   0   6  13    6.12    1.08
  -1  -6 -13    6.26    1.19
   1  -6  13    6.84    1.59
  -1  -6 -13    5.38    0.68
  -1  -6 -13    6.52    0.74
   1  -6  13    6.92    0.83
  -1   6 -13    6.85    1.21
   1   6  13    5.54    1.10
  -2  -6 -13   10.80    0.98
   2  -6  13    9.39    2.33
   2  -6  13   12.23    1.06
  -2  -6 -13   10.48    0.99
   2   6  13   10.58    1.53
  -2   6 -13   10.73    1.66
  -3  -7  13    8.19    1.53
  -3  -7  13    5.45    0.89
   3  -7 -13    7.10    1.69
  -3   7  13    7.98    1.14
   2  -7 -13   11.26    1.19
  -2  -7  13   11.49    1.20
  -2  -7  13   12.43    1.90
   2  -7 -13   10.54    1.89
  -2   7  13   12.44    1.06
  -2   7  13   13.22    1.56
  -1  -7  13    4.25    1.17
   1  -7 -13    4.92    0.78
   1  -7 -13    4.73    1.49
  -1  -7  13    5.08    0.75
  -1   7  13    6.43    1.12
  -1   7  13    5.26    0.66
   0  -7 -13    8.18    0.88
   0  -7  13    8.29    1.92
   0  -7 -13    7.36    0.88
   0  -7  13    6.94    1.03
   0  -7 -13    8.64    1.60
   0   7  13   10.92    1.53
   0   7  13    9.46    0.84
  -6   0  14   52.83    3.57
   6   0 -14   49.70    3.79
  -6   0  14   60.13    3.71
  -5   0  14   14.07    1.42
   5   0 -14   12.78    1.28
  -5   0  14   14.35    1.20
  -4   0  14   13.53    1.07
  -4   0  14   12.25    1.32
  -4   0  14   12.49    1.01
   4   0 -14   11.89    1.01
  -3   0  14    5.52    0.71
  -3   0  14    6.41    0.65
  -3   0  14    6.33    0.91
   3   0 -14    5.76    0.48
  -2   0  14    6.73    1.06
  -2   0  14    7.03    0.84
  -2   0  14    6.89    1.02
  -2   0  14    6.71    0.90
  -1   0  14    1.34    0.58
  -1   0  14    1.97    0.48
  -1   0  14    1.97    0.30
  -1   0  14    2.44    0.65
   0   0  14   12.53    0.99
   0   0  14   11.35    0.86
   0   0  14   11.31    1.51
   0   0  14   11.78    1.41
   1   0  14    4.02    0.42
   1   0  14    3.48    0.95
  -1   0 -14    4.13    0.33
   1   0  14    3.72    0.52
   1   0  14    4.26    1.06
   2   0  14    2.75    0.41
   2   0  14    2.31    1.11
  -2   0 -14    1.83    0.77
  -2   0 -14    2.68    0.37
  -2   0 -14    2.51    0.50
  -3   0 -14    7.31    0.68
  -3   0 -14    5.81    1.17
   3   0  14    6.55    1.66
  -4   0 -14   44.48    3.65
  -4   0 -14   47.20    2.96
  -6  -1  14    7.17    1.00
   6  -1 -14    6.27    1.15
  -6  -1  14    7.93    1.13
   6   1 -14    6.98    1.07
  -6   1  14    8.54    0.97
  -6   1  14    5.56    0.95
   5  -1 -14   21.67    2.01
  -5  -1  14   25.90    1.80
  -5  -1  14   24.08    1.94
  -5   1  14   23.38    1.76
  -5   1  14   26.67    2.01
   5   1 -14   24.14    1.78
   4  -1 -14   75.01    5.14
  -4  -1  14   75.51    5.19
  -4  -1  14   85.35    5.09
   4   1 -14   87.04    5.02
  -4   1  14   75.65    5.23
  -4   1  14   82.13    5.06
  -4   1  14   86.65    5.08
  -3  -1  14    0.79    0.47
  -3  -1  14    0.79    0.33
  -3  -1  14    0.60    0.32
  -3  -1  14    0.56    0.47
   3  -1 -14    0.88    0.25
   3  -1 -14    1.92    0.88
  -3   1  14    1.39    0.42
  -3   1  14    1.07    0.48
   3   1 -14    1.40    0.79
   3   1 -14    0.88    0.19
  -3   1  14    0.74    0.29
  -2  -1  14   98.81    6.26
  -2  -1  14  103.29    6.59
  -2  -1  14  101.40    6.14
  -2  -1  14   97.17    6.51
  -2  -1  14   99.39    6.26
  -2   1  14  100.34    6.14
  -2   1  14  100.50    6.29
  -2   1  14  105.27    6.52
  -2   1  14   96.03    6.29
  -1  -1  14   69.88    4.29
  -1  -1  14   66.36    4.39
  -1  -1  14   73.53    4.82
  -1  -1  14   69.66    4.57
  -1   1  14   72.39    4.72
  -1   1  14   68.63    4.30
  -1   1  14   67.32    4.44
   0  -1  14    0.70    0.59
   0  -1  14    0.90    0.22
   0  -1  14    1.23    0.32
   0  -1  14    0.20    0.20
   0   1  14    0.83    0.34
   0   1  14    0.79    0.54
   0   1  14    1.12    0.69
   0   1  14    1.28    0.27
   1  -1  14   58.09    3.59
   1  -1  14   56.87    3.54
   1  -1  14   58.21    4.33
  -1   1 -14   57.48    3.90
  -1   1 -14   57.90    3.51
   1   1  14   58.77    3.57
   1   1  14   52.89    4.49
   1   1  14   62.03    4.22
   1   1  14   56.51    3.60
   2  -1  14   71.86    4.24
  -2  -1 -14   74.62    4.41
   2  -1  14   62.58    5.19
  -2  -1 -14   70.02    4.30
  -2   1 -14   69.76    4.71
   2   1  14   70.95    4.26
  -2   1 -14   70.90    4.29
   2   1  14   63.24    5.15
   2   1  14   67.79    5.07
  -3  -1 -14    1.63    0.89
  -3  -1 -14    1.20    0.33
   3  -1  14    0.26    1.17
  -3   1 -14   -0.34    0.91
   3   1  14    0.68    1.28
   3   1  14    1.51    1.31
  -3   1 -14    1.15    0.32
   4  -1  14   59.67    6.12
  -4  -1 -14   81.82    4.67
  -4  -1 -14   80.33    5.35
  -4   1 -14   76.02    5.33
  -6  -2  14    3.09    0.74
   6  -2 -14    2.46    0.84
  -6  -2  14    1.69    0.60
   6  -2 -14    4.41    1.46
  -6   2  14    3.03    0.78
   6   2 -14    1.89    0.56
  -6   2  14    2.74    0.60
   6   2 -14    4.21    1.45
  -5  -2  14    8.88    1.19
  -5  -2  14   10.13    1.08
   5  -2 -14   10.37    1.49
   5   2 -14   10.12    0.96
  -5   2  14   12.65    1.08
  -5   2  14   12.50    1.31
  -5   2  14   10.39    1.00
   4  -2 -14   13.52    1.57
  -4  -2  14   18.10    1.50
  -4  -2  14   17.41    1.36
  -4   2  14   17.36    1.40
   4   2 -14   18.03    1.23
  -4   2  14   18.50    1.31
  -4   2  14   18.78    1.63
  -3  -2  14   34.61    2.13
  -3  -2  14   31.89    2.52
  -3  -2  14   29.58    2.22
  -3  -2  14   30.35    2.06
  -3   2  14   28.56    2.30
  -3   2  14   31.91    2.09
   3   2 -14   32.18    2.00
  -3   2  14   32.58    2.22
  -2  -2  14   30.64    2.25
  -2  -2  14   34.29    2.14
  -2  -2  14   32.78    2.62
  -2  -2  14   33.84    2.10
  -2  -2  14   34.43    2.27
  -2   2  14   31.88    2.38
  -2   2  14   32.82    2.44
  -2   2  14   30.28    2.33
  -2   2  14   31.74    2.12
  -1  -2  14    1.55    0.65
  -1  -2  14    1.43    0.23
  -1  -2  14    1.58    0.40
  -1  -2  14    2.04    0.31
  -1  -2  14    2.21    0.64
  -1  -2  14    0.47    1.25
  -1   2  14    1.54    0.56
  -1   2  14    1.12    0.28
  -1   2  14    1.26    0.62
  -1   2  14    1.81    0.50
   0  -2  14   34.50    2.29
   0  -2  14   33.09    2.81
   0  -2  14   35.10    2.17
   0   2  14   35.83    2.69
   0   2  14   32.42    2.30
   0   2 -14   33.75    2.45
   0   2  14   35.09    2.66
   0   2  14   34.21    2.20
  -1  -2 -14   31.73    2.08
   1  -2  14   30.33    2.06
  -1  -2 -14   30.63    2.11
   1  -2  14   33.15    1.99
   1  -2  14   29.49    2.81
  -1   2 -14   32.95    2.01
   1   2  14   31.79    2.10
   1   2  14   30.09    2.65
   1   2  14   33.01    2.75
  -1   2 -14   30.53    2.40
  -2  -2 -14    8.80    1.19
   2  -2  14   11.38    0.85
   2  -2  14   11.82    0.84
   2  -2  14    9.40    1.89
  -2  -2 -14   11.36    0.91
   2   2  14    9.79    1.70
   2   2  14   11.92    0.93
   2   2  14   10.35    1.88
  -2   2 -14   11.02    0.89
  -2   2 -14   13.27    1.55
  -3  -2 -14   37.26    2.20
   3  -2  14   29.86    3.45
  -3   2 -14   32.82    2.83
   3   2  14   37.11    3.52
   3   2  14   27.30    3.32
  -5  -3  14   38.70    2.60
  -5  -3  14   33.72    2.63
   5  -3 -14   29.77    2.86
   5   3 -14   39.08    2.48
  -5   3  14   40.55    2.75
  -5   3  14   38.63    2.58
  -5   3  14   37.69    2.50
   4  -3 -14   22.35    2.61
  -4  -3  14   21.85    1.69
  -4  -3  14   21.84    1.79
   4   3 -14   23.27    1.56
  -4   3  14   22.22    1.92
  -4   3  14   23.32    1.75
  -4   3  14   23.73    1.63
  -3  -3  14    3.42    0.53
  -3  -3  14    3.55    0.63
   3  -3 -14    3.00    1.20
  -3  -3  14    3.18    0.81
   3  -3 -14    2.05    0.59
  -3   3  14    3.65    0.52
   3   3 -14    3.39    0.40
  -3   3  14    2.13    0.59
  -2  -3  14   12.54    1.19
  -2  -3  14   13.89    1.02
  -2  -3  14   11.95    1.14
   2  -3 -14   13.41    0.85
  -2  -3  14   13.54    1.56
   2  -3 -14   11.74    1.09
   2  -3 -14   14.22    1.85
  -2   3  14   13.22    1.29
  -2   3  14   13.06    0.99
  -2   3  14   12.03    1.26
  -1  -3  14  127.63    7.39
  -1  -3  14  113.84    7.46
   1  -3 -14  119.89    7.83
  -1  -3  14  123.15    8.01
  -1   3  14  132.92    7.75
  -1   3  14  119.64    7.40
   1   3 -14  122.17    7.50
  -1   3  14  111.03    7.54
  -1   3  14  122.77    7.66
   0  -3 -14    1.03    0.34
   0  -3  14    1.63    0.30
   0  -3  14    1.55    0.37
   0  -3  14    1.59    0.78
   0  -3 -14    1.42    0.21
   0   3 -14    0.74    0.53
   0   3  14    1.84    0.68
   0   3  14    0.36    0.68
   0   3  14    1.47    0.30
  -1  -3 -14  130.97    7.86
  -1  -3 -14  126.35    7.75
   1  -3  14  121.07    8.64
   1  -3  14  127.34    7.83
   1   3  14  126.31    7.86
   1   3  14  133.13    8.45
  -1   3 -14  125.91    7.81
   1   3  14  132.72    8.33
  -1   3 -14  134.93    8.15
  -2  -3 -14   23.94    1.60
   2  -3  14   24.96    1.55
   2  -3  14   24.14    2.68
  -2  -3 -14   18.40    1.78
   2   3  14   20.02    2.42
  -2   3 -14   22.10    2.19
   2   3  14   27.20    2.52
  -3  -3 -14   11.50    0.98
   3  -3  14   10.01    2.41
  -3   3 -14   12.50    1.69
   3   3  14    9.50    1.81
  -5  -4  14   21.84    1.94
   5  -4 -14   28.56    3.00
  -5  -4  14   25.52    1.93
   5   4 -14   24.72    1.78
  -5   4  14   24.37    1.81
  -5   4  14   26.79    2.00
  -4  -4  14   10.05    1.41
   4  -4 -14   10.29    1.89
  -4  -4  14   11.65    1.13
  -4  -4  14    9.78    1.16
   4   4 -14   11.31    0.91
  -4   4  14   11.87    1.26
  -4   4  14   10.97    0.96
  -3  -4  14   19.78    1.57
  -3  -4  14   20.48    2.01
   3  -4 -14   16.16    1.61
   3  -4 -14   23.55    2.59
  -3  -4  14   21.00    1.51
  -3   4  14   21.81    1.46
  -3   4  14   19.64    1.70
  -2  -4  14    8.38    1.23
   2  -4 -14    6.39    0.78
   2  -4 -14    7.46    0.58
  -2  -4  14    5.84    0.86
  -2  -4  14    7.43    1.28
   2  -4 -14    7.54    1.47
  -2  -4  14    9.05    0.81
  -2   4  14    7.33    0.73
  -2   4  14    8.22    1.07
  -2   4  14    7.81    0.96
   1  -4 -14    3.07    1.03
   1  -4 -14    1.67    0.33
  -1  -4  14    1.18    0.41
  -1  -4  14    1.18    0.71
   1  -4 -14    1.77    0.33
   1   4 -14    1.99    0.54
  -1   4  14    1.89    0.57
  -1   4  14    1.60    0.34
  -1   4  14    0.68    0.60
   0  -4  14   17.06    1.99
   0  -4 -14   15.42    1.17
   0  -4 -14   16.37    1.11
   0  -4  14   16.27    1.27
   0  -4 -14   15.08    1.77
   0   4 -14   16.46    1.68
   0   4  14   16.26    1.71
   0   4  14   15.36    1.17
   0   4  14   16.86    1.66
  -1  -4 -14    7.96    0.96
  -1  -4 -14   10.79    0.90
  -1  -4 -14    9.75    0.76
   1  -4  14    8.74    1.78
   1  -4  14   10.91    0.90
  -1  -4 -14    9.73    1.36
  -1   4 -14   10.19    1.44
   1   4  14   10.78    1.49
   2  -4  14    1.00    0.35
   2  -4  14   -0.66    0.95
  -2  -4 -14    0.84    0.36
  -2   4 -14    0.97    0.87
   2   4  14    0.89    1.04
  -3  -4 -14   32.27    2.06
   3  -4  14   24.05    3.42
   3   4  14   33.68    3.58
  -3   4 -14   28.42    2.84
   4  -5 -14   99.62    6.47
  -4  -5  14   85.58    6.08
  -4  -5  14   80.82    5.64
   4   5 -14   90.30    5.53
  -4   5  14   89.55    5.70
  -4   5  14   89.98    5.54
  -3  -5  14    0.30    0.48
  -3  -5  14   -0.17    0.67
   3  -5 -14    0.02    0.46
   3  -5 -14    0.49    1.15
  -3   5  14    0.69    0.33
  -3   5  14    0.35    0.64
  -2  -5  14   75.54    4.99
  -2  -5  14   80.19    5.59
   2  -5 -14   78.89    5.65
   2  -5 -14   83.50    5.03
   2  -5 -14   71.87    4.95
  -2   5  14   79.49    5.15
  -2   5  14   82.33    4.92
   1  -5 -14    4.31    0.59
  -1  -5  14    3.73    0.61
  -1  -5  14    4.09    1.08
   1  -5 -14    4.67    0.52
   1  -5 -14    3.07    1.20
   1   5 -14    3.96    0.85
  -1   5  14    3.96    0.59
  -1   5  14    4.20    0.87
   0  -5 -14    0.24    0.89
   0  -5 -14    1.25    0.30
   0  -5  14    1.32    0.90
   0  -5 -14    1.56    0.38
   0  -5  14    1.11    0.43
   0   5  14    0.75    0.75
   0   5 -14    1.28    0.74
   0   5  14    1.51    0.36
   1  -5  14    2.11    0.48
  -1  -5 -14    1.97    0.46
  -1  -5 -14    2.60    0.86
  -1  -5 -14    2.61    0.46
   1  -5  14    1.80    1.04
  -1   5 -14    1.82    0.82
   1   5  14    1.41    0.93
   2  -5  14   52.29    4.84
  -2  -5 -14   52.05    3.55
   2  -5  14   58.82    3.58
  -2  -5 -14   57.35    3.60
   2   5  14   58.99    4.29
  -2   5 -14   58.27    4.19
  -3  -6  14   16.52    1.98
   3  -6 -14   16.41    2.33
   3  -6 -14   15.20    1.48
  -3  -6  14   15.79    1.51
  -3   6  14   16.07    1.33
  -3   6  14   17.77    1.73
   2  -6 -14   46.63    4.03
   2  -6 -14   42.33    3.02
  -2  -6  14   46.56    3.73
  -2  -6  14   44.17    3.05
  -2   6  14   43.21    3.28
  -2   6  14   48.82    2.96
  -1  -6  14    3.15    0.62
   1  -6 -14    1.52    1.39
   1  -6 -14    3.69    0.65
  -1  -6  14    2.91    1.03
  -1   6  14    3.81    0.93
  -1   6  14    3.01    0.48
   0  -6  14   73.02    5.79
   0  -6 -14   81.88    5.51
   0  -6 -14   79.53    4.82
   0  -6  14   75.34    4.86
   0   6  14   72.00    5.17
   0   6 -14   78.03    5.48
   0   6  14   79.14    4.81
  -1  -6 -14   13.87    1.20
  -1  -6 -14   16.44    2.04
  -1  -6 -14   14.57    1.30
   1  -6  14   12.67    1.24
  -1   6 -14   12.37    1.92
   1   6  14   16.16    2.48
   5   0 -15   -0.03    0.97
  -5   0  15    0.70    0.45
   5   0 -15   -0.09    0.38
  -5   0  15   -0.17    0.60
  -4   0  15    0.32    0.54
  -4   0  15   -0.17    0.35
   4   0 -15   -0.31    0.21
   4   0 -15   -0.11    0.91
  -3   0  15   -0.08    0.48
  -3   0  15    0.04    0.50
  -3   0  15    0.11    0.39
  -3   0  15    0.31    0.31
   3   0 -15   -0.03    0.11
  -2   0  15    0.10    0.54
  -2   0  15    0.00    0.25
  -2   0  15    0.53    0.52
  -2   0  15    0.40    0.44
  -1   0  15    0.39    0.57
  -1   0  15   -0.52    0.58
  -1   0  15   -0.02    0.38
  -1   0  15    0.23    0.24
   0   0  15    0.39    0.61
   0   0  15    0.42    0.84
   1   0  15    0.71    0.78
   1   0  15    0.73    0.99
   1   0  15    0.05    0.27
   1   0  15    0.52    0.28
   2   0  15    0.12    1.03
   2   0  15    2.23    1.29
   2   0  15    0.31    0.25
  -2   0 -15   -0.04    0.25
  -2   0 -15    0.58    0.75
  -3   0 -15   -0.60    0.94
   3   0  15    0.56    1.39
  -3   0 -15    0.03    0.33
   5  -1 -15    7.83    1.12
  -5  -1  15    7.66    1.06
  -5  -1  15    7.75    0.98
  -5   1  15    7.10    0.92
   5   1 -15    8.24    0.82
  -5   1  15    7.39    1.09
  -4  -1  15    3.67    0.57
   4  -1 -15    5.95    1.31
   4  -1 -15    4.24    0.63
  -4  -1  15    3.41    0.75
  -4   1  15    3.90    0.56
  -4   1  15    3.61    0.59
   4   1 -15    3.62    0.45
  -4   1  15    3.20    0.78
   4   1 -15    4.86    1.22
  -3  -1  15   50.09    3.20
  -3  -1  15   50.50    3.63
  -3  -1  15   48.05    3.35
  -3  -1  15   50.75    3.19
  -3   1  15   49.01    3.26
  -3   1  15   50.50    3.56
   3   1 -15   52.06    3.05
  -3   1  15   44.58    3.37
  -3   1  15   50.36    3.18
  -2  -1  15    0.94    0.63
  -2  -1  15    2.12    0.54
  -2  -1  15    2.18    0.55
  -2   1  15    1.84    0.65
  -2   1  15    1.40    0.55
  -2   1  15    1.71    0.66
  -2   1  15    1.12    0.31
  -1  -1  15   67.09    4.34
  -1  -1  15   68.93    4.82
  -1  -1  15   68.90    4.58
  -1  -1  15   70.00    4.24
  -1   1  15   69.78    4.73
  -1   1  15   68.13    4.39
  -1   1  15   68.48    4.25
  -1   1  15   66.77    4.56
   0  -1  15   27.31    2.45
   0  -1  15   27.69    1.85
   0  -1  15   28.87    2.57
   0  -1  15   28.59    1.95
   0   1  15   30.17    2.44
   0   1  15   28.57    1.88
   0   1  15   28.56    2.49
   1  -1  15   14.91    2.05
   1  -1  15   16.93    1.22
   1  -1  15   17.39    1.17
  -1   1 -15   17.29    1.09
   1   1  15   16.16    1.17
   1   1  15   18.82    2.12
   1   1  15   19.16    2.13
  -1   1 -15   15.98    1.08
  -1   1 -15   16.42    1.62
   1   1  15   16.40    1.24
  -2  -1 -15   38.13    2.31
  -2  -1 -15   34.65    2.28
   2  -1  15   36.69    2.22
   2  -1  15   31.24    3.37
  -2   1 -15   34.14    2.82
   2   1  15   31.81    3.38
   2   1  15   34.12    3.32
  -3  -1 -15    3.17    0.48
   3  -1  15    2.74    1.55
   3   1  15    3.29    1.55
   3   1  15    2.18    1.66
  -3   1 -15    3.13    1.13
   5  -2 -15    0.66    1.01
  -5  -2  15    0.16    0.50
   5  -2 -15   -0.05    0.62
  -5  -2  15   -0.41    0.55
   5   2 -15   -0.41    1.00
  -5   2  15    0.27    0.42
   5   2 -15    0.75    0.30
  -5   2  15   -0.48    0.68
  -4  -2  15    0.14    0.42
  -4  -2  15    0.26    0.54
   4  -2 -15    0.83    0.90
   4  -2 -15    0.60    0.49
   4   2 -15   -0.14    0.87
  -4   2  15   -0.02    0.57
   4   2 -15    0.33    0.21
  -4   2  15    0.17    0.64
  -4   2  15   -0.01    0.33
   3  -2 -15   -0.03    0.29
  -3  -2  15    0.58    0.57
  -3  -2  15   -0.07    0.45
  -3  -2  15    0.35    0.37
   3  -2 -15    0.45    0.77
  -3   2  15    0.23    0.49
  -3   2  15    0.00    0.27
  -3   2  15    0.37    0.57
  -3   2  15    0.26    0.49
  -2  -2  15    3.16    0.85
  -2  -2  15    2.52    0.58
  -2  -2  15    3.88    0.70
  -2  -2  15    3.12    0.48
  -2   2  15    4.69    0.74
  -2   2  15    3.80    0.50
  -2   2  15    3.83    0.81
  -2   2  15    3.48    0.67
  -1  -2  15    1.10    0.73
  -1  -2  15    1.79    0.33
  -1  -2  15    0.85    0.40
  -1  -2  15    1.50    0.76
  -1   2  15    1.03    0.32
  -1   2  15    0.86    0.50
  -1   2  15    1.02    0.66
   0  -2  15    2.26    0.33
   0  -2  15    1.55    0.80
   0  -2  15    0.96    0.80
   0  -2  15    2.38    0.44
   0   2  15    1.88    0.82
   0   2  15    2.06    0.49
   0   2  15    2.20    0.36
   0   2  15    2.19    0.85
   0   2 -15    2.08    0.62
   1  -2  15    0.28    0.79
   1  -2  15    0.43    0.32
   1   2  15    0.47    0.86
   1   2  15    0.85    0.36
  -1   2 -15    1.33    0.71
   1   2  15    0.74    0.28
  -2  -2 -15    0.21    0.30
  -2  -2 -15    0.00    0.53
   2  -2  15   -0.01    1.00
   2   2  15   -0.02    1.16
  -2   2 -15   -0.45    0.85
   2   2  15   -0.54    0.99
   3  -2  15    0.84    1.40
  -3   2 -15    0.78    1.06
   3   2  15    1.36    1.62
   3   2  15    0.98    1.79
  -5  -3  15    5.60    1.02
  -5  -3  15    8.47    1.11
   5  -3 -15    7.72    1.54
  -5   3  15    8.27    0.94
  -5   3  15    7.71    1.15
   5   3 -15   11.87    2.28
   5   3 -15    7.55    1.05
  -5   3  15    9.62    1.33
  -4  -3  15    8.62    1.03
   4  -3 -15    8.56    1.36
  -4  -3  15    9.12    1.35
  -4  -3  15    8.88    1.17
  -4   3  15    9.30    1.15
  -4   3  15   10.11    0.94
   4   3 -15   10.30    0.79
  -4   3  15    9.63    1.32
  -3  -3  15   16.45    1.26
   3  -3 -15   11.90    1.38
  -3  -3  15   14.94    1.74
  -3  -3  15   13.85    1.34
  -3   3  15   15.25    1.53
  -3   3  15   15.17    1.18
  -3   3  15   16.49    1.44
  -3   3  15   16.85    1.54
  -2  -3  15    1.25    0.36
  -2  -3  15    1.06    0.47
  -2  -3  15    1.04    0.57
  -2  -3  15    1.13    0.65
  -2   3  15    0.56    0.30
  -2   3  15    1.62    0.63
  -2   3  15    0.77    0.56
  -2   3  15    0.96    0.69
  -1  -3  15    9.17    1.32
  -1  -3  15    9.07    0.94
  -1  -3  15    9.24    1.54
  -1   3  15    8.86    1.31
  -1   3  15    7.98    1.08
  -1   3  15   10.58    1.26
  -1   3  15    9.26    0.83
   0  -3  15   35.29    2.36
   0  -3  15   36.45    3.14
   0   3  15   34.56    2.29
   0   3  15   37.30    2.88
   0   3 -15   35.68    2.58
   0   3  15   33.59    2.42
   0   3  15   33.44    2.77
  -1  -3 -15    1.84    0.30
   1  -3  15    1.52    0.97
  -1  -3 -15    1.68    0.40
   1  -3  15    2.11    0.43
  -1  -3 -15    1.03    0.51
   1   3  15   -0.21    0.96
   1   3  15    1.29    0.44
   1   3  15    1.36    0.35
  -1   3 -15    1.30    0.76
   1   3  15    1.41    0.93
  -2  -3 -15   49.36    3.28
  -2  -3 -15   57.27    4.02
   2  -3  15   45.84    4.40
   2   3  15   54.46    4.16
  -2   3 -15   51.18    3.80
   4  -4 -15    2.39    1.04
   4  -4 -15    2.87    1.47
   4  -4 -15    1.64    0.75
  -4  -4  15    1.42    0.68
  -4  -4  15    1.78    0.59
  -4  -4  15    1.68    0.78
  -4   4  15    1.44    0.40
  -4   4  15    1.60    0.69
   4   4 -15    1.20    0.32
  -3  -4  15   10.62    1.57
   3  -4 -15    7.76    1.21
   3  -4 -15    9.87    1.84
  -3  -4  15    8.33    1.05
  -3   4  15    8.76    0.88
  -3   4  15   11.01    1.19
  -3   4  15   10.23    1.27
  -2  -4  15    0.69    0.70
   2  -4 -15    1.38    1.16
  -2  -4  15    0.42    0.47
   2  -4 -15    0.92    0.45
   2  -4 -15    0.78    0.20
  -2   4  15    0.78    0.31
  -2   4  15    0.05    0.64
  -2   4  15    0.75    0.55
   1  -4 -15    0.29    0.22
  -1  -4  15    0.37    0.75
  -1  -4  15    0.78    0.44
   1  -4 -15   -0.09    0.95
   1  -4 -15    0.24    0.27
  -1   4  15    0.22    0.33
   1   4 -15    0.39    0.52
  -1   4  15   -0.41    0.63
   0  -4 -15    0.77    0.35
   0  -4  15   -0.17    0.39
   0  -4 -15    0.26    0.22
   0  -4 -15   -0.46    0.82
   0  -4  15    1.17    0.97
   0   4  15    0.19    0.54
   0   4  15    0.45    0.28
   0   4  15    0.01    0.77
   0   4 -15    0.39    0.66
  -1  -4 -15    5.64    0.55
  -1  -4 -15    5.94    0.74
  -1  -4 -15    4.30    0.71
   1  -4  15    5.08    0.75
   1  -4  15    5.82    1.46
  -1   4 -15    4.39    1.03
   1   4  15    7.45    0.84
   1   4  15    5.76    1.29
   3  -5 -15   23.30    2.97
  -3  -5  15   23.16    1.89
   3  -5 -15   19.75    1.85
  -3  -5  15   25.56    2.51
  -3   5  15   25.08    2.07
  -3   5  15   24.57    1.70
   2  -5 -15    8.57    0.95
  -2  -5  15    7.67    1.07
   2  -5 -15    5.78    1.61
  -2  -5  15    8.36    1.64
  -2   5  15    9.26    1.20
  -2   5  15    9.46    0.90
  -1  -5  15   29.77    2.92
   1  -5 -15   28.56    2.02
   1  -5 -15   33.84    2.94
  -1  -5  15   29.28    2.15
  -1   5  15   30.99    2.48
  -1   5  15   30.00    2.03
   0  -5  15    5.63    1.51
   0  -5 -15    5.60    1.25
   0  -5  15    4.26    0.67
   0  -5 -15    4.72    0.60
   0   5  15    4.75    1.03
   0   5 -15    4.84    0.97
   0   5  15    6.04    0.67
  -4   0  16   17.26    1.61
   4   0 -16   17.31    1.16
  -4   0  16   16.70    1.39
  -3   0  16   26.99    1.95
  -3   0  16   26.81    1.88
  -3   0  16   27.63    2.35
  -3   0  16   25.71    2.08
  -2   0  16   28.75    2.28
  -2   0  16   31.13    2.11
  -2   0  16   33.61    2.69
  -2   0  16   33.28    2.38
  -1   0  16   23.84    2.17
  -1   0  16   25.25    1.69
  -1   0  16   24.05    1.84
  -1   0  16   25.80    2.35
   0   0  16    1.54    0.34
   0   0  16    2.26    0.95
   0   0  16    2.01    0.99
   0   0  16    1.83    0.47
   1   0  16   13.19    1.05
   1   0  16   11.76    2.04
   1   0  16   12.45    1.00
   1   0  16   14.86    2.21
   2   0  16   13.27    2.17
   2   0  16   11.54    2.56
  -2   0 -16   13.92    0.97
   2   0  16   14.63    1.05
   4  -1 -16    8.02    0.70
  -4  -1  16    7.91    1.33
  -4  -1  16    9.04    0.99
  -4  -1  16    6.31    0.99
  -4   1  16    8.60    0.93
   4   1 -16    8.22    0.66
  -4   1  16    7.76    1.14
  -3  -1  16   45.78    3.19
  -3  -1  16   47.82    3.03
  -3  -1  16   45.72    3.50
  -3   1  16   44.87    3.41
  -3   1  16   48.21    3.01
  -3   1  16   47.85    3.10
  -3   1  16   42.14    3.23
  -2  -1  16   25.76    1.97
  -2  -1  16   27.87    1.83
  -2  -1  16   25.34    2.05
  -2  -1  16   27.41    2.42
  -2   1  16   27.41    2.33
  -2   1  16   23.82    2.03
  -2   1  16   26.98    1.81
  -2   1  16   25.43    2.07
  -1  -1  16   13.96    1.78
  -1  -1  16   12.46    1.17
  -1  -1  16   13.82    1.58
  -1  -1  16   14.04    1.04
  -1   1  16   12.84    1.01
  -1   1  16   11.05    1.53
  -1   1  16   12.14    1.64
  -1   1  16   12.69    1.22
   0  -1  16   98.25    6.70
   0  -1  16   94.41    6.41
   0  -1  16   91.70    5.95
   0  -1  16  101.17    5.90
   0   1  16   96.80    6.36
   0   1  16  100.74    6.65
   0   1  16   90.06    5.96
   0   1  16   96.19    5.90
   1  -1  16    5.06    1.34
   1  -1  16    5.63    1.37
   1   1  16    4.91    0.61
   1   1  16    6.58    0.83
   1   1  16    4.32    1.34
   1   1  16    6.61    1.45
   2  -1  16   44.83    4.40
  -2  -1 -16   50.63    3.09
   2   1  16   46.76    4.40
  -2   1 -16   51.48    3.10
  -2   1 -16   50.77    3.69
   2   1  16   47.62    4.37
   2   1  16   53.07    3.16
  -4  -2  16    8.92    1.05
  -4  -2  16    9.76    1.21
   4  -2 -16    8.12    0.92
  -4  -2  16    8.91    1.39
  -4   2  16    8.95    1.15
  -4   2  16   10.18    1.38
  -4   2  16    8.59    0.96
   4   2 -16    8.95    0.72
  -3  -2  16    8.43    1.12
  -3  -2  16    8.39    0.93
  -3  -2  16    6.71    1.36
  -3   2  16    6.78    1.03
  -3   2  16    9.02    1.13
  -3   2  16    8.31    1.28
  -3   2  16    7.55    0.82
  -2  -2  16    1.94    0.83
  -2  -2  16    0.87    0.79
  -2  -2  16    1.02    0.51
  -2   2  16    0.74    0.61
  -2   2  16    1.45    0.73
  -2   2  16    1.39    0.38
  -2   2  16    0.89    0.64
  -1  -2  16    7.71    1.15
  -1  -2  16    6.60    1.52
  -1  -2  16    9.41    0.79
  -1  -2  16    7.87    0.95
  -1   2  16    8.41    1.20
  -1   2  16    7.35    0.76
  -1   2  16    8.85    1.37
  -1   2  16    7.43    0.93
   0  -2  16    3.49    1.04
   0  -2  16    1.20    0.92
   0  -2  16    3.19    0.53
   0   2  16    2.56    0.56
   0   2  16    3.26    0.98
   0   2  16    2.31    0.43
   0   2  16    2.22    0.96
   1  -2  16   14.46    1.14
   1  -2  16   13.01    2.19
  -1   2 -16   13.54    1.61
   1   2  16   16.71    2.23
   1   2  16   14.32    1.09
   1   2  16   13.51    2.06
  -3  -3  16   76.58    5.31
  -3  -3  16   85.02    5.83
  -3   3  16   77.90    5.44
  -3   3  16   90.25    5.58
  -3   3  16   83.71    5.36
  -3   3  16   83.72    5.19
  -2  -3  16    2.67    0.61
  -2  -3  16    3.21    1.01
  -2   3  16    4.47    0.85
  -2   3  16    3.77    0.83
  -2   3  16    4.75    0.94
  -2   3  16    3.43    0.49
  -1  -3  16   36.85    3.15
  -1  -3  16   33.49    2.86
  -1  -3  16   32.26    2.40
  -1   3  16   38.68    2.90
  -1   3  16   35.47    2.33
  -1   3  16   33.69    2.52
  -1   3  16   33.62    2.71
   0  -3  16   19.80    2.37
   0  -3  16   16.82    1.40
   0   3  16   18.11    1.48
   0   3  16   17.15    1.98
   0   3 -16   14.61    1.66
   0   3  16   18.53    1.32
   1  -3  16   10.27    0.92
   1  -3  16    9.75    2.10
  -1   3 -16   11.28    1.59
   1   3  16    7.53    1.44
   1   3  16    8.78    0.87
  -2  -4  16   21.07    1.69
   2  -4 -16   22.80    2.72
  -2  -4  16   20.23    2.29
  -2   4  16   21.54    1.53
  -2   4  16   17.01    1.87
  -2   4  16   22.21    1.90
  -1  -4  16   31.06    2.94
  -1  -4  16   28.51    2.10
  -1   4  16   28.58    2.26
  -1   4  16   29.70    2.01
  -1   4  16   27.64    2.46
   0  -4  16   -0.05    1.08
   0   4 -16    2.19    0.84
   0   4  16    1.54    0.91
  -3   0  17    0.90    0.68
  -3   0  17   -0.27    0.43
  -3   0  17    0.02    0.72
  -2   0  17    0.53    0.62
  -2   0  17   -0.11    0.73
  -2   0  17    0.09    0.65
  -2   0  17    0.37    0.40
  -1   0  17    0.37    0.81
  -1   0  17    0.32    0.50
  -1   0  17   -0.85    0.78
  -1   0  17    0.18    0.34
   0   0  17    0.10    0.44
   0   0  17    1.56    1.02
   0   0  17    0.17    0.33
   0   0  17    0.78    1.02
  -3  -1  17    1.31    0.89
  -3  -1  17    2.41    0.54
  -3  -1  17    1.81    0.70
  -3   1  17    2.26    0.50
  -3   1  17    1.47    0.74
  -3   1  17    2.27    0.85
  -2  -1  17   18.63    1.43
  -2  -1  17   18.80    2.12
  -2  -1  17   16.64    1.56
  -2   1  17   18.48    1.40
  -2   1  17   19.84    1.78
  -2   1  17   19.44    2.05
  -2   1  17   18.23    1.62
  -1  -1  17    7.92    1.04
  -1  -1  17    7.40    1.18
  -1  -1  17    9.00    1.65
  -1  -1  17    8.83    0.85
  -1   1  17    8.05    0.84
  -1   1  17    8.20    1.60
  -1   1  17    8.84    1.31
  -1   1  17    7.20    1.05
   0  -1  17   12.41    2.14
   0  -1  17   12.73    1.17
   0  -1  17   13.26    1.77
   0   1  17   12.86    2.05
   0   1  17   12.07    1.18
   0   1  17   13.69    2.02
   0   1  17   13.33    1.05
  -2  -2  17    2.08    0.96
  -2  -2  17    1.87    0.61
  -2   2  17    0.76    0.73
  -2   2  17    1.68    0.43
  -2   2  17    2.30    0.88
  -2   2  17    2.10    0.74
  -1  -2  17    0.74    0.90
  -1  -2  17    0.65    0.86
  -1  -2  17    0.33    0.46
  -1   2  17    0.08    0.77
  -1   2  17    0.37    0.86
  -1   2  17   -0.25    0.60
   0   0   0    0.00    0.00
;
_shelx_hkl_checksum              13498
loop_
_space_group_symop_operation_xyz
'x, y, z'
'-x, y+1/2, -z+1/2'
'-x, -y, -z'
'x, -y-1/2, z-1/2'
loop_
_atom_site_label
_atom_site_type_symbol
_atom_site_fract_x
_atom_site_fract_y
_atom_site_fract_z
_atom_site_U_iso_or_equiv
_atom_site_adp_type
_atom_site_occupancy
_atom_site_site_symmetry_order
_atom_site_calc_flag
_atom_site_refinement_flags_occupancy
Th1 Th 1.17486(6) -0.24897(5) 1.14172(3) 0.01878(16) Uani 1 1 d .
I1 I 1.32868(11) 0.04076(10) 1.35720(6) 0.0224(3) Uani 0.795(12) 1 d P
Se1 Se 1.32868(11) 0.04076(10) 1.35720(6) 0.0224(3) Uani 0.205(12) 1 d P
I2 I 0.72252(11) 0.01482(10) 1.10734(6) 0.0217(3) Uani 0.744(12) 1 d P
Se2 Se 0.72252(11) 0.01482(10) 1.10734(6) 0.0217(3) Uani 0.256(12) 1 d P
I3 I 0.82350(16) -0.29426(13) 0.88899(8) 0.0333(4) Uani 0.460(14) 1 d P
Se3 Se 0.82350(16) -0.29426(13) 0.88899(8) 0.0333(4) Uani 0.540(14) 1 d P
O1 O 1.3383(12) -0.0361(9) 1.2334(6) 0.0238(17) Uani 1 1 d .
O2 O 1.3220(12) -0.0895(11) 1.0191(6) 0.0297(19) Uani 1 1 d .
O3 O 1.2391(18) -0.3046(11) 1.3211(7) 0.043(3) Uani 1 1 d .
O4 O 1.0225(13) -0.3285(11) 0.9841(6) 0.033(2) Uani 1 1 d .
O5 O 0.8633(15) -0.3233(15) 1.1765(8) 0.048(3) Uani 1 1 d .
O6 O 0.9680(12) -0.0307(11) 1.1089(7) 0.032(2) Uani 1 1 d .
O7 O 1.4963(16) -0.3176(15) 1.1468(10) 0.061(4) Uani 1 1 d .
O8 O 1.175(3) -0.5323(13) 1.1769(11) 0.078(5) Uani 1 1 d .
O9 O 0.641(2) -0.334(3) 0.9619(14) 0.133(10) Uani 1 1 d .
loop_
_atom_site_aniso_label
_atom_site_aniso_U_11
_atom_site_aniso_U_22
_atom_site_aniso_U_33
_atom_site_aniso_U_23
_atom_site_aniso_U_13
_atom_site_aniso_U_12
Th1 0.0163(2) 0.0166(2) 0.0220(2) 0.00020(15) -0.00133(15) -0.00148(14)
I1 0.0199(4) 0.0255(5) 0.0212(4) -0.0062(3) 0.0016(3) -0.0046(3)
Se1 0.0199(4) 0.0255(5) 0.0212(4) -0.0062(3) 0.0016(3) -0.0046(3)
I2 0.0208(5) 0.0267(5) 0.0176(4) 0.0061(3) 0.0032(3) 0.0062(3)
Se2 0.0208(5) 0.0267(5) 0.0176(4) 0.0061(3) 0.0032(3) 0.0062(3)
I3 0.0374(7) 0.0358(7) 0.0254(6) -0.0071(4) 0.0010(4) -0.0042(5)
Se3 0.0374(7) 0.0358(7) 0.0254(6) -0.0071(4) 0.0010(4) -0.0042(5)
O1 0.028(4) 0.023(4) 0.019(4) -0.006(3) 0.000(3) -0.007(3)
O2 0.026(4) 0.044(5) 0.018(4) 0.011(4) -0.001(3) 0.002(4)
O3 0.081(8) 0.029(5) 0.018(4) 0.005(4) 0.008(5) -0.018(5)
O4 0.036(5) 0.036(5) 0.022(4) -0.005(4) -0.008(4) -0.008(4)
O5 0.039(6) 0.069(8) 0.039(5) 0.004(5) 0.010(5) -0.025(6)
O6 0.021(4) 0.034(5) 0.040(5) 0.006(4) 0.000(4) 0.012(4)
O7 0.041(6) 0.063(7) 0.091(9) 0.056(7) 0.043(6) 0.037(6)
O8 0.126(13) 0.023(5) 0.069(8) -0.020(6) -0.034(8) 0.005(7)
O9 0.056(9) 0.27(3) 0.079(11) 0.044(16) 0.039(9) 0.013(15)
loop_
_atom_type_symbol
_atom_type_description
_atom_type_scat_dispersion_real
_atom_type_scat_dispersion_imag
_atom_type_scat_source
I I -0.4742 1.8119 'International Tables Vol C Tables 4.2.6.8 and 6.1.1.4'
O O 0.0106 0.0060 'International Tables Vol C Tables 4.2.6.8 and 6.1.1.4'
Th Th -7.2400 8.8979 'International Tables Vol C Tables 4.2.6.8 and 6.1.1.4'
Se Se -0.0929 2.2259 'International Tables Vol C Tables 4.2.6.8 and 6.1.1.4'
loop_
_geom_angle_atom_site_label_1
_geom_angle_atom_site_label_2
_geom_angle_atom_site_label_3
_geom_angle
_geom_angle_site_symmetry_1
_geom_angle_site_symmetry_3
O4 Th1 O7 105.4(5) . .
O4 Th1 O6 83.0(3) . .
O7 Th1 O6 140.5(4) . .
O4 Th1 O1 144.1(3) . .
O7 Th1 O1 77.7(4) . .
O6 Th1 O1 74.1(3) . .
O4 Th1 O5 77.6(4) . .
O7 Th1 O5 147.4(4) . .
O6 Th1 O5 71.8(4) . .
O1 Th1 O5 119.2(3) . .
O4 Th1 O3 146.3(3) . .
O7 Th1 O3 83.7(4) . .
O6 Th1 O3 110.7(4) . .
O1 Th1 O3 69.2(3) . .
O5 Th1 O3 78.1(4) . .
O4 Th1 O8 82.4(4) . .
O7 Th1 O8 77.1(5) . .
O6 Th1 O8 142.2(5) . .
O1 Th1 O8 131.9(4) . .
O5 Th1 O8 71.1(5) . .
O3 Th1 O8 67.9(4) . .
O4 Th1 O2 75.5(3) . .
O7 Th1 O2 69.6(3) . .
O6 Th1 O2 75.8(3) . .
O1 Th1 O2 72.3(3) . .
O5 Th1 O2 139.8(3) . .
O3 Th1 O2 136.8(3) . .
O8 Th1 O2 132.8(5) . .
O7 I1 O1 95.7(4) 2_857 .
O7 I1 O5 93.0(6) 2_857 2_757
O1 I1 O5 98.4(4) . 2_757
O2 I2 O6 96.8(4) 3_757 .
O2 I2 O3 100.3(4) 3_757 2_757
O6 I2 O3 96.6(5) . 2_757
O8 I3 O4 98.8(6) 3_747 .
O8 I3 O9 100.1(12) 3_747 .
O4 I3 O9 98.3(7) . .
I1 O1 Th1 131.9(4) . .
Se2 O2 I2 0.0 3_757 3_757
Se2 O2 Th1 142.1(5) 3_757 .
I2 O2 Th1 142.1(5) 3_757 .
Se2 O3 I2 0.0 2_747 2_747
Se2 O3 Th1 132.7(5) 2_747 .
I2 O3 Th1 132.7(5) 2_747 .
I3 O4 Th1 144.1(5) . .
Se1 O5 I1 0.0 2_747 2_747
Se1 O5 Th1 143.6(6) 2_747 .
I1 O5 Th1 143.6(6) 2_747 .
I2 O6 Th1 138.5(5) . .
Se1 O7 I1 0.0 2_847 2_847
Se1 O7 Th1 150.1(8) 2_847 .
I1 O7 Th1 150.1(8) 2_847 .
Se3 O8 I3 0.0 3_747 3_747
Se3 O8 Th1 138.5(8) 3_747 .
I3 O8 Th1 138.5(8) 3_747 .
loop_
_geom_bond_atom_site_label_1
_geom_bond_atom_site_label_2
_geom_bond_distance
_geom_bond_site_symmetry_2
Th1 O4 2.314(8) .
Th1 O7 2.347(10) .
Th1 O6 2.383(8) .
Th1 O1 2.400(8) .
Th1 O5 2.416(10) .
Th1 O3 2.414(9) .
Th1 O8 2.484(12) .
Th1 O2 2.488(8) .
I1 O7 1.748(10) 2_857
I1 O1 1.791(8) .
I1 O5 1.799(10) 2_757
I2 O2 1.788(8) 3_757
I2 O6 1.783(9) .
I2 O3 1.823(10) 2_757
I3 O8 1.734(11) 3_747
I3 O4 1.770(9) .
I3 O9 1.774(15) .
O2 Se2 1.788(8) 3_757
O2 I2 1.788(8) 3_757
O3 Se2 1.823(10) 2_747
O3 I2 1.823(10) 2_747
O5 Se1 1.799(10) 2_747
O5 I1 1.799(10) 2_747
O7 Se1 1.748(10) 2_847
O7 I1 1.748(10) 2_847
O8 Se3 1.734(11) 3_747
O8 I3 1.734(11) 3_747
