#------------------------------------------------------------------------------
#$Date: 2017-02-04 00:26:26 +0200 (Sat, 04 Feb 2017) $
#$Revision: 191254 $
#$URL: file:///home/coder/svn-repositories/cod/cif/4/34/51/4345106.cif $
#------------------------------------------------------------------------------
#
# This file is available in the Crystallography Open Database (COD),
# http://www.crystallography.net/
#
# All data on this site have been placed in the public domain by the
# contributors.
#
data_4345106
loop_
_publ_author_name
'Mazzuca, Lidia'
'Ca\~nadillas-Delgado, Laura'
'Rodr\'iguez-Velamaz\'an, J Alberto'
'Fabelo, Oscar'
'Scarrozza, Marco'
'Stroppa, Alessandro'
'Picozzi, Silvia'
'Zhao, Jiong-Peng'
'Bu, Xian-He'
'Rodr\'iguez-Carvajal, Juan'
_publ_section_title
;
 Magnetic Structures of Heterometallic M(II)-M(III) Formate Compounds.
;
_journal_issue                   1
_journal_name_full               'Inorganic chemistry'
_journal_page_first              197
_journal_page_last               207
_journal_paper_doi               10.1021/acs.inorgchem.6b01866
_journal_volume                  56
_journal_year                    2017
_chemical_formula_sum            'C8 H14 Fe Mn N O12'
_chemical_formula_weight         426.98
_chemical_name_systematic
;
 ?
;
_space_group_crystal_system      trigonal
_space_group_IT_number           163
_space_group_name_Hall           '-P 3 2c'
_space_group_name_H-M_alt        'P -3 1 c'
_symmetry_space_group_name_Hall  '-P 3 2c'
_symmetry_space_group_name_H-M   'P -3 1 c'
_atom_sites_solution_hydrogens   geom
_audit_creation_method           SHELXL-2014
_cell_angle_alpha                90
_cell_angle_beta                 90
_cell_angle_gamma                120
_cell_formula_units_Z            2
_cell_length_a                   8.2726(2)
_cell_length_b                   8.2726(2)
_cell_length_c                   13.8886(3)
_cell_measurement_reflns_used    5730
_cell_measurement_temperature    85(2)
_cell_measurement_theta_max      32.2390
_cell_measurement_theta_min      2.7110
_cell_volume                     823.14(3)
_computing_cell_refinement       'CrysAlis PRO software program'
_computing_data_collection       'CrysAlis PRO software program'
_computing_data_reduction        'CrysAlis PRO software program'
_computing_molecular_graphics    'Mercury (McRae, 2006)'
_computing_publication_material  'WINGX (Farrugia, 1999)'
_computing_structure_refinement  'SHELXL-2014 (Sheldrick, 2014)'
_computing_structure_solution    'SHELXL-2014 (Sheldrick, 2014)'
_diffrn_ambient_temperature      85(2)
_diffrn_measured_fraction_theta_full 0.916
_diffrn_measured_fraction_theta_max 0.932
_diffrn_measurement_device_type  'CRISTAL beamline, SOLEIL synchrotron'
_diffrn_radiation_type           synchrotron
_diffrn_radiation_wavelength     0.66951
_diffrn_reflns_av_R_equivalents  0.0696
_diffrn_reflns_av_unetI/netI     0.0273
_diffrn_reflns_Laue_measured_fraction_full 0.916
_diffrn_reflns_Laue_measured_fraction_max 0.932
_diffrn_reflns_limit_h_max       12
_diffrn_reflns_limit_h_min       -11
_diffrn_reflns_limit_k_max       11
_diffrn_reflns_limit_k_min       -12
_diffrn_reflns_limit_l_max       22
_diffrn_reflns_limit_l_min       -22
_diffrn_reflns_number            10305
_diffrn_reflns_point_group_measured_fraction_full 0.916
_diffrn_reflns_point_group_measured_fraction_max 0.932
_diffrn_reflns_theta_full        23.685
_diffrn_reflns_theta_max         32.615
_diffrn_reflns_theta_min         2.763
_diffrn_source                   synchrotron
_exptl_absorpt_coefficient_mu    1.437
_exptl_absorpt_correction_T_max  1.00000
_exptl_absorpt_correction_T_min  0.89744
_exptl_absorpt_correction_type   multi-scan
_exptl_absorpt_process_details
;
CrysAlisPro, Agilent Technologies,
Version 1.171.37.33 (release 27-03-2014 CrysAlis171 .NET)
(compiled Mar 27 2014,17:12:48)
Empirical absorption correction using spherical harmonics,
 implemented in SCALE3 ABSPACK scaling algorithm.
;
_exptl_crystal_colour            dark-yellow
_exptl_crystal_density_diffrn    1.723
_exptl_crystal_description       prism
_exptl_crystal_F_000             432
_exptl_crystal_size_max          0.08
_exptl_crystal_size_mid          0.07
_exptl_crystal_size_min          0.06
_refine_diff_density_max         0.662
_refine_diff_density_min         -0.570
_refine_diff_density_rms         0.085
_refine_ls_extinction_method     none
_refine_ls_goodness_of_fit_ref   1.184
_refine_ls_hydrogen_treatment    refU
_refine_ls_matrix_type           full
_refine_ls_number_parameters     41
_refine_ls_number_reflns         1124
_refine_ls_number_restraints     0
_refine_ls_restrained_S_all      1.184
_refine_ls_R_factor_all          0.0439
_refine_ls_R_factor_gt           0.0397
_refine_ls_shift/su_max          0.000
_refine_ls_shift/su_mean         0.000
_refine_ls_structure_factor_coef Fsqd
_refine_ls_weighting_details
'w=1/[\s^2^(Fo^2^)+(0.0602P)^2^+0.6001P] where P=(Fo^2^+2Fc^2^)/3'
_refine_ls_weighting_scheme      calc
_refine_ls_wR_factor_gt          0.1143
_refine_ls_wR_factor_ref         0.1275
_reflns_Friedel_coverage         0.000
_reflns_number_gt                1037
_reflns_number_total             1124
_reflns_threshold_expression     'I > 2\s(I)'
_cod_data_source_file            FeMn_85K.cif
_cod_data_source_block           shelx
_cod_original_cell_volume        823.14(4)
_cod_database_code               4345106
_shelx_space_group_comment
;
The symmetry employed for this shelxl refinement is uniquely defined
by the following loop, which should always be used as a source of
symmetry information in preference to the above space-group names.
They are only intended as comments.
;
_shelxl_version_number           2014-3
_shelx_res_file
;
TITL FeMn_warm5 in P-31c
CELL  0.66951   8.2726   8.2726  13.8886   90.000   90.000  120.000
ZERR     2.00   0.0002   0.0002   0.0003    0.000    0.000    0.000
LATT   1
SYMM  - Y,   X - Y,   Z
SYMM  - X + Y, - X,   Z
SYMM  - Y, - X, 1/2 - Z
SYMM  - X + Y,   Y, 1/2 - Z
SYMM    X,   X - Y, 1/2 - Z
SFAC  C        2.31000 20.84392  1.02000 10.20751   1.58860   0.56870 =
         0.86500  51.65125   0.21560   0.003   0.001    10.064   0.770  12.011
SFAC  H        0.49300 10.51091  0.32291 26.12573   0.14019   3.14236 =
         0.04081  57.79977   0.00304   0.000   0.000     0.666   0.320   1.008
SFAC  N       12.21261  0.00570  3.13220  9.89331   2.01250  28.99754 =
         1.16630   0.58260 -11.52901   0.005   0.003    16.889   0.700  14.007
SFAC  O        3.04850 13.27711  2.28680  5.70111   1.54630   0.32390 =
         0.86700  32.90894   0.25080   0.009   0.005    27.551   0.660  15.999
SFAC  FE      11.76951  4.76111  7.35731  0.30720   3.52220  15.35351 =
         2.30450  76.88058   1.03690   0.338   0.762  2939.485   1.260  55.845
SFAC  MN      11.28191  5.34091  7.35731  0.34320   3.01930  17.86742 =
         2.24410  83.75438   1.08960   0.324   0.657  2538.176   1.370  54.938
UNIT  16   28   2    24   2    2
MERG   2
FMAP   2
PLAN   20
ACTA
L.S.  15
WGHT    0.060200    0.600100
FVAR      19.34716
MN2   6    0.666667    0.333333    0.250000    10.16667    0.01693    0.01693 =
         0.02214    0.00000    0.00000    0.00846
FE1   5    1.000000    0.000000    0.000000    10.16667    0.01639    0.01639 =
         0.02263    0.00000    0.00000    0.00820
O1    4    0.889085    0.342127    0.166009    11.00000    0.02905    0.02885 =
         0.04823   -0.00893    0.00953    0.01314
O2    4    1.015617    0.208175    0.081853    11.00000    0.02583    0.02639 =
         0.03585   -0.00508    0.00264    0.01449
C1    1    0.878803    0.211290    0.118622    11.00000    0.02538    0.02739 =
         0.03374   -0.00585    0.00084    0.01442
AFIX  43
H1    2    0.761154    0.107492    0.109499    11.00000    0.06070
AFIX   0
C2    1    1.333333    0.666667    0.158105    10.33333    0.03743    0.03743 =
         0.94953    0.00000    0.00000    0.01871
N1    3    1.280460    0.560920    0.250000    10.16667    0.05138    0.01872 =
         0.53067    0.00000   -0.11730    0.00936
HKLF    4

REM  FeMn_warm5 in P-31c
REM R1 =  0.0397 for    1037 Fo > 4sig(Fo)  and  0.0439 for all    1124 data
REM     41 parameters refined using      0 restraints

END

WGHT      0.0602      0.6001

REM Highest difference peak  0.662,  deepest hole -0.570,  1-sigma level  0.085
Q1    1   1.3333  0.6667  0.0870  10.33333  0.05    0.66
Q2    1   1.3291  0.5650  0.1688  11.00000  0.05    0.44
Q3    1   0.9661  0.0791  0.0357  11.00000  0.05    0.39
Q4    1   0.8799  0.2562  0.1620  11.00000  0.05    0.36
Q5    1   1.3333  0.6667  0.2500  10.16667  0.05    0.35
Q6    1   0.8473  0.2873  0.1274  11.00000  0.05    0.34
Q7    1   0.8449  0.2595  0.2125  11.00000  0.05    0.31
Q8    1   0.9525  0.1962  0.0413  11.00000  0.05    0.31
Q9    1   1.2601  0.7144  0.0994  11.00000  0.05    0.27
Q10   1   0.9436  0.2462  0.0816  11.00000  0.05    0.27
Q11   1   0.8000  0.0745  0.1591  11.00000  0.05    0.24
Q12   1   0.8729  0.2692  0.2528  11.00000  0.05    0.24
Q13   1   0.7914  0.0728  0.1898  11.00000  0.05    0.23
Q14   1   0.7871  0.3173  0.1518  11.00000  0.05    0.23
Q15   1   0.8186  0.1814  0.2500  10.50000  0.05    0.23
Q16   1   0.9641  0.1822  0.1283  11.00000  0.05    0.22
Q17   1   1.2720  0.5327  0.1389  11.00000  0.05    0.20
Q18   1   0.9611  0.4022  0.0475  11.00000  0.05    0.20
Q19   1   0.7519  0.0177  0.1575  11.00000  0.05    0.19
Q20   1   0.8903  0.3179  0.2639  11.00000  0.05    0.19
;
_shelx_res_checksum              6451
_shelx_hkl_file
;
   0   0  -2 34450.1 1291.83   1
   0   0   2 29606.7 1273.69   1
   0   0  -3 196.575 146.274   1
   0   0   3 416.325 206.375   1
   0   0   3 50.9610 110.388   2
   0   0   5-140.308 154.615   2
   0   0   5-300.086 240.057   1
   0   0  -5 222.863 221.327   1
   0   0   6 82327.5 3234.48   2
   0   0  -6 87855.0 3700.64   1
   0   0  -7 113.673 240.545   1
   0   0   7 35.6568 202.730   1
   0   0   7 16.1671 235.291   2
   0   0  -9-105.083 197.116   1
   0   0   9-164.602 411.185   1
   0   0   9 429.992 322.331   2
   0   0 -10 13979.5 1769.92   1
   0   0  10 11795.5 1650.74   1
   0   0  10 13120.3 1602.38   2
   0   0  11 612.605 465.277   1
   0   0  11-484.506 175.282   2
   0   0 -11 1292.55 679.550   1
   0   0  13-132.713 183.224   2
   0   0  13-310.073 504.351   1
   0   0 -13-353.348 368.426   1
   0   0  14 2062.67 692.460   2
   0   0 -14 2590.94 877.768   1
   0   0  14 1404.09 645.657   1
   0   0  15 84.8212 216.135   2
   0   0 -15 647.360 601.551   1
   0   0  15 485.184 731.359   1
   0   0 -16 155848. 7744.32   1
   0   0  16 169097. 8359.65   1
   0   0  17 226.267 549.333   1
   0   0 -17-536.529 590.327   1
   0   0 -18 2594.42 1029.69   1
   0   0  18-34.2783 363.031   1
   0   0  19 124.544 641.715   1
   0   0 -19 57.7268 256.830   1
   0   0 -20 15248.1 2537.89   1
   0   0  20 17078.4 2802.61   1
   0   0 -21 352.948 412.108   1
   0   0  21 501.421 490.265   1
   0   0  22 2860.65 1136.97   1
   0   0 -22 1428.16 841.198   1
   0  -1   3 200624. 5284.20   2
   0  -1  -3 193442. 5204.69   1
  -1   0   3 226000. 5554.78   1
   1  -1   3 210588. 5703.99   1
  -1   1  -3 208418. 5557.88   1
   0   1  -3 204931. 5500.10   1
   0  -1   3 212870. 5686.97   1
  -1   0  -3 207014. 5569.55   1
   1   0   3 212054. 5509.21   2
   1   0   3 197878. 5555.61   1
   0   1   4 8270.13 846.760   2
  -1   0  -4 8343.71 895.040   1
  -1   1  -4 6819.65 874.819   1
  -1   0   4 9561.58 956.065   1
   0  -1  -4 9147.98 895.726   1
   1   0  -4 7367.22 802.944   1
  -1   0   4 7963.44 624.285   2
   0   1   4 8672.08 894.975   1
  -1   1   4 7612.61 606.218   2
   1  -1   4 8129.52 938.635   2
  -1   1   4 8609.78 805.631   1
   0  -1   4 7619.11 819.666   2
   0  -1   4 8020.07 908.913   1
   0   1  -4 11566.1 1117.63   1
   1  -1   4 8163.21 953.511   1
   1   0   4 6478.52 924.118   1
   1  -1  -4 9963.26 833.133   1
   1   0   4 9038.33 926.834   2
   0  -1   5 8033.51 888.882   2
  -1   1   5 6966.75 818.793   1
   0   1   5 7193.17 883.257   1
   0  -1   5 7565.78 993.900   1
   0  -1  -5 8433.37 942.346   1
   0   1  -5 7992.56 1003.09   1
  -1   0   5 7087.57 887.719   1
   0   1   5 7046.75 835.206   2
  -1   0  -5 5240.64 844.080   1
  -1   1   5 4810.12 544.097   2
   1   0  -5 7255.40 887.535   1
   1  -1   5 6828.58 897.262   1
   1   0   5 7079.98 945.783   1
  -1   1  -5 8610.94 1060.02   1
  -1   0   5 8289.35 691.897   2
   1   0   5 8032.69 998.358   2
   1  -1  -5 8422.13 875.479   1
   1  -1   5 7944.18 994.644   2
  -1   0  -6 48718.1 2723.04   1
   1   0   6 49606.0 2734.06   2
   1  -1  -6 41565.2 2370.38   1
   0  -1  -6 50767.4 2628.87   1
   1  -1   6 49790.1 2845.05   1
  -1   1   6 45901.9 2478.90   1
   0   1  -6 52042.1 2860.35   1
   1   0  -6 36427.6 2318.59   1
  -1   1   6 58033.4 2200.36   2
   0   1   6 49916.4 2708.66   1
   0  -1   6 45439.9 2446.81   2
  -1   1  -6 47828.1 2679.94   1
   1   0   6 46340.3 2724.12   1
   0  -1   6 48793.0 2846.51   1
  -1   0   6 46352.9 2171.16   2
   0   1   6 47512.2 2353.90   2
   1  -1   6 61016.6 2956.54   2
  -1   0   6 40981.1 2529.18   1
  -1   1   7 123790. 4932.20   1
   0   1   7 128907. 4711.46   2
  -1   0   7 142611. 4490.44   2
   1   0   7 139120. 5393.34   1
   1   0  -7 142310. 5178.89   1
  -1   1   7 130672. 4243.09   2
   1   0   7 147651. 5249.03   2
   0   1  -7 149613. 5497.97   1
  -1   0  -7 138754. 5282.00   1
   1  -1  -7 127916. 4884.95   1
   0  -1   7 148894. 5635.36   1
  -1   0   7 151618. 5579.41   1
   1  -1   7 150012. 5340.83   2
   0  -1  -7 139947. 5062.20   1
  -1   1  -7 146476. 5569.76   1
   0   1   7 144280. 5336.02   1
   0  -1   7 129287. 4868.76   2
   1  -1   7 130259. 5454.64   1
  -1   0  -8 36062.5 2600.57   1
   1  -1  -8 43702.8 2699.65   1
   0   1  -8 40318.6 2753.16   1
   1  -1   8 41561.2 2864.31   2
   1   0   8 46650.5 3065.52   1
  -1   1   8 40549.2 2182.42   2
   0   1   8 41105.7 2567.53   2
   0  -1   8 45073.9 3077.95   1
  -1   0   8 45704.0 2966.46   1
   1   0   8 38235.2 2689.11   2
  -1   0   8 36843.6 2211.77   2
  -1   1   8 44141.0 2784.79   1
   0   1   8 36225.3 2640.75   1
   1   0  -8 39804.6 2693.45   1
  -1   1  -8 43124.7 3041.06   1
   1  -1   8 47196.5 3100.13   1
   0  -1   8 43420.6 2636.99   2
   0  -1  -8 41136.0 2704.70   1
   0   1   9 270235. 8817.58   1
   1   0   9 280932. 8621.73   2
   0  -1   9 239800. 8671.58   1
  -1   0   9 250306. 8588.78   1
   0  -1  -9 257443. 8415.87   1
   1  -1  -9 274545. 8440.37   1
   1  -1   9 270642. 8646.54   2
   0  -1   9 241036. 8041.30   2
   0   1  -9 241521. 8460.44   1
  -1   1   9 268477. 7536.48   2
  -1   0  -9 260962. 8636.07   1
  -1   1   9 302523. 8996.93   1
   1   0   9 256764. 8829.65   1
  -1   0   9 251575. 7494.79   2
   0   1   9 242726. 7838.66   2
   1   0  -9 294650. 8807.62   1
   1  -1   9 273001. 9093.97   1
  -1   1  -9 269191. 8910.07   1
   0  -1  10 716748. 18509.8   1
   1  -1  10 708063. 18578.9   1
  -1   0  10 687011. 18177.4   1
  -1   0  11 148346. 6694.05   1
   1   0 -11 157358. 6458.03   1
   1   0  11 135375. 6043.01   2
   1   0  11 136885. 6462.12   1
  -1   1 -11 149736. 6614.84   1
   1  -1  11 121304. 6260.05   1
   0  -1  11 143069. 6011.20   2
   0  -1  11 144126. 6607.03   1
  -1   1  11 131844. 6249.39   1
   1  -1  11 152855. 6268.86   2
   1  -1 -11 124112. 5828.54   1
   0   1 -11 156664. 6655.10   1
   0   1  11 125335. 6170.10   1
  -1   0  11 152597. 5879.93   2
  -1   1  11 149541. 5637.09   2
  -1   0 -11 144724. 6429.76   1
   0   1  11 159359. 6156.10   2
   0  -1 -11 146989. 6323.87   1
  -1   1  12 62010.1 4165.25   1
   0  -1  12 62203.7 3902.54   2
  -1   0  12 70073.4 3847.86   2
  -1   1  12 57841.4 3448.73   2
   1   0  12 61250.5 4112.70   2
  -1   1 -12 61030.2 4138.56   1
  -1   0 -12 61716.2 4198.15   1
   1  -1  12 58085.8 3909.86   2
   0   1 -12 49592.5 3704.37   1
   1  -1 -12 60971.7 4041.49   1
   0   1  12 54213.8 3994.77   1
   0  -1  12 58595.3 4244.93   1
   0  -1 -12 61293.5 4106.53   1
   1   0 -12 65703.0 4139.71   1
   0   1  12 68740.4 4039.40   2
  -1   0  12 69986.7 4679.05   1
   1   0  12 60809.1 4356.36   1
   1  -1  12 56604.6 4133.67   1
  -1   1  13 86230.1 5312.25   1
   0  -1 -13 79858.7 4994.72   1
   0   1 -13 88193.8 5164.53   1
  -1   0  13 85806.0 5337.80   1
   1   0  13 85810.5 5418.53   1
   1   0 -13 98045.4 5392.22   1
  -1   0  13 105744. 5004.62   2
   0   1  13 103854. 5314.72   2
  -1   0 -13 94137.9 5429.42   1
   1  -1  13 89249.7 5163.05   2
   0  -1  13 102167. 5303.79   2
   1  -1  13 95454.7 5656.58   1
   0   1  13 87330.6 5391.95   1
   1   0  13 90596.4 5258.64   2
   1  -1 -13 93439.7 5169.87   1
  -1   1  13 95685.3 4727.13   2
  -1   1 -13 113014. 5889.07   1
   0  -1  13 76480.9 5168.96   1
  -1   0  14 221853. 9629.77   1
   0   1 -14 248007. 9642.88   1
   0   1  14 238993. 9755.21   1
   1   0 -14 292626. 10176.1   1
   0  -1  14 250895. 9369.21   2
   1  -1  14 233096. 9711.68   1
   1   0  14 247029. 9684.33   2
   1   0  14 257290. 10176.7   1
   0  -1 -14 247347. 9779.77   1
  -1   0 -14 223549. 9414.67   1
  -1   1  14 236746. 9665.12   1
   1  -1  14 232814. 9326.01   2
  -1   1 -14 252073. 9884.80   1
   1  -1 -14 267142. 9962.77   1
   0  -1  14 250794. 10227.2   1
   0   1  14 235211. 9207.44   2
   0   1  15 65012.3 4494.41   2
   0  -1  15 60447.1 4666.81   1
  -1   0  15 65792.5 4938.67   1
  -1   0 -15 57497.0 4443.82   1
  -1   1  15 51941.1 4400.06   1
   1  -1  15 60737.8 4502.80   2
   0  -1  15 64229.5 4423.86   2
   1  -1 -15 55641.9 4273.89   1
   1   0 -15 59324.4 4375.09   1
   0   1  15 56307.8 4394.11   1
   1  -1  15 52209.7 4319.35   1
   0   1 -15 58733.9 4417.74   1
   1   0  15 54778.8 4244.62   2
   1   0  15 60678.6 4669.21   1
  -1   1 -15 57792.4 4382.52   1
   0  -1 -15 65912.6 4760.66   1
   0   1  16 14079.0 2271.08   1
   1  -1  16 12818.8 2275.90   1
   0  -1  16 12567.5 2253.88   1
   1  -1 -16 15045.5 2233.69   1
  -1   1  16 13966.5 2351.22   1
  -1   1 -16 15966.0 2372.66   1
   1  -1  16 16576.1 2429.73   2
   1   0  16 17023.3 2459.51   1
   1   0  16 12270.5 2050.41   2
  -1   0  16 14515.8 2339.20   1
  -1   0 -16 16972.4 2407.48   1
   0   1 -16 15128.1 2240.94   1
   0  -1 -16 12858.3 2193.89   1
   1   0 -16 17342.9 2294.61   1
   1  -1 -17 12988.5 2105.58   1
   0  -1 -17 13982.7 2256.53   1
   1  -1  17 13618.7 2233.41   1
   1   0  17 11526.7 2076.07   1
  -1   0  17 13597.0 2370.21   1
   1   0 -17 14590.9 2167.35   1
  -1   1 -17 13631.6 2231.77   1
   0  -1  17 10760.7 2047.92   1
   0   1 -17 12234.3 2176.54   1
  -1   1  17 13852.7 2396.68   1
  -1   0 -17 12909.0 2164.18   1
   0   1  17 15580.8 2526.28   1
   0  -1 -18 29487.4 3433.50   1
   1  -1 -18 31686.0 3372.14   1
   1   0  18 28341.5 3417.15   1
   0   1 -18 26548.1 3242.02   1
   1   0 -18 24954.4 3125.29   1
  -1   0  18 31425.2 3692.37   1
   0   1  18 31427.2 3658.75   1
  -1   1 -18 30137.1 3395.54   1
   1  -1  18 30852.6 3621.93   1
   0  -1  18 22765.9 3127.06   1
  -1   1  18 30469.6 3679.75   1
  -1   0 -18 31408.1 3412.90   1
   0  -1 -19 6835.92 1589.40   1
   0   1 -19 4794.53 1349.92   1
  -1   1 -19 6550.87 1624.54   1
  -1   1  19 6341.58 1649.53   1
   1  -1  19 4711.28 1440.57   1
   0  -1  19 3757.08 1256.67   1
   1   0 -19 4656.70 1345.34   1
   1   0  19 5714.34 1589.12   1
   1  -1 -19 5949.10 1615.27   1
   0   1  19 5702.24 1620.48   1
  -1   0 -19 5404.65 1466.46   1
  -1   0  19 5914.62 1627.03   1
  -1   1 -20 665.367 439.388   1
   1   0  20-25.0590 372.991   1
   0  -1 -20 1278.86 619.928   1
   0  -1  20 1192.79 850.061   1
   1  -1  20 1326.91 714.058   1
   0   1  20 1078.61 754.408   1
   0   1 -20 255.887 716.026   1
  -1   0 -20 905.215 459.162   1
   1   0 -20 787.498 767.704   1
  -1   0  20 907.904 669.181   1
   1  -1 -20 766.938 187.667   1
  -1   1  20 810.248 445.115   1
  -1   0 -21 12211.7 2324.35   1
   0  -1 -21 10322.1 2053.70   1
   0  -1  21 12882.7 2512.57   1
   0   1  21 9513.83 2189.53   1
   1   0 -21 9210.33 1853.73   1
  -1   1 -21 10336.9 2133.69   1
   1  -1  21 11050.8 2169.22   1
  -1   0  21 10240.3 2300.44   1
  -1   1  21 10936.2 2345.77   1
   1   0  21 12591.1 2423.92   1
   0   1 -21 9375.39 1929.19   1
  -1   0 -22 25871.3 3482.37   1
   0   1 -22 25438.3 3358.53   1
   0  -1  22 28676.4 3733.05   1
   1   0  22 25858.0 3465.88   1
  -1   0  22 27074.9 3783.68   1
   1   1  22 8720.82 2126.78   1
  -1  -1 -21-92.0861 464.676   1
   1  -2  21-549.789 466.712   1
  -1   2 -21 803.749 604.604   1
   1   1  21-141.037 285.599   1
   1  -2  20 73273.9 5788.33   1
  -1  -1 -20 55863.8 4897.98   1
   1   1  20 61135.0 5411.85   1
  -1   2 -20 71817.8 5493.51   1
   1   1  19 1355.39 859.780   1
  -2   1  19 370.576 372.954   1
  -1  -1 -19-152.418 563.382   1
  -1   2 -19 827.814 549.341   1
   1  -2  19 202.198 621.681   1
   2  -1 -19-866.184 442.875   1
  -2   1  18 5060.72 1513.97   1
   1  -2  18 6411.87 1645.47   1
  -1  -1 -18 5287.10 1474.36   1
   1   1  18 4052.69 1202.43   1
  -1   2 -18 5275.79 1297.82   1
   2  -1 -18 6475.89 1638.08   1
  -1   2 -17 865.115 828.486   1
   1  -2  17 1167.15 828.522   2
   1  -2  17 492.338 504.070   1
   2  -1 -17-249.324 653.315   1
  -1  -1 -17-78.2885 452.397   1
   1   1  17 602.542 868.083   1
  -2   1  17 403.409 655.536   1
   1  -2  16 169231. 8167.36   2
  -2   1  16 135998. 7689.47   1
   1   1  16 160885. 7988.36   2
  -1  -1 -16 161312. 8061.59   1
   2  -1 -16 178042. 8209.97   1
   1   1  16 152304. 8089.10   1
  -1   2 -16 162035. 8026.04   1
   1  -2  16 157252. 8297.20   1
   1  -2  15-353.954 728.741   1
  -1  -1 -15 99.3436 519.974   1
   1  -2  15 161.796 456.293   2
   2  -1 -15 60.2676 240.518   1
   1   1  15-863.426 692.842   1
  -1   2 -15 711.202 668.486   1
  -2   1  15 206.534 513.375   1
   1   1  15 144.535 513.588   2
  -1   2 -14 1297.12 765.274   1
   2  -1 -14 1933.68 641.646   1
  -2   1  14 3386.44 1179.86   1
   1   1  14 1540.90 537.360   2
  -1  -1 -14 2521.99 885.140   1
   1  -2  14 3117.36 981.566   2
   1   1  14 2809.63 1045.16   1
   1  -2  14 1149.49 455.294   1
   1   1  13-256.337 413.852   2
   2  -1 -13 81.0982 489.832   1
   1  -2  13-180.343 324.392   1
  -1   2 -13 42.7712 337.335   1
  -2   1  13 205.062 355.164   1
  -1  -1 -13-81.2976 411.402   1
   1  -2  13 89.7708 235.346   2
   1   1  13-516.005 603.929   1
   1   1  12 434448. 13777.2   1
  -1   2 -12 400501. 13142.0   1
  -2   1  12 472375. 13681.9   1
   1  -2  12 459157. 14054.3   1
   1   1  12 419591. 13269.0   2
  -1  -1 -12 372069. 12708.7   1
   2  -1 -12 537719. 13711.8   1
   1  -2  12 437071. 13219.6   2
  -2   1  11-89.7814 248.463   1
   2  -1 -11-296.783 495.089   1
   1  -2  11 100.925 271.752   2
  -2   1  11 199.438 278.634   2
  -1  -1 -11 35.7440 293.638   1
   1   1  11-170.073 222.847   2
   1   1  11 85.2677 222.652   1
  -1   2 -11 379.134 373.199   1
   1  -2  11 828.364 692.268   1
  -2   1  10 61607.1 2841.32   2
   1   1  10 60410.3 3906.03   1
  -1  -1 -10 60051.5 3688.66   1
  -2   1  10 61220.4 3876.44   1
   1  -2  10 59552.9 3995.03   1
   1  -2  10 65755.3 3958.62   2
   2  -1 -10 71497.0 3816.73   1
   1   1  10 69588.2 4091.05   2
  -1   2 -10 72228.6 4258.01   1
  -1  -1  -9 11.1760 381.115   1
  -2   1   9 222.381 204.939   2
  -1   2  -9-533.077 524.926   1
   1  -2   9 445.185 428.645   1
   1   1   9-53.5913 334.726   2
   1  -2   9-431.902 452.824   2
  -2   1   9 228.024 405.785   1
   2  -1  -9-90.2695 147.193   1
   1   1   9-39.1241 397.034   1
  -1   2  -7 534.826 350.205   1
   1   1   7 25.2877 233.377   1
  -1  -1  -7 213.216 218.229   1
   1  -2   7 137.237 370.052   1
   1   1   7 368.374 397.207   2
  -2   1   7 157.803 210.956   1
  -2   1   7 51.2111 78.2009   2
   2  -1  -7-60.4998 115.611   1
   1  -2   7-208.858 337.058   2
   1   1   6 3544.34 847.495   2
  -2   1   6 5987.23 855.893   1
  -1  -1  -6 6733.11 996.392   1
   1   1   6 6801.02 976.571   1
  -2   1   6 3718.18 384.351   2
   2  -1  -6 5712.84 818.645   1
   1  -2   6 5497.45 1013.43   1
  -1   2  -6 6601.22 983.320   1
   1  -2   6 5405.74 745.653   2
   1   1   5 35.4166 151.293   1
   1  -2   5-221.078 399.871   2
   1   1   5-133.504 204.313   2
  -1   2  -5 657.540 390.083   1
  -1  -1  -5-113.176 177.726   1
   2  -1  -5 235.713 167.104   1
  -2   1   5-197.402 164.356   1
   1  -2   5 63.5901 266.166   1
  -2   1   3 218.939 181.076   1
   1   1   3-60.7650 267.521   1
  -1   2  -3 64.9953 114.613   1
   1  -2   3 467.141 255.595   1
  -1  -1  -3-98.8862 234.886   1
   1  -2   3 136.118 199.016   2
   2  -1  -3 93.3419 79.4951   1
  -1  -1  -1-41.1200 165.340   1
   2  -1  -1 302.853 159.414   1
  -2   1   1 249.975 133.626   1
   1  -2   1 84.9146 174.299   1
   2  -1  -1 282.675 142.605   2
   1  -2   1 392.617 295.129   2
  -1   2  -1 66.4870 144.826   1
   1   1   1 192.410 144.557   1
  -1  -1   1 277.417 276.802   1
   2  -1   1 209.823 208.704   1
   1  -2  -1-55.2446 148.632   2
   2  -1   1-91.6018 233.734   2
  -2   1  -1 120.287 140.260   1
  -1   2   1 239.582 144.301   1
   1  -2  -1 142.960 58.1181   1
  -1  -1   3-101.407 190.384   2
  -1   2   3-281.759 195.909   1
   2  -1   3-83.3156 137.924   1
  -1  -1   3-567.284 348.060   1
  -2   1  -3-26.6761 246.487   1
   2  -1   3 103.268 198.089   2
   1   1  -3-192.049 179.023   1
   1  -2  -3-119.359 115.415   1
   2  -1   5 739.677 469.333   2
  -1  -1   5-144.757 268.184   2
  -1   2   5 545.007 355.015   1
   2  -1   5 463.911 318.871   1
  -2   1  -5 410.971 253.964   1
   1   1  -5 449.507 139.471   1
   1  -2  -5 338.246 233.590   1
  -1  -1   6 28297.4 2189.75   1
  -2   1  -6 27526.8 2114.40   1
   1   1  -6 24810.3 1933.49   1
   2  -1   6 30033.7 2192.93   2
   2  -1   6 25636.8 2049.29   1
   1  -2  -6 21692.6 1583.74   1
  -1  -1   6 26229.5 1798.95   2
  -1   2   6 32085.2 1862.99   2
  -1   2   6 26688.0 1857.30   1
  -1   2   7 621.174 400.754   1
   1  -2  -7-77.0459 214.952   1
  -1  -1   7 29.4301 193.244   1
  -1   2   7-107.923 169.439   2
   1   1  -7 46.1741 231.572   1
  -2   1  -7-197.048 187.333   1
   2  -1   7-328.756 392.369   1
  -1  -1   7 89.3811 238.517   2
   2  -1   7 52.3038 358.040   2
  -1   2   9 319.013 173.281   1
  -1  -1   9-165.907 413.307   1
  -2   1  -9-136.864 382.997   1
   2  -1   9 205.635 190.754   1
   2  -1   9-189.358 479.356   2
   1  -2  -9 90.6421 186.097   1
  -1  -1   9 19.5626 151.306   2
   1   1  -9 40.2580 311.368   1
  -1   2   9-208.247 329.926   2
   2  -1  10 103278. 5431.13   1
  -1  -1  10 100728. 4549.92   2
   1  -2 -10 88347.7 4570.58   1
   2  -1  10 106433. 5225.36   2
   1   1 -10 89342.8 4757.47   1
  -1  -1  10 96477.1 5196.97   1
  -2   1 -10 105695. 5179.73   1
  -1   2  10 95001.0 4267.15   2
  -1   2  10 114228. 5285.92   1
   2  -1  11 368.271 207.882   2
  -2   1 -11 509.205 382.567   1
  -1  -1  11 77.5909 329.902   2
  -1  -1  11 618.231 377.524   1
   2  -1  11 276.314 348.822   1
  -1   2  11 22.2076 294.385   1
  -1   2  11 355.728 397.388   2
   1  -2 -11-226.041 309.375   1
   1   1 -11 701.891 377.461   1
   1   1 -12 443052. 13727.4   1
   2  -1  12 483942. 14694.2   1
  -1  -1  12 443826. 14352.1   1
  -2   1 -12 479246. 14434.6   1
   1  -2 -12 509807. 14149.2   1
  -1  -1  12 477848. 13363.4   2
  -1   2  12 468877. 14149.2   1
  -1   2  13-173.351 133.162   2
  -1   2  13-172.429 201.635   1
  -1  -1  13 207.119 265.156   2
  -2   1 -13 339.986 411.515   1
   1   1 -13-466.219 256.156   1
   2  -1  13 856.514 497.235   2
   2  -1  13-101.938 327.522   1
  -1  -1  13 106.835 414.251   1
   1  -2 -13 45.3558 412.258   1
  -1  -1  14 27681.2 3120.91   1
   1  -2 -14 28359.0 2953.32   1
   2  -1  14 26023.9 3059.54   1
   1   1 -14 28925.8 2897.19   1
  -1   2  14 27091.1 2965.29   1
   2  -1  14 25680.0 2917.52   2
  -1  -1  14 29296.9 2774.54   2
  -2   1 -14 26331.8 2980.22   1
   1   1 -15-269.868 326.951   1
   2  -1  15-405.948 608.995   1
  -1  -1  15 336.560 467.840   1
  -1   2  15 354.775 405.236   1
   1  -2 -15-111.672 408.615   1
  -2   1 -15-454.987 591.330   1
   2  -1  15-361.697 566.634   2
  -1   2  16 124502. 7097.07   1
   1   1 -16 130217. 7005.51   1
   2  -1  16 138244. 7476.50   1
  -1  -1  16 130610. 7366.22   1
   2  -1  16 126211. 7002.59   2
  -2   1 -16 131592. 7240.17   1
   1  -2 -16 131853. 7149.25   1
   2  -1  17-520.903 479.438   2
  -1  -1  17-334.397 637.582   1
  -2   1 -17 614.407 352.964   1
   2  -1  17-69.8744 630.006   1
  -1   2  17 691.227 659.541   1
   1  -2 -17-312.893 379.440   1
   1   1 -17-232.888 404.510   1
  -2   1 -18 1186.81 865.535   1
  -1   2  18 66.6893 716.150   1
  -1  -1  18-739.552 645.122   1
   1   1 -18-722.396 587.080   1
   2  -1  18-207.198 574.653   1
   1  -2 -18 186.521 320.990   1
   2  -1  18 379.102 422.980   2
   1   1 -19 693.710 778.991   1
  -1  -1  19 752.272 847.505   1
   1  -2 -19 819.520 635.828   1
  -1   2  19 664.687 896.706   1
   2  -1  19-592.555 888.579   1
  -2   1 -19-503.770 521.376   1
  -2   1 -20 102548. 6727.98   1
   2  -1  20 97184.4 6821.54   1
   1   1 -20 78912.5 6071.98   1
  -1  -1  20 77103.6 6144.68   1
  -2   1 -21 203.299 277.568   1
   1   1 -21 577.784 665.225   1
   2  -1  21 1091.16 631.241   1
  -1  -1  21 140.238 347.965   1
   1   1 -22 2537.17 1287.79   1
  -1  -1  22-564.675 937.635   1
   2   0   0 211175. 5417.18   1
   0  -2   0 163807. 5034.05   1
  -2   0   0 172540. 5169.51   1
   2  -2   0 219477. 5204.58   2
   2  -2   1 178517. 4829.07   1
   2  -2   1 195780. 5336.37   2
   0  -2  -1 205739. 5291.10   1
  -2   0   1 212255. 5439.75   1
   0   2  -1 179749. 5334.06   1
   0   2   1 190259. 5136.27   1
  -2   0  -1 169759. 5267.10   1
   2   0  -1 207764. 5326.55   1
   0  -2   1 188380. 5305.59   1
   0  -2   1 210365. 5757.08   2
   2   0   1 201503. 5451.33   1
   0  -2   7 92358.2 4508.73   1
   0  -2   7 104532. 4365.71   2
   2  -2   7 101953. 4780.31   1
   0   2   7 95285.9 4472.08   2
  -2   2  -7 105875. 4718.89   1
   2  -2  -7 97234.9 3791.97   1
   2   0   7 100213. 4646.15   1
   0   2  -7 109165. 4677.67   1
  -2   0   7 110535. 4703.37   1
   0  -2  -7 113279. 4419.79   1
   0   2   7 108662. 4525.85   1
  -2   0   7 83755.2 3321.53   2
   2   0   7 105243. 4611.55   2
   2  -2   7 96074.0 4474.40   2
   2   0  -7 106624. 4372.83   1
  -2   0  -7 98517.7 4557.45   1
  -2   2   7 107880. 4071.28   1
  -2   0   8 11479.1 1511.41   1
   0   2  -8 13193.4 1587.43   1
   2   0   8 13568.4 1716.67   2
   2  -2  -8 14816.3 1457.64   1
   2  -2   8 12935.6 1646.38   2
   0   2   8 15692.9 1602.95   2
  -2   2  -8 11124.5 1497.08   1
  -2   2   8 9498.58 864.190   2
   2   0   8 10527.2 1560.41   1
   0   2   8 13144.4 1614.48   1
   2  -2   8 12214.2 1614.72   1
  -2   0   8 12768.8 1158.84   2
   0  -2   8 12493.6 1688.07   1
  -2   2   8 12617.7 1433.58   1
  -2   0  -8 13601.0 1698.52   1
   0  -2   8 11554.5 1434.79   2
   2   0  -8 12900.4 1518.82   1
   0  -2  -8 12287.4 1471.76   1
   2   0   9 58204.3 3620.16   2
   0   2  -9 65051.1 3867.03   1
   0  -2  -9 59585.8 3482.46   1
   2  -2   9 58361.2 3557.88   2
   2  -2   9 50198.4 3562.81   1
   0   2   9 54934.1 3462.49   1
  -2   2  -9 58699.4 3880.06   1
   2   0   9 53897.2 3646.49   1
  -2   0   9 59751.7 3741.68   1
   0   2   9 58359.6 3327.11   2
   0  -2   9 52244.8 3348.31   2
  -2   2   9 53809.0 3245.12   1
   0  -2   9 53483.2 3662.95   1
   2   0  -9 57235.3 3409.03   1
  -2   0  -9 48655.1 3416.09   1
   2  -2  -9 63301.5 3382.09   1
  -2   2   9 41439.8 2167.98   2
  -2   0   9 56038.6 2720.33   2
  -2   0 -10 234151. 8454.25   1
   0   2 -10 269864. 8977.23   1
   0  -2 -10 269716. 8523.10   1
   2  -2  10 226996. 8669.45   1
   0  -2  10 247323. 9003.29   1
   2  -2 -10 277011. 8420.20   1
  -2   0  10 211446. 6883.32   2
   0   2  10 229032. 7879.08   2
   0  -2  10 232351. 8097.15   2
   2  -2  10 232937. 8418.80   2
  -2   0  10 190525. 8032.39   1
  -2   2  10 233481. 8152.86   1
   2   0 -10 252428. 8367.55   1
  -2   2 -10 245274. 8814.33   1
  -2   2  10 239176. 6714.95   2
   0   2  10 237636. 8515.93   1
   2   0  10 229860. 8722.91   1
   2   0  10 243212. 8714.15   2
  -2   0  11 226187. 7276.66   2
   2  -2  11 229213. 9034.46   1
   0   2 -11 240593. 8753.57   1
  -2   0  11 217530. 8578.37   1
   0  -2 -11 247426. 8566.92   1
   0   2  11 263775. 8608.26   2
   2   0  11 252300. 9063.26   2
   2   0 -11 188252. 7816.24   1
  -2   2  11 221233. 6760.93   2
   0  -2  11 250659. 9332.03   1
  -2   0 -11 217618. 8379.43   1
   2  -2  11 245401. 8744.52   2
   2  -2 -11 201970. 7844.08   1
  -2   2 -11 234290. 8919.60   1
   0  -2  11 218412. 8087.05   2
  -2   2  11 255501. 8721.02   1
   2   0  11 235147. 8964.57   1
   0   2  11 241551. 8809.22   1
   0   2  12 60456.0 4249.94   1
   2  -2  12 63810.2 4458.67   1
  -2   0  12 62487.8 4433.61   1
   2   0  12 61922.8 4352.19   1
   2  -2 -12 71964.7 4278.02   1
   0  -2  12 61675.5 4394.48   1
  -2   2 -12 76235.2 4616.79   1
   0  -2  12 58828.2 3952.07   2
   2   0  12 62570.8 4274.65   2
   2  -2  12 65412.1 4293.85   2
   0   2 -12 60046.0 4120.82   1
  -2   0 -12 60782.8 4274.15   1
   0   2  12 69307.0 4211.93   2
  -2   0  12 65157.5 3505.16   2
   2   0 -12 55312.0 3892.49   1
   0  -2 -12 43603.7 3479.12   1
  -2   2  12 57469.1 4006.35   1
   0  -2  13 66959.0 4654.84   1
  -2   0 -13 64239.5 4471.41   1
   0   2  13 58490.9 4264.58   2
  -2   0  13 58501.3 4374.47   1
  -2   2  13 69731.1 4557.89   1
   2  -2  13 64094.0 4493.04   2
   2   0  13 62728.9 4514.24   2
   2  -2  13 57782.8 4433.49   1
   2   0 -13 59609.0 4183.82   1
   2   0  13 60496.7 4555.57   1
   0   2 -13 66145.2 4430.53   1
   0   2  13 66026.7 4593.57   1
   0  -2  13 64948.0 4286.92   2
  -2   2 -13 71935.9 4843.49   1
   2  -2 -13 68027.5 4350.02   1
   0  -2 -13 53968.5 4003.16   1
   0  -2 -14 139265. 7081.07   1
  -2   0  14 139777. 7405.48   1
   0  -2  14 134059. 7279.39   1
   2   0 -14 142065. 6926.44   1
   0   2  14 148778. 7109.01   2
   2   0  14 154541. 7579.24   2
   2  -2 -14 140757. 6857.78   1
   0   2  14 151988. 7502.65   1
   2  -2  14 159562. 7594.68   2
   0   2 -14 166039. 7521.67   1
  -2   0 -14 166134. 7664.02   1
   0  -2  14 150107. 7065.45   2
   2  -2  14 134914. 7209.27   1
  -2   2 -14 159578. 7733.02   1
  -2   2  14 165892. 7755.42   1
   2   0  14 139974. 7508.41   1
   0  -2  15 768.325 763.728   1
   0   2 -15 2205.76 939.675   1
   2  -2 -15 974.784 585.758   1
   0  -2 -15 1331.22 753.615   1
   2   0  15 1297.18 831.838   2
   2   0  15 1922.86 917.580   1
   2  -2  15 1554.20 1011.92   1
  -2   2 -15 2760.28 1063.24   1
  -2   0 -15 114.640 312.062   1
   0   2  15 795.332 645.314   1
   2  -2  15 1302.54 468.849   2
  -2   2  15 1621.89 610.595   1
   0  -2  15 1823.50 930.224   2
   2   0 -15 1739.54 759.319   1
  -2   0  15 2073.59 1018.48   1
   2  -2  16 1381.02 695.175   2
   2  -2  16 3168.86 1173.96   1
   2  -2 -16 3467.99 1148.42   1
   0   2 -16 1778.65 931.924   1
   2   0 -16 2232.26 983.469   1
   0  -2 -16 3550.31 1180.98   1
   0  -2  16 3088.21 1121.82   1
  -2   0  16 2566.03 1201.11   1
   2   0  16 2587.82 1116.70   2
   2   0  16 2450.25 1062.95   1
  -2   0 -16 3164.81 1245.62   1
  -2   2 -16 3043.41 1070.80   1
  -2   2  16 1683.19 664.386   1
   0   2  16 3075.74 1208.79   1
   0   2  17 25573.8 3217.70   1
   0  -2  17 28926.9 3438.22   1
   0  -2 -17 31236.0 3551.16   1
  -2   0  17 34328.4 3767.42   1
   0   2 -17 23609.3 2928.04   1
   2   0  17 27940.4 3483.30   2
  -2   0 -17 29708.4 3432.26   1
   2  -2  17 24974.9 3255.06   1
   2   0 -17 28699.4 3286.62   1
   2  -2  17 29149.2 3286.62   2
  -2   2 -17 30819.0 3465.86   1
   2   0  17 26073.6 3190.78   1
   2  -2 -17 27420.1 3225.63   1
  -2   2  17 32473.8 3602.57   1
  -2   0 -18 64836.7 5275.80   1
   0  -2  18 65249.6 5372.09   1
   2   0  18 69018.6 5502.57   1
  -2   2  18 67731.6 5460.63   1
  -2   2 -18 68658.3 5280.68   1
   2  -2  18 71919.2 5549.53   2
   2   0 -18 68524.3 5247.86   1
  -2   0  18 69244.9 5635.27   1
   0  -2 -18 73479.5 5567.55   1
   0   2 -18 68182.8 5246.09   1
   2  -2  18 66318.5 5334.09   1
   0   2  18 69235.3 5383.21   1
   2   0 -19 46535.8 4452.93   1
   0  -2  19 53604.7 4923.32   1
   0   2  19 38999.0 4183.99   1
  -2   0  19 41787.3 4429.20   1
  -2   0 -19 43649.7 4245.68   1
   0  -2 -19 42377.9 4283.48   1
   0   2 -19 39675.9 4046.68   1
  -2   2 -19 44002.6 4271.71   1
   2  -2  19 44520.7 4421.69   1
   2   0  19 42844.4 4375.49   1
   0  -2 -20 11211.7 2231.24   1
   0   2 -20 9919.67 2053.30   1
   2   0  20 10489.2 2246.75   1
  -2   0 -20 10915.9 2192.60   1
   0  -2  20 10726.0 2201.39   1
   0   2  20 11419.7 2318.14   1
  -2   2 -20 11615.7 2192.03   1
   2   0 -20 8042.98 1782.51   1
   2  -2  20 10510.7 2259.85   1
  -2   0  20 11133.1 2393.49   1
   0   2 -21 4864.62 1486.87   1
   2  -2  21 6092.87 1718.62   1
  -2   0 -21 4983.55 1503.15   1
  -2   2 -21 7268.13 1758.87   1
   2   0  21 6762.11 1816.71   1
  -2   0  21 5125.76 1590.93   1
   0  -2  21 5737.64 1664.74   1
   2   1  21 1868.30 1009.73   1
   1  -3  21 2637.18 1090.99   1
   1   2  21 1319.10 770.254   1
  -1   3 -21 2778.26 1247.42   1
  -1  -2 -21 3300.09 1208.97   1
  -2  -1 -21 2154.55 1115.27   1
  -1  -2 -20 17099.6 2769.44   1
  -1   3 -20 23260.4 3117.99   1
   1   2  20 17389.2 2969.28   1
  -2   3 -20 20144.2 2911.05   1
   1  -3  20 16873.6 2768.69   1
   2   1  20 22528.0 3209.11   1
  -2  -1 -20 18057.9 2802.70   1
   2  -3  20 24879.5 3349.31   1
   1   2  19 5848.82 1628.17   1
   1  -3  19 7033.30 1679.21   1
   2  -3  19 8905.48 2011.86   1
  -1  -2 -19 6104.27 1572.65   1
  -2   3 -19 8023.38 1807.18   1
  -1   3 -19 6129.24 1588.86   1
  -2  -1 -19 6460.88 1707.26   1
   2   1  19 6511.27 1691.88   1
   2   1  18 80367.9 5849.99   1
   2  -3  18 75824.4 5763.85   2
   1   2  18 75496.2 5744.77   1
   2  -3  18 80102.5 6022.25   1
   1  -3  18 75518.6 5706.28   1
  -2  -1 -18 85579.4 6017.01   1
  -1   3 -18 80137.1 5660.91   1
  -2   3 -18 82705.6 5758.96   1
  -3   1  18 87902.6 6311.54   1
  -1  -2 -18 70346.2 5576.72   1
  -2   3 -17 64748.9 4923.04   1
   1  -3  17 64237.6 5226.32   1
   3  -1 -17 61985.1 4898.18   1
   2  -3  17 63983.0 5090.98   1
   2   1  17 61670.1 5132.06   2
   2  -3  17 60222.4 4929.58   2
   1  -3  17 59810.3 4924.91   2
  -2  -1 -17 71307.3 5394.39   1
  -3   1  17 63785.9 5290.69   1
   2   1  17 60118.3 5074.23   1
  -1  -2 -17 60186.8 4983.79   1
   1   2  17 57276.8 4848.52   1
  -1   3 -17 64941.5 4889.34   1
   3  -1 -16 359.162 259.060   1
   2   1  16 418.489 437.091   1
   1   2  16 1.52251 425.202   2
   2  -3  16-279.140 648.628   1
   1  -3  16-272.472 709.963   1
  -3   1  16 270.723 450.102   1
  -2  -1 -16 1.51431 330.502   1
   1   2  16-622.965 644.260   1
   1  -3  16 65.1673 319.310   2
  -3   2  16-261.842 672.919   1
   2  -3  16 244.061 668.567   2
   2   1  16-1197.26 669.606   2
  -1  -2 -16 327.358 476.050   1
  -2   3 -16 204.386 614.186   1
  -1   3 -16 496.024 547.764   1
   1  -3  15 114726. 6813.36   1
  -1   3 -15 120538. 6617.77   1
   3  -2 -15 114728. 6296.69   1
  -2  -1 -15 115526. 6559.63   1
   2  -3  15 117132. 6694.63   2
   2   1  15 105105. 6548.04   1
  -1  -2 -15 138820. 7059.40   1
  -3   2  15 134758. 7188.48   1
   1   2  15 113225. 6780.65   1
   2  -3  15 110513. 6782.01   1
   2   1  15 122640. 6880.18   2
   3  -1 -15 127613. 6687.44   1
  -3   1  15 120909. 6950.65   1
   1  -3  15 118690. 6645.77   2
   1   2  15 107254. 6712.98   2
  -2   3 -15 121892. 6692.92   1
   3  -2 -14 79769.7 4887.20   1
   2   1  14 62059.5 4642.91   1
  -3   2  14 62919.3 4687.63   1
   2   1  14 60027.4 4710.93   2
  -1   3 -14 58318.3 4423.58   1
   3  -1 -14 75060.6 4855.30   1
  -2   3 -14 70127.4 4880.11   1
   1   2  14 64982.4 4781.20   1
   1  -3  14 62442.7 4614.78   2
   1   2  14 67205.0 4775.15   2
  -1  -2 -14 70031.4 4732.04   1
   2  -3  14 61102.7 4851.84   1
  -3   1  14 65544.8 4758.82   1
   2  -3  14 67597.8 4762.15   2
   1  -3  14 65521.7 4918.32   1
  -2  -1 -14 57238.9 4425.19   1
   1  -3  13 21948.0 2554.23   2
   2   1  13 18447.4 2463.24   1
  -2  -1 -13 18759.3 2361.45   1
  -1  -2 -13 19615.9 2372.81   1
   2  -3  13 19348.5 2615.10   1
   1   2  13 20577.0 2546.10   1
   3  -2 -13 20317.7 2240.45   1
   1  -3  13 18279.5 2447.35   1
  -1   3 -13 22119.6 2577.69   1
   2  -3  13 19786.0 2511.96   2
  -3   1  13 20991.5 2510.85   1
  -2   3 -13 21219.4 2627.44   1
   3  -1 -13 17515.9 2219.81   1
   1   2  13 19625.3 2510.69   2
   2   1  13 16001.7 2395.21   2
  -3   2  13 20391.2 2447.19   1
   1  -3  12 2132.52 747.623   1
   1   2  12 3587.52 1083.08   2
   2   1  12 3217.59 1055.14   2
   3  -2 -12 2896.88 935.904   1
  -2   3 -12 4490.87 1131.75   1
   2  -3  12 3171.08 940.431   2
  -1   3 -12 3280.63 1092.42   1
   1   2  12 3593.50 1023.09   1
   3  -1 -12 3303.36 1038.11   1
  -3   2  12 2757.54 839.992   1
  -1  -2 -12 3136.79 918.104   1
   1  -3  12 1809.03 649.479   2
   2  -3  12 3321.18 1054.90   1
   2   1  12 2973.59 913.199   1
  -3   1  12 2921.62 954.367   1
  -2  -1 -12 2950.20 885.951   1
  -3   2  11 3058.21 818.309   1
  -2  -1 -11 2904.54 858.361   1
   2  -3  11 1559.88 750.959   2
  -1   3 -11 2092.17 632.172   1
   2   1  11 4630.84 1065.90   1
   1   2  11 2803.41 894.057   1
  -1  -2 -11 2769.93 891.745   1
   3  -2 -11 2426.43 783.419   1
   2   1  11 3014.02 874.199   2
   2  -3  11 2974.72 1040.65   1
   1  -3  11 2706.37 897.483   2
  -3   1  11 2038.50 790.308   1
   1   2  11 3367.14 799.323   2
  -2   3 -11 3539.97 966.248   1
   1  -3  11 2192.69 537.725   1
   3  -1 -11 2975.97 781.846   1
   2  -3  10 401324. 12172.5   2
   1   2  10 438344. 12161.7   2
   3  -1 -10 436192. 11895.0   1
   2  -3  10 393947. 12603.7   1
   2   1  10 395434. 12321.8   1
   1  -3  10 387485. 11973.4   2
  -1  -2 -10 394556. 11933.9   1
  -2  -1 -10 385869. 12050.0   1
   1   2  10 429557. 12448.6   1
  -1   3 -10 369637. 11934.8   1
  -3   1  10 339218. 11530.2   1
   3  -2 -10 480684. 11804.5   1
  -2   3 -10 363841. 11962.3   1
   1  -3  10 329702. 12001.8   1
   2   1  10 402956. 12140.2   2
  -3   2  10 350904. 11211.8   1
   2   1   9 72534.0 4019.97   2
   2  -3   9 60275.3 3992.37   1
  -2   3  -9 54046.3 3702.92   1
  -3   1   9 54623.8 3527.93   1
   2   1   9 54828.7 3763.72   1
  -3   1   9 42141.5 2056.96   2
   1  -3   9 56653.7 3614.49   2
   1   2   9 66208.9 4025.44   1
   3  -2  -9 56892.7 3216.98   1
   3  -1  -9 69628.6 3725.93   1
  -2  -1  -9 52576.5 3615.39   1
  -1   3  -9 61456.7 3759.98   1
  -3   2   9 52349.3 3268.81   1
   2  -3   9 58027.8 3779.66   2
  -1  -2  -9 64574.2 3842.38   1
   1   2   9 61382.5 3667.85   2
   1  -3   9 70167.2 4169.09   1
  -3   2   7 178155. 5839.04   1
  -1   3  -7 153600. 6283.96   1
  -3   1   7 191390. 6302.40   1
  -2  -1  -7 167026. 6489.85   1
   2   1   7 176742. 6774.33   1
   2  -3   7 181641. 6884.77   1
   1  -3   7 176021. 6611.77   2
   3  -2  -7 164816. 5522.30   1
   2   1   7 189246. 6768.88   2
   3  -1  -7 164146. 5910.35   1
   2  -3   7 191330. 6866.51   2
   1  -3   7 183275. 6961.82   1
   1   2   7 202130. 7089.29   2
  -1  -2  -7 169432. 6457.92   1
  -2   3  -7 186256. 6828.78   1
   1   2   7 187544. 6786.55   1
  -1  -2  -4 318549. 8869.29   1
   2   1   4 315754. 9212.03   1
  -2  -1  -4 344345. 9309.69   1
   2  -3   4 360795. 9552.80   2
   1  -3   4 348553. 9435.38   2
   1   2   4 345539. 9231.69   1
   1  -3   4 352016. 9499.97   1
  -2   3  -4 351163. 9239.27   1
  -1   3  -4 343508. 9223.60   1
   2  -3   4 343789. 9248.07   1
  -1  -2  -2 126090. 4488.13   1
  -3   2   2 112709. 3248.07   1
   1  -3   2 117922. 4248.48   1
   2  -3   2 146144. 4477.80   1
   2   1   2 146217. 4820.49   1
   3  -2  -2 138909. 3571.33   2
  -2  -1  -2 142171. 4801.84   1
  -3   1   2 151050. 4331.71   1
   3  -1  -2 126454. 3722.52   2
   1   2   2 129384. 4646.99   1
   3  -1  -2 140928. 4107.88   1
  -1   3  -2 122113. 4320.04   1
  -2   3  -2 117395. 4062.67   1
   2  -3   2 143411. 4774.29   2
   1  -3   2 148279. 4896.03   2
   3  -2  -2 108729. 3238.37   1
  -1  -2  -1 358142. 8774.87   1
  -2  -1  -1 345255. 8767.83   1
   3  -1   0 994.507 314.420   2
  -3   2   0 866.609 282.628   1
   2  -3   0 941.302 245.987   1
   1   2   0 899.954 377.174   1
  -3   1   0 986.480 236.560   1
  -1   3   0 256.067 184.216   1
   3  -2   0 870.221 253.602   2
   3  -1   0 1207.78 330.202   1
   3  -2   0 855.408 270.404   1
   1  -3   0 799.332 279.245   1
   1  -3   0 773.432 303.966   2
   2  -3   0 1663.51 323.474   2
  -2   3   0 927.556 250.140   1
  -1  -2   0 568.972 303.607   1
   2   1   0 605.084 257.290   1
  -2  -1   0 223.309 151.991   1
   1   2  -1 245656. 6789.54   1
  -1   3   1 223302. 5723.31   1
  -3   2  -1 219214. 5803.62   1
   1  -3  -1 247879. 6898.47   2
   3  -2   1 189078. 5631.54   1
  -2  -1   1 225316. 6485.72   1
  -1  -2   1 211443. 6474.10   1
   2  -3  -1 244263. 6285.95   2
   3  -1   1 231793. 6263.08   1
   3  -2   1 177163. 5817.56   2
   2   1  -1 236220. 6554.07   1
   3  -1   3 42726.9 2556.78   1
   3  -1   3 55268.4 2857.54   2
  -1   3   3 57236.5 2371.67   1
   2  -3  -3 48559.0 1585.82   1
   1  -3  -3 62003.0 2363.76   1
  -3   1  -3 48840.4 2681.87   1
  -1  -2   3 60774.3 3095.18   2
  -1  -2   3 56904.4 2938.29   1
   2   1  -3 50618.4 2817.96   1
   1   2  -3 58510.1 2955.43   1
  -3   2  -3 52615.5 2712.79   1
   3  -2   3 56325.1 2938.35   2
  -2  -1   3 59324.2 2982.75   1
   3  -2   3 52434.4 2678.13   1
  -2   3   3 47952.5 1641.39   1
   3  -1   5 312987. 9030.39   1
   2   1  -5 290455. 8564.59   1
  -3   1  -5 296623. 8805.23   1
   3  -2   5 349915. 9236.99   1
  -1   3   5 312343. 8050.90   1
   1   2  -5 308501. 8936.68   1
   3  -1   5 326179. 9195.68   2
  -1  -2   5 304150. 8833.87   1
  -1  -2   5 310536. 8662.10   2
   3  -2   5 333290. 9176.21   2
  -3   2  -5 313781. 8855.58   1
  -2  -1   5 368773. 9270.23   1
  -2  -1   8 27099.5 2361.89   1
   1   2  -8 22432.2 2178.93   1
  -2   3   8 30393.2 2178.04   1
  -3   1  -8 24827.0 2360.68   1
  -3   2  -8 29267.8 2574.76   1
   1  -3  -8 24000.0 2064.27   1
   3  -1   8 26701.2 2430.83   2
  -1  -2   8 26907.6 2223.47   2
   3  -2   8 26363.1 2420.10   2
   2   1  -8 24164.7 2275.12   1
  -2   3   8 14111.6 1353.66   2
   3  -1   8 25370.1 2508.08   1
  -1   3   8 26955.7 2167.34   1
  -2  -1   8 20172.8 1882.90   2
  -1   3   8 23210.4 2045.46   2
  -1  -2   8 25917.0 2459.09   1
   2  -3  -8 21309.8 1784.31   1
   3  -2   8 26113.0 2471.39   1
  -2  -1   9 471953. 11755.3   2
   3  -2   9 446014. 12859.6   2
   2   1  -9 451884. 12632.1   1
   3  -2   9 421159. 12937.4   1
  -3   2  -9 425079. 12709.5   1
   3  -1   9 409843. 12671.1   2
  -3   1  -9 429203. 12700.0   1
   1   2  -9 512393. 13243.0   1
  -2   3   9 503188. 12218.0   1
  -1  -2   9 362597. 12420.1   1
   2  -3  -9 389507. 11284.5   1
   3  -1   9 437847. 12990.5   1
  -1  -2   9 357268. 11607.6   2
  -1   3   9 486417. 12354.4   1
  -2   3  10 126980. 5025.81   2
  -2  -1  10 161757. 7191.51   1
   1  -3 -10 167778. 6445.19   1
  -2   3  10 174867. 6533.30   1
  -1   3  10 199206. 7086.44   1
  -1   3  10 122175. 5538.70   2
  -3   1 -10 169992. 7038.32   1
   2  -3 -10 138267. 5905.49   1
   1   2 -10 201836. 7532.76   1
   3  -2  10 178419. 7524.60   1
   3  -2  10 186462. 7415.22   2
   2   1 -10 134568. 6294.21   1
  -2  -1  10 167243. 6212.18   2
  -3   2 -10 162222. 6968.46   1
   3  -1  10 195532. 7498.17   2
  -1  -2  10 168084. 7342.64   1
  -1  -2  10 159525. 6419.15   2
   3  -1  10 175814. 7307.62   1
  -2  -1  11 27024.7 2490.38   2
  -3   2 -11 26167.6 2704.32   1
  -3   1 -11 28054.7 2808.22   1
  -1   3  11 27255.3 2634.95   1
   3  -1  11 26276.3 2758.76   1
  -2   3  11 23939.1 2359.03   1
  -1  -2  11 24197.5 2644.18   1
   2   1 -11 32712.0 2905.18   1
  -2  -1  11 30032.3 2973.41   1
   3  -1  11 27192.9 2745.96   2
   3  -2  11 26471.8 2753.00   2
   3  -2  11 29569.1 2945.76   1
  -1  -2  11 25219.2 2543.89   2
   2  -3 -11 36992.1 2798.42   1
  -2   3  11 31518.6 2360.80   2
   1  -3 -11 30368.5 2662.18   1
   1   2 -11 24066.9 2611.57   1
  -1   3  11 26542.9 2250.91   2
   2  -3 -12 2372.77 737.990   1
  -2   3  12 2332.20 738.144   1
  -2  -1  12 3209.25 839.598   2
  -1   3  12 1995.02 693.484   1
  -1  -2  12 3941.99 933.493   2
   3  -2  12 3404.28 1020.22   1
   1   2 -12 3426.20 952.431   1
   3  -2  12 3169.67 944.024   2
  -3   1 -12 2841.95 863.950   1
   2   1 -12 2852.72 960.775   1
  -3   2 -12 2217.45 852.866   1
   1  -3 -12 3249.41 948.588   1
   3  -1  12 3389.24 946.590   1
   3  -1  12 3820.41 1163.00   2
  -1   3  12 2924.04 730.312   2
  -2  -1  12 2783.25 1081.88   1
  -1  -2  12 2271.15 868.955   1
  -3   1 -13 16088.0 2208.91   1
   1  -3 -13 21789.8 2467.65   1
   3  -1  13 17432.0 2311.94   2
  -3   2 -13 16433.8 2310.34   1
  -1  -2  13 17617.3 2158.61   2
  -2   3  13 17331.2 2171.56   1
  -2  -1  13 21492.4 2620.91   1
   3  -2  13 15608.8 2242.05   2
   2   1 -13 14957.3 2143.85   1
  -1   3  13 17816.9 2211.49   1
   1   2 -13 16128.6 2152.63   1
   3  -2  13 17424.5 2324.86   1
   3  -1  13 17335.3 2423.39   1
   2  -3 -13 19637.5 2310.79   1
  -1  -2  13 16329.1 2379.40   1
   2  -3 -14 108307. 5864.38   1
  -3   1 -14 97423.0 5919.31   1
   1   2 -14 78192.8 5215.40   1
   1  -3 -14 94445.2 5707.63   1
   3  -2  14 102864. 5960.42   2
  -3   2 -14 107258. 6206.68   1
  -2   3  14 94254.5 5703.60   1
   3  -1  14 104516. 6266.01   1
   2   1 -14 96074.5 5743.12   1
   3  -2  14 97353.7 6071.20   1
  -1   3  14 99981.3 5898.69   1
  -1  -2  14 90342.8 5929.66   1
   3  -1  14 111317. 6213.81   2
  -1  -2  14 93870.5 5744.86   2
  -2  -1  14 99147.7 6089.46   1
  -3   1 -15 28518.2 3182.25   1
   3  -1  15 25841.5 3161.74   1
  -3   2 -15 27233.5 3139.28   1
   3  -1  15 28311.1 3254.81   2
   3  -2  15 26496.4 3080.98   1
   1   2 -15 28406.0 3086.90   1
   1  -3 -15 34994.0 3372.28   1
  -2  -1  15 25368.7 3124.65   1
   2   1 -15 28370.9 3089.86   1
  -2   3  15 30015.2 3257.53   1
   2  -3 -15 33310.6 3330.90   1
  -1   3  15 30970.1 3311.17   1
  -1  -2  15 31520.3 3425.47   1
   3  -2  15 28065.4 3126.61   2
  -1   3  16 71677.3 5295.08   1
  -3   2 -16 77262.7 5479.07   1
  -3   1 -16 61642.0 4983.53   1
  -2   3  16 76266.4 5411.34   1
   1  -3 -16 75312.6 5350.25   1
   3  -1  16 71499.4 5375.48   2
   3  -2  16 63994.8 5064.86   1
  -1  -2  16 65277.9 5213.60   1
   1   2 -16 64473.0 4966.44   1
   3  -2  16 67127.8 5132.33   2
   3  -1  16 73535.9 5376.14   1
   2   1 -16 66074.9 4953.50   1
  -2  -1  16 63646.1 5173.42   1
   1   2 -17 11229.7 2055.84   1
  -1   3  17 15032.8 2369.97   1
   2   1 -17 12080.2 2201.84   1
   3  -1  17 11639.6 2201.99   1
   3  -1  17 10838.5 2185.99   2
  -2  -1  17 13636.7 2344.36   1
   1  -3 -17 21341.1 2829.81   1
   3  -2  17 14172.6 2298.59   2
  -3   1 -17 13585.5 2240.61   1
  -3   2 -17 16959.4 2586.28   1
  -1  -2  17 15601.4 2536.35   1
   3  -2  17 14089.2 2461.34   1
   1   2 -18 123064. 7250.28   1
   2   1 -18 132397. 7702.88   1
   3  -1  18 111085. 7145.89   2
  -3   1 -18 136208. 7758.16   1
   3  -2  18 129456. 7809.37   2
   3  -2  18 128466. 7534.73   1
  -2  -1  18 121288. 7720.59   1
  -1  -2  18 131283. 8029.63   1
  -3   2 -18 131630. 7562.91   1
   3  -1  18 144933. 7986.56   1
   1   2 -19 19258.2 2833.34   1
  -3   1 -19 19227.0 2851.14   1
  -3   2 -19 26119.0 3167.68   1
   3  -1  19 18431.9 2905.03   2
   3  -2  19 14232.5 2577.87   2
   3  -2  19 18326.6 2828.80   1
   3  -1  19 21881.6 3074.27   1
  -1  -2  19 19766.6 3058.30   1
   2   1 -19 17409.2 2660.79   1
   3  -1  20 199.022 398.446   1
   2   1 -20 1524.92 896.242   1
  -2  -1  20 739.234 648.765   1
  -3   2 -20 1580.49 932.411   1
   3  -2  20 111.605 416.384   1
   1   2 -20 1707.29 865.650   1
  -1  -2  20 2105.09 1136.89   1
  -3   1 -20 1046.32 534.764   1
  -3   2 -21 21277.8 2974.86   1
  -3   1 -21 22342.7 3165.80   1
  -2  -1  21 18943.6 2932.49   1
   1   2 -21 18332.6 2763.39   1
   2   1 -21 18213.0 2822.81   1
   3  -2  21 19764.1 3057.61   1
   3  -1  21 17422.3 2867.82   1
  -1  -2  21 15691.9 2829.20   1
   3   0   1 47.1351 314.975   2
   0   3   1 117.534 292.878   1
   3  -3  -1 596.629 144.995   1
  -3   0   1-94.8239 169.806   1
  -3   0  -1 813.051 191.721   1
   3   0   1 710.843 378.503   1
  -3   3   1 448.306 124.625   1
  -3   3  -1 590.387 273.419   1
   3   0  -1 495.152 294.719   1
   0   3  -1 608.469 227.451   1
   3  -3   1 517.895 329.811   2
   3  -3  -1 592.660 222.055   2
   3  -3   1 323.908 286.156   1
   0  -3   1 115.261 332.383   2
   0  -3   1 264.658 245.862   1
   0  -3  -1 282.621 121.265   1
   3  -3  -2 33841.7 1711.75   2
   3  -3   2 37217.7 2324.96   2
   0  -3   2 41557.8 2544.40   2
   3  -3   2 28654.5 1849.62   1
   0   3   2 29490.7 1970.67   1
   3   0   2 39729.7 2347.02   1
  -3   3  -2 40915.2 2121.30   1
  -3   0   2 30746.9 2060.22   1
   0  -3  -2 34790.6 2105.80   1
   3   0  -2 32410.9 2078.96   1
   0   3  -2 29674.2 2142.50   1
   3   0   2 44556.5 2589.57   2
   0  -3   2 31532.6 2128.96   1
  -3   0  -2 31977.1 2158.17   1
   3   0   3 30652.3 2228.42   1
  -3   0  -3 25045.3 1999.27   1
   3  -3   3 27889.1 1942.52   1
  -3   0   3 25874.7 1918.35   1
   0   3   3 30307.8 2017.56   1
   3  -3  -3 26246.7 1445.40   2
  -3   3  -3 26957.1 1879.49   1
   0  -3   3 26751.8 2023.09   1
   0   3  -3 23214.7 1902.62   1
   0  -3  -3 32204.3 2019.25   1
   0  -3   3 24675.4 2067.05   2
   3   0   3 31562.2 2231.87   2
   3   0  -3 31386.9 2052.55   1
   3  -3   3 25517.4 2005.99   2
   0   3  -5 17261.4 1835.94   1
   0   3   5 19973.0 1674.26   1
   3   0   5 20198.4 1879.20   2
   3  -3   5 17695.1 1811.86   2
  -3   3   5 22628.2 1156.46   1
   0  -3   5 19496.5 1920.55   1
   3   0   5 17371.4 1878.98   1
  -3   0  -5 17265.4 1776.90   1
   3   0  -5 19580.1 1758.05   1
  -3   0   5 15341.7 1634.86   1
   3  -3  -5 20734.0 1059.40   1
   3  -3   5 18464.7 1808.26   1
   0  -3   5 21709.6 1944.74   2
   0  -3  -5 17949.9 1560.56   1
  -3   3  -5 19459.6 1803.87   1
   3  -3   6 15343.7 1781.21   2
   3   0   6 15337.5 1774.61   1
   0   3   6 16921.3 1605.51   1
  -3   0  -6 16255.5 1825.83   1
   0   3  -6 13582.5 1616.52   1
   0  -3  -6 17442.9 1610.61   1
   3   0   6 13530.8 1651.10   2
  -3   3  -6 15249.7 1654.56   1
  -3   0   6 16471.0 1718.34   1
   3   0  -6 15624.8 1580.24   1
   0  -3   6 15374.1 1775.49   1
  -3   3   6 14767.0 1139.26   1
   0  -3   6 12690.7 1619.78   2
   3  -3  -6 15623.7 1087.93   1
   3  -3   6 17412.6 1759.47   1
   3  -3   7 7905.74 1246.07   2
   3  -3  -7 9282.41 971.308   1
   3  -3   7 10790.1 1489.25   1
   3   0  -7 11012.6 1408.71   1
  -3   3   7 9217.75 998.171   1
   0  -3  -7 9785.53 1293.56   1
  -3   3  -7 8463.97 1270.47   1
   3   0   7 9607.16 1483.38   1
   0   3   7 8844.41 1301.39   1
   0  -3   7 13627.0 1751.53   1
   0  -3   7 9232.26 1279.85   2
   0   3  -7 9936.15 1507.75   1
  -3   0  -7 8028.37 1292.47   1
  -3   0   7 8731.07 1278.97   1
   3   0   7 10997.7 1494.07   2
  -3   0   8 838659. 20136.1   1
   0  -3  -9 10057.0 1460.84   1
   0  -3   9 14614.5 1915.36   1
  -3   0   9 16368.7 1931.88   1
   0   3  -9 14295.4 1769.62   1
   3  -3   9 19678.0 2117.62   2
   0  -3   9 13733.9 1731.65   2
  -3   0  -9 17468.6 2121.27   1
   3   0   9 18153.3 2183.07   1
   0   3   9 16218.6 1956.11   1
   0   3   9 16955.2 2129.95   2
   3   0   9 18614.9 2128.52   2
  -3   3   9 19436.1 1814.60   1
   3  -3  -9 15683.9 1552.10   1
  -3   3  -9 15288.5 2028.48   1
   3   0  -9 22238.6 2096.18   1
   3  -3   9 16607.1 2066.24   1
   0   3 -10 59.6699 647.430   1
   3  -3  10-167.325 308.536   1
  -3   0  10 288.314 562.541   1
  -3   3  10-152.508 274.490   1
  -3   0  10 236.303 262.026   2
   3   0  10 295.249 369.925   1
   3  -3 -10 61.7186 197.343   1
   0  -3  10-349.047 486.476   2
   3   0 -10 185.103 375.172   1
   3  -3  10 224.730 416.152   2
  -3   0 -10 513.068 471.279   1
   0  -3 -10-23.6024 164.807   1
   3   0  10 212.094 298.983   2
  -3   3 -10 203.760 442.314   1
   0  -3  10 1014.69 725.626   1
   0   3  10 669.967 536.886   2
   0   3  10 517.040 617.870   1
   0  -3  11-152.549 607.084   1
   3   0  11 942.826 498.056   1
  -3   0  11 254.176 338.032   1
  -3   3 -11 403.648 619.082   1
   0   3  11 347.768 665.301   2
  -3   0 -11-357.736 611.652   1
   0  -3  11 323.738 530.716   2
   3  -3 -11 3.33265 309.126   1
   3   0  11 388.978 530.353   2
  -3   3  11 575.869 372.911   1
   0  -3 -11 380.864 316.931   1
   0   3  11 684.141 676.775   1
   3  -3  11 438.292 691.681   1
   3  -3  11 803.656 387.716   2
   3   0 -11-2.12924 210.369   1
   0   3 -11-29.9289 257.056   1
   0   3  12 327213. 10877.4   2
  -3   3 -12 314443. 11538.0   1
   3  -3 -12 367385. 10836.4   1
   3  -3  12 354654. 11879.3   2
  -3   0  12 348226. 11621.3   1
   0   3 -12 354878. 11855.7   1
   0  -3  12 334075. 12027.4   1
   0   3  12 301143. 11126.9   1
  -3   3  12 340003. 11133.7   1
   3   0  12 333672. 11753.8   2
   0  -3  12 398544. 12196.4   2
   3  -3  12 328860. 11886.1   1
   0  -3 -12 358756. 11323.5   1
   3   0  12 344792. 11835.1   1
  -3   0 -12 317346. 11260.7   1
   3   0 -12 338487. 11379.1   1
   0  -3 -13 1005.16 522.001   1
   3   0  13 484.584 474.901   1
  -3   3  13 992.335 455.322   1
   0  -3  13 602.187 633.458   1
   0  -3  13 1127.89 532.141   2
   0   3 -13 1142.33 591.702   1
   0   3  13 384.528 514.008   1
  -3   3 -13 1288.23 739.999   1
   3  -3  13 1279.37 818.099   2
   3  -3 -13 290.157 234.590   1
   3  -3  13 1632.96 857.670   1
   3   0  13 970.962 576.576   2
   0   3  13 1208.29 885.519   2
  -3   0  13 1984.91 926.704   1
   3   0 -13 919.394 591.368   1
  -3   0 -13-117.988 712.353   1
  -3   0 -14 692.669 549.423   1
  -3   3  14 1526.91 793.678   1
   3  -3  14 501.034 923.856   1
   0   3 -14 331.201 283.725   1
  -3   3 -14 255.161 536.956   1
   3   0 -14 1148.33 671.571   1
   0   3  14 817.673 682.301   1
   0  -3  14 213.720 446.122   2
   3  -3  14 1332.67 905.356   2
   0  -3  14 1157.58 642.063   1
   0   3  14-287.983 498.764   2
   0  -3 -14-16.9554 363.508   1
   3   0  14 898.036 750.193   2
   3   0  14 327.154 390.548   1
  -3   0  14 176.629 323.457   1
   0  -3 -15 648.534 509.976   1
  -3   3 -15 1196.26 764.139   1
   3  -3  15 558.763 421.615   1
   3  -3  15-348.084 624.436   2
  -3   0  15 516.373 540.064   1
   0   3 -15 728.226 478.454   1
   3   0  15-59.1555 502.086   1
   0   3  15 397.444 273.452   1
   3   0 -15 222.221 334.273   1
   3   0  15 1503.83 813.060   2
  -3   0 -15 1381.88 834.033   1
   0  -3  15 318.957 271.331   2
   0  -3  15 860.754 300.811   1
   0   3  16 171006. 8697.05   1
  -3   0 -16 171542. 8364.58   1
  -3   3 -16 172283. 8519.14   1
   0  -3  16 172237. 8787.83   1
   0  -3 -16 176254. 8603.15   1
   3   0  16 168997. 8703.05   1
   0   3 -16 148607. 7823.61   1
   3  -3  16 174553. 8674.69   2
  -3   0  16 186689. 8767.05   1
   3   0  16 171115. 8715.40   2
   3  -3  16 172311. 8645.05   1
   0  -3  16 176965. 8687.03   2
   3  -3  17-84.4167 423.448   2
   3  -3  17-360.327 239.358   1
   0   3 -17 1986.96 953.945   1
  -3   3 -17-314.351 574.904   1
   0  -3 -17 1123.16 734.875   1
   0  -3  17-232.518 647.273   1
  -3   0  17 273.029 264.430   1
  -3   0 -17 328.345 417.581   1
   0   3  17 153.268 451.668   1
   3   0 -17 1334.22 841.294   1
   3   0  17 704.493 516.738   2
   3   0  17 1051.91 821.751   1
   3  -3  18 87.1119 679.447   1
  -3   0  18 1387.89 854.417   1
   3   0  18 441.078 583.348   2
  -3   0 -18-36.9091 263.491   1
   0  -3 -18 369.775 259.012   1
   0   3  18 271.526 416.083   1
   0  -3  18 803.991 414.419   1
   3   0  18 964.454 637.537   1
   0   3 -18 681.737 569.009   1
   3  -3  18 358.715 293.207   2
   3   0 -18 1096.14 638.527   1
  -3   3 -18 3.35729 427.131   1
   3   0 -19 274.129 555.565   1
  -3   0 -19 371.572 610.325   1
  -3   0  19-769.257 867.715   1
   0   3 -19 928.748 699.787   1
   3   0  19-763.834 834.789   1
   0  -3  19-1113.85 893.235   1
  -3   3 -19 550.677 617.984   1
   0   3  19 184.102 171.028   1
   3  -3  19-592.855 647.455   1
   3  -3  19 421.241 634.919   2
   0  -3  20 61805.5 5530.63   1
   3  -3  20 67856.2 5735.59   1
  -3   0  20 59757.6 5294.71   1
  -3   3 -20 61093.9 5193.91   1
   0   3 -20 59291.2 5101.77   1
  -3   0 -20 65087.1 5507.56   1
   3   0  20 67931.7 5634.79   1
  -3   0 -21 1136.47 720.316   1
   3   0  21 7.94313 494.834   1
  -2  -2 -21 844.001 787.218   1
   2   2  21-454.448 511.858   1
   2   2  20 54577.5 5188.81   1
  -2   4 -20 67554.4 5306.44   1
  -2  -2 -20 57325.1 5173.31   1
   2  -4  20 58364.9 5190.05   1
  -2  -2 -19 426.087 456.549   1
   2   2  19 77.9420 398.515   1
   2  -4  19 1199.26 764.810   1
  -2   4 -19-120.377 446.763   1
   2  -4  18 9985.14 2127.79   1
  -2  -2 -18 7786.61 1800.13   1
   2   2  18 7168.24 1773.00   1
   2  -4  18 7884.35 1882.91   2
  -2   4 -18 10019.4 1913.46   1
   2   2  17-394.420 711.832   1
  -2  -2 -17-419.803 571.389   1
   2   2  17-251.941 401.400   2
   2  -4  17-76.6016 462.802   2
  -2   4 -17 658.819 689.557   1
   2  -4  17 638.428 282.388   1
   2  -4  16 156874. 8406.57   2
   2  -4  16 190062. 9160.09   1
   2   2  16 181685. 8941.02   1
   2   2  16 175888. 8850.75   2
  -2  -2 -16 172679. 8587.58   1
  -2   4 -16 195944. 8844.61   1
   2   2  15-157.290 296.789   2
   2  -4  15 119.108 325.806   1
   2   2  15-298.155 638.997   1
  -2   4 -15-648.483 518.771   1
   2  -4  15-887.380 680.533   2
  -2  -2 -15 409.406 410.144   1
   2  -4  14 80299.0 5356.56   2
  -2  -2 -14 68076.1 4828.47   1
   4  -2 -14 72318.9 4817.32   1
   2   2  14 68456.8 5079.50   1
   2   2  14 64130.3 4943.27   2
   2  -4  14 76533.7 5399.46   1
  -2   4 -14 79649.5 5184.66   1
   4  -2 -13-607.900 526.209   1
   2  -4  13-351.492 230.695   1
  -2   4 -13 193.806 418.629   1
   2   2  13-78.8112 603.253   1
  -4   2  13-26.3523 364.189   1
   2   2  13 217.934 749.647   2
   2  -4  13 551.293 453.238   2
  -2  -2 -13-780.134 569.801   1
  -4   2  12 113602. 5655.32   1
  -2  -2 -12 102858. 5805.32   1
   2   2  12 102945. 5835.80   2
   4  -2 -12 122494. 5820.65   1
  -2   4 -12 110510. 5907.99   1
   2   2  12 105201. 6007.77   1
   2  -4  12 104981. 6001.71   1
   2  -4  12 90149.3 5571.38   2
   2  -4  11-895.315 862.455   1
   2  -4  11 839.922 711.632   2
  -4   2  11-131.143 415.392   1
   4  -2 -11-76.8010 283.475   1
   2   2  11-394.813 384.107   1
  -2   4 -11 271.468 256.949   1
   2   2  11-466.973 328.139   2
  -2  -2 -11 496.166 518.123   1
   2  -4  10 211102. 8592.23   1
   2   2  10 196661. 8230.38   1
   2  -4  10 197242. 8135.55   2
  -2  -2 -10 210800. 8232.45   1
   2   2  10 208553. 8209.96   2
  -4   2  10 192169. 7306.28   1
  -2   4 -10 188630. 7942.11   1
   2   2   9 936.280 633.161   2
   2   2   9 140.437 317.864   1
  -2  -2  -9 26.0206 252.778   1
   4  -2  -9 273.609 232.252   1
  -2   4  -9 35.8921 321.226   1
  -4   2   9 88.6754 233.815   1
   2  -4   9-907.249 530.406   2
   2  -4   9 829.793 789.844   1
  -2  -2  -7 523.881 474.117   1
   4  -2  -7 278.843 243.968   1
  -2   4  -7-733.439 528.426   1
   2   2   7 278.756 271.165   2
   2   2   7 39.7753 280.994   1
   2  -4   7 275.285 465.360   1
   2  -4   7 580.568 622.500   2
  -4   2   7 3.78281 208.101   1
  -2   4  -6-303.732 222.617   1
   2  -4   6 483.459 463.482   1
   2   2   6 393.395 299.452   1
   4  -2  -6 225.956 128.169   1
  -4   2   6-5.40619 176.348   1
   2  -4   6 504.348 317.796   2
   2   2   5 216.417 487.730   1
   2  -4   5-400.367 371.028   2
  -2  -2  -5-206.253 330.326   1
   4  -2  -5 77.6944 140.198   1
  -4   2   5-183.501 263.661   1
   2  -4   5 16.1769 330.360   1
  -2   4  -5-284.115 271.732   1
   2   2   3-170.265 361.048   1
  -2   4  -3-62.2328 310.297   1
   4  -2  -3 85.4757 86.0634   2
  -4   2   3 272.545 157.662   1
   4  -2  -3 83.1381 98.0394   1
   2  -4   3 240.042 152.428   1
   2  -4   3 1096.32 414.650   2
  -2  -2  -3 830.301 555.145   1
   2   2   1 490.575 410.041   1
  -2  -2  -1 48.4047 201.011   1
  -2   4  -1 3.33294 128.129   1
  -4   2   1 350.722 265.378   1
   4  -2  -1 189.984 108.411   1
   4  -2  -1 40.1909 135.659   2
   2  -4   1 142.533 184.317   1
   2  -4   1 551.078 390.203   2
  -2   4   1 100.973 104.939   1
  -4   2  -1-287.274 337.698   1
   4  -2   1 530.636 361.124   1
   2  -4  -1 267.925 161.729   1
   2   2  -1 79.4138 266.264   1
  -2  -2   1 112.718 241.456   1
   2  -4  -1 305.349 290.763   2
   4  -2   1 68.7354 153.454   2
   4  -2   3-571.318 360.371   2
   4  -2   3-5.76020 381.214   1
   2  -4  -3 41.9718 129.331   1
  -2   4   3 207.149 136.398   1
  -4   2  -3 457.910 391.653   1
  -2  -2   3-777.864 449.984   1
   2   2  -3-317.141 347.995   1
   2  -4  -5 117.510 122.778   1
   4  -2   5-465.294 385.332   1
   2   2  -5 205.922 490.193   1
  -2  -2   5-145.566 244.533   1
  -2   4   5 50.3337 119.027   1
   4  -2   5 269.597 269.012   2
  -4   2  -5 248.135 343.171   1
   4  -2   6 5634.49 1118.62   2
   2  -4  -6 2937.02 575.857   1
  -2   4   6 5501.58 783.369   1
   4  -2   6 4813.68 1004.09   1
   2   2  -6 4675.38 981.831   1
  -2  -2   6 3224.14 768.253   1
  -4   2  -6 5635.48 1114.19   1
  -4   2  -7 274.287 341.098   1
  -2  -2   7 327.156 188.404   1
  -2   4   7-36.6773 196.231   1
   2   2  -7 1047.41 362.491   1
   4  -2   7-19.2924 286.733   2
   2  -4  -7-211.020 216.217   1
  -2  -2   7 293.872 270.078   2
   4  -2   7 663.350 440.679   1
   2   2  -9 283.100 292.763   1
  -2   4   9 42.2977 386.775   2
   4  -2   9-205.780 495.362   1
  -2  -2   9-66.1473 431.119   1
  -2  -2   9 214.282 408.828   2
   4  -2   9-590.201 503.700   2
  -2   4   9-78.9274 281.370   1
   2  -4  -9-131.485 100.513   1
  -4   2  -9-594.942 546.685   1
  -2  -2  10 58232.1 4039.59   1
   2  -4 -10 90570.5 4201.69   1
   4  -2  10 65932.9 4293.88   2
  -2  -2  10 68976.5 3976.86   2
   4  -2  10 67548.0 4297.17   1
  -4   2 -10 70520.9 4296.50   1
  -2   4  10 76902.8 4107.46   1
   2   2 -10 50505.2 3743.07   1
  -2  -2  11-690.198 649.614   1
  -2   4  11 270.275 365.355   1
  -2   4  11-54.1893 242.059   2
   4  -2  11 1091.45 473.684   2
  -2  -2  11-205.599 539.631   2
   4  -2  11 462.112 278.096   1
   2  -4 -11-150.027 315.694   1
  -4   2 -11-6.00953 295.432   1
   2   2 -11-366.155 575.189   1
   2   2 -12 53085.8 4042.73   1
  -2  -2  12 43520.0 3722.42   1
   4  -2  12 48928.7 3976.69   1
   4  -2  12 48033.6 3961.88   2
  -2   4  12 48195.4 3575.87   1
   2  -4 -12 44782.9 3435.37   1
  -2  -2  12 47350.2 3659.14   2
  -4   2 -12 47512.5 3754.72   1
   2  -4 -13-157.601 160.782   1
  -4   2 -13-150.863 391.204   1
  -2  -2  13-1014.78 590.743   1
   4  -2  13-103.417 610.214   1
   2   2 -13-259.953 486.867   1
  -2   4  13 673.415 665.659   1
   4  -2  13 328.090 461.777   2
   4  -2  14 18320.8 2625.44   1
   2   2 -14 19954.6 2558.06   1
   4  -2  14 18636.3 2721.53   2
  -4   2 -14 17481.3 2509.66   1
  -2   4  14 18165.3 2375.62   1
  -2  -2  14 18519.4 2515.22   1
   4  -2  15 598.486 763.095   2
  -4   2 -15 116.008 407.506   1
   2   2 -15-265.671 318.091   1
  -2  -2  15 856.991 700.608   1
   4  -2  15 280.623 327.239   1
   4  -2  16 354823. 13219.1   1
  -4   2 -16 335666. 12742.5   1
  -2  -2  16 392025. 13496.5   1
   4  -2  16 306285. 12257.8   2
   2   2 -16 281030. 11872.0   1
   4  -2  17 168.423 352.016   2
  -4   2 -17 26.8285 635.444   1
   2   2 -17-43.6618 412.125   1
  -2  -2  17 198.538 652.729   1
   4  -2  17 3.46211 369.701   1
  -4   2 -18 4198.40 1186.49   1
  -2  -2  18 3645.32 1294.70   1
   2   2 -18 3292.85 1241.36   1
   4  -2  18 3106.10 1215.36   2
   4  -2  18 2901.24 1053.62   1
  -4   2 -19 408.806 436.492   1
   2   2 -19-143.792 428.034   1
   4  -2  19 40.0680 403.763   2
   4  -2  19-180.771 550.035   1
  -2  -2  19-380.980 529.437   1
   4  -2  20 35269.4 4255.49   2
   2   2 -20 42857.2 4417.56   1
   4  -2  20 41813.3 4350.25   1
  -2  -2  20 34803.0 3961.69   1
  -4   2 -20 48671.1 4593.56   1
  -2  -2  21 189.722 455.157   1
   2   2 -21 826.565 740.657   1
   1   3  20 9112.26 2072.81   1
  -3  -1 -20 12159.3 2392.99   1
  -1   4 -20 11592.8 2146.55   1
   3  -4  20 10897.9 2262.84   1
  -3   4 -20 12887.8 2311.83   1
   1  -4  20 11937.1 2291.84   1
   3   1  20 11949.7 2383.01   1
   1  -4  19 5331.53 1583.55   1
  -3   4 -19 5862.43 1548.66   1
  -1   4 -19 8469.55 1871.58   1
  -1  -3 -19 3482.42 1263.57   1
   3  -4  19 4407.97 1318.86   2
  -3  -1 -19 3070.16 1215.43   1
   1   3  19 5002.56 1465.77   1
   3   1  19 4406.75 1392.02   1
   3  -4  19 4656.51 1497.61   1
   1   3  18 67741.2 5572.59   1
  -1  -3 -18 64860.8 5385.39   1
   3   1  18 65993.2 5483.19   1
  -3  -1 -18 70745.1 5456.69   1
   3   1  18 56359.2 5325.21   2
   1  -4  18 66823.4 5532.49   1
  -1   4 -18 78441.5 5683.53   1
  -3   4 -18 63897.8 5166.87   1
   3  -4  18 60058.7 5173.95   2
   3  -4  18 65530.9 5476.10   1
   3  -4  17 3219.54 1139.74   1
   1   3  17 3839.84 1436.51   1
   3   1  17 2977.62 1174.06   1
   1  -4  17 4137.12 1344.99   2
  -1   4 -17 3519.12 918.318   1
  -3  -1 -17 1352.76 638.516   1
  -1  -3 -17 3397.76 1194.20   1
   3   1  17 2635.43 794.038   2
   1  -4  17 3093.22 1267.54   1
  -3   4 -17 4257.64 1305.07   1
   3  -4  17 3099.29 1117.26   2
   1  -4  16 1380.60 546.585   2
   3  -4  16 2855.79 1239.84   1
  -3   4 -16 2972.68 1280.82   1
   3   1  16 2098.65 923.615   2
  -4   1  16 875.942 486.381   1
   1  -4  16 1296.04 938.487   1
   3   1  16-97.9727 537.904   1
   4  -1 -16 1301.63 720.134   1
  -1  -3 -16 1584.81 873.630   1
  -1   4 -16 699.642 692.843   1
   3  -4  16 2401.97 1058.84   2
  -3  -1 -16 1197.50 590.276   1
   1   3  16 511.863 366.810   1
   3  -4  15 66233.7 5211.23   1
   3   1  15 71937.7 5214.56   1
  -3  -1 -15 63745.7 4885.62   1
   4  -1 -15 88453.2 5633.79   1
   1  -4  15 72089.7 5279.55   2
  -4   1  15 91756.8 5736.81   1
   3  -4  15 67254.1 5136.89   2
  -1   4 -15 70586.6 5141.01   1
   1   3  15 75089.5 5390.10   1
  -3   4 -15 68051.5 5102.88   1
  -1  -3 -15 79695.6 5439.77   1
   3   1  15 73553.3 5401.47   2
   1   3  15 74146.7 5315.60   2
   1  -4  15 72033.8 5415.14   1
   1   3  14 65106.6 4823.35   1
   1  -4  14 60891.4 4596.21   2
  -3   4 -14 54371.4 4379.32   1
   3   1  14 58721.4 4581.86   1
  -3  -1 -14 60670.3 4592.09   1
  -4   1  14 65451.4 4696.27   1
   4  -1 -14 79222.0 5035.79   1
   3  -4  14 57826.3 4582.26   2
  -1  -3 -14 67777.1 4667.23   1
   3   1  14 54492.7 4534.03   2
   1   3  14 51651.0 4269.97   2
   1  -4  14 50428.8 4450.87   1
  -1   4 -14 47472.6 4090.60   1
   3  -4  14 60276.4 4821.38   1
   1   3  13 200950. 8588.76   1
   3  -4  13 183714. 8623.92   1
  -1  -3 -13 190160. 8290.88   1
   1  -4  13 173571. 8041.29   2
   1   3  13 192654. 8234.66   2
  -3  -1 -13 170145. 8035.84   1
   3  -4  13 173640. 8185.71   2
   3   1  13 165270. 8113.78   1
  -3   4 -13 170787. 8111.55   1
   3   1  13 183251. 8345.90   2
  -1   4 -13 161100. 7813.04   1
   4  -1 -13 204909. 8324.03   1
  -4   1  13 182148. 8092.95   1
   1  -4  13 158722. 8183.44   1
   4  -1 -12 21319.1 2366.24   1
   1   3  12 13602.6 2094.42   1
   3  -4  12 16581.5 2291.37   1
  -3  -1 -12 14653.6 2106.73   1
   3   1  12 14570.4 2172.99   2
  -4   3  12 14882.4 2016.18   1
  -1   4 -12 13711.8 2042.83   1
   3   1  12 17012.7 2350.08   1
   1   3  12 15668.7 2083.28   2
  -3   4 -12 18041.9 2301.62   1
  -4   1  12 15301.5 2109.77   1
   1  -4  12 12605.8 2132.10   1
  -1  -3 -12 17394.8 2210.61   1
   1  -4  12 12822.7 1994.82   2
   3  -4  12 16008.5 2273.70   2
   3   1  11 17948.4 2429.24   1
   1   3  11 14349.6 2084.47   1
  -3   4 -11 15824.6 2179.79   1
   3  -4  11 17435.6 2375.71   1
  -1   4 -11 17631.2 2187.93   1
   1  -4  11 15794.3 2214.42   2
  -4   1  11 20199.4 2211.58   1
  -3  -1 -11 16257.7 2200.90   1
  -1  -3 -11 18048.5 2190.08   1
   1   3  11 16101.8 2126.32   2
   3  -4  11 15800.5 2066.27   2
   4  -1 -11 16390.0 2051.83   1
   1  -4  11 17935.3 2344.21   1
   4  -3 -11 14968.2 1761.09   1
   3   1  11 19270.0 2291.41   2
  -4   3  11 17378.6 2018.27   1
  -1  -3 -10 492117. 14851.2   1
  -3   4 -10 543431. 15647.2   1
   3  -4  10 526165. 15584.7   2
   3   1  10 547230. 15806.0   1
   1  -4  10 544205. 15604.4   2
   4  -1 -10 545893. 14833.4   1
   3   1  10 573925. 15663.9   2
  -1   4 -10 554538. 15579.4   1
   3  -4  10 479290. 15240.4   1
  -3  -1 -10 567945. 15662.1   1
   1  -4  10 572493. 16153.4   1
  -4   1  10 555540. 15173.2   1
   1   3  10 565005. 15675.5   1
   1   3  10 538978. 15357.7   2
   3  -4   9 3595.16 1120.63   1
   1  -4   9 3504.16 786.930   1
  -1   4  -9 4121.82 1078.90   1
   1  -4   9 3582.26 1014.47   2
   1   3   9 3965.95 1132.51   2
   1   3   9 3919.82 948.982   1
  -3   4  -9 3676.18 845.599   1
   3   1   9 3244.09 979.027   1
  -4   3   9 2645.85 665.380   1
   4  -3  -9 3430.56 728.060   1
   3  -4   9 3755.53 1010.84   2
   4  -1  -9 4466.38 855.912   1
   3   1   9 5960.72 1271.97   2
  -4   1   9 3496.03 850.880   1
  -1  -3  -9 3128.87 887.357   1
  -3  -1  -9 4542.00 1134.53   1
  -1   4  -8 247461. 8756.39   1
  -3   4  -8 255659. 9043.48   1
   1   3   8 260482. 9256.61   2
   3  -4   8 234931. 8865.07   1
   4  -1  -8 211370. 7740.63   1
   3   1   8 266010. 9188.82   2
   1  -4   8 212515. 8480.47   2
  -4   1   8 264089. 8511.28   1
  -3  -1  -8 274580. 9224.92   1
   3  -4   8 260112. 9193.34   2
   4  -3  -8 248970. 7221.97   1
   1   3   8 247851. 8852.69   1
  -4   3   8 276110. 7511.04   1
  -1  -3  -8 255589. 8651.24   1
   3   1   8 252180. 9092.16   1
   1  -4   8 236973. 8946.47   1
  -3  -1  -7 283700. 9499.73   1
   1  -4   7 263982. 9388.36   2
  -4   3   7 281954. 7628.72   1
   3  -4   7 272482. 9511.94   2
  -1  -3  -7 309755. 9420.52   1
   1   3   7 297120. 9429.33   1
  -4   1   7 270510. 8708.34   1
   3  -4   7 317468. 10038.4   1
   3   1   7 299127. 9758.93   1
  -1   4  -7 260360. 9230.25   1
   4  -1  -7 286000. 8854.32   1
   1  -4   7 278966. 9740.25   1
   4  -3  -7 322484. 7734.48   1
   3   1   7 332686. 10044.7   2
  -3   4  -7 297584. 9667.90   1
  -3   4  -6 444665. 12195.1   1
   1   3   6 414032. 11846.7   1
   3   1   6 447308. 12268.8   1
   4  -1  -6 321583. 10755.8   1
   3  -4   6 436914. 12291.8   1
   1  -4   6 503695. 12701.5   2
  -3  -1  -6 408417. 12057.1   1
  -4   1   6 420169. 11498.6   1
  -1  -3  -6 414480. 11739.9   1
   3   1   6 515720. 12993.8   2
  -1   4  -6 415282. 12094.6   1
   3  -4   6 460819. 12660.9   2
   1  -4   6 460366. 12741.3   1
  -1  -3  -5 382323. 9542.72   1
   1  -4   5 306389. 9374.73   2
   1   3   5 282406. 8804.81   1
   3  -4   5 305185. 9093.51   1
  -4   1   5 368122. 8979.06   1
  -3   4  -5 258819. 8556.07   1
  -3  -1  -5 278201. 8990.19   1
  -4   3   5 252109. 6585.23   1
   3   1   5 334404. 10053.7   2
   4  -1  -5 228671. 7850.78   1
   3   1   5 262535. 8865.26   1
   3  -4   5 291807. 9123.55   2
  -1   4  -5 290577. 9035.96   1
  -4   1   4 9910.04 1174.15   1
   4  -3  -4 11777.6 807.874   2
   3   1   4 10488.4 1503.02   1
   3  -4   4 12012.7 1484.97   2
   3   1   4 13647.5 1708.42   2
   3  -4   4 9871.01 1269.20   1
  -1   4  -4 11468.5 1399.36   1
  -3  -1  -4 10430.8 1381.12   1
  -4   3   4 9034.18 707.233   1
   1  -4   4 13208.6 1483.38   1
  -1  -3  -4 12552.3 1468.22   1
   1  -4   4 16610.1 1711.72   2
   1   3   4 11060.0 1433.57   1
   4  -3  -4 12412.8 758.363   1
   4  -1  -4 8301.37 896.657   2
   4  -1  -4 14464.5 1496.62   1
  -3   4  -4 10172.3 1348.67   1
  -3   4  -3 215148. 6497.79   1
   3  -4   3 213694. 7035.86   2
   4  -1  -3 217776. 6120.90   2
  -1  -3  -3 184000. 6548.43   1
   3   1   3 209021. 7089.86   1
   1   3   3 192611. 6707.07   1
   1  -4   3 223013. 7349.50   2
  -4   1   3 174825. 6176.69   1
   4  -1  -3 179454. 6047.51   1
  -3  -1  -3 194213. 6774.29   1
   4  -3  -3 229310. 5471.80   2
   1  -4   3 189236. 6572.07   1
   3  -4   3 204107. 6599.99   1
  -1   4  -3 182633. 6579.57   1
   4  -3  -1 634505. 14236.4   2
   4  -1   0 61376.9 3036.18   1
  -1  -3   0 58463.4 3214.85   1
  -4   3   0 55808.5 2459.01   1
   3  -4   0 68364.9 3228.15   2
   1  -4   0 73124.5 3824.76   2
   4  -3   0 62203.6 2951.58   2
   1  -4   0 56444.1 2859.86   1
  -1   4   0 74017.9 3286.40   1
   3  -4   0 58337.3 2313.28   1
   3   1   0 69035.5 3388.80   1
  -4   1   0 58280.4 3068.62   1
  -3  -1   0 57527.6 3211.68   1
   4  -1   0 62464.4 3052.91   2
  -3   4   0 60083.7 2382.77   1
   1   3   0 60981.3 3202.27   1
  -1  -3   1 446586. 12090.1   1
   1   3  -1 447526. 12163.8   1
   3  -4  -3 74393.7 3207.78   2
   3   1  -3 62133.4 3400.74   1
   1  -4  -3 59061.9 2814.75   1
  -4   1  -3 44792.8 2971.45   1
   4  -3   3 74475.2 3716.22   2
   4  -1   3 59051.1 3225.19   1
  -4   3  -3 53168.4 2975.03   1
   4  -3   3 67538.5 3283.60   1
  -1   4   3 50886.6 2705.74   1
   4  -1   3 63610.7 3372.83   2
  -1  -3   3 54278.4 3302.14   1
  -3  -1   3 55895.1 3239.52   1
   1   3  -3 60008.2 3450.85   1
  -3  -1   4 325150. 9685.17   1
   4  -1   4 351673. 9876.08   1
   1   3  -4 311670. 9710.65   1
   4  -3   4 303729. 9249.84   1
  -1  -3   4 316467. 9782.15   1
   4  -3   4 324934. 9782.36   2
   3   1  -4 329563. 9756.86   1
  -4   1  -4 338732. 9819.90   1
   4  -1   4 344651. 9910.94   2
  -1  -3   4 367417. 10487.7   2
  -4   3  -4 323442. 9357.98   1
  -1   4   4 289318. 8594.47   1
   4  -1   5 34665.0 2691.04   1
  -3   4   5 25082.6 1160.69   1
  -3  -1   5 33790.8 2585.10   1
   1   3  -5 31872.6 2442.74   1
  -4   3  -5 28680.7 2295.19   1
  -1   4   5 32178.7 2140.50   1
   4  -3   5 34281.2 2584.03   2
  -1  -3   5 27637.4 2461.91   2
  -1  -3   5 34013.5 2564.25   1
   1  -4  -5 33535.9 2133.63   1
   4  -1   5 33158.0 2512.40   2
   4  -3   5 22262.2 2105.52   1
  -4   1  -5 28608.5 2454.20   1
   3  -4  -5 27271.4 1153.32   1
   3   1  -5 20997.5 2092.77   1
   1   3  -6 826199. 20028.4   1
   4  -3   7 219652. 8003.99   1
   4  -1   7 205311. 7842.81   2
  -3   4   7 184524. 5643.08   1
   4  -1   7 210647. 7870.14   1
  -4   1  -7 230311. 8044.02   1
  -4   3  -7 205051. 7624.31   1
   1   3  -7 193884. 7496.81   1
   3   1  -7 199276. 7389.42   1
  -3  -1   7 197935. 7551.77   1
   1  -4  -7 226376. 7043.21   1
  -1  -3   7 196462. 7574.93   1
   4  -3   7 206419. 7812.90   2
   3  -4  -7 183615. 5544.47   1
  -1  -3   7 217160. 7667.22   2
  -1   4   7 241589. 7426.11   1
  -3   4   8 25914.3 1801.70   1
  -1  -3   8 18192.9 2080.85   2
   3  -4  -8 21505.6 1654.63   1
  -4   3  -8 25361.5 2516.09   1
   4  -1   8 24941.5 2515.87   1
  -1   4   8 20410.1 1977.30   1
  -4   1  -8 24371.3 2436.29   1
   1  -4  -8 27181.4 2230.19   1
  -3  -1   8 27266.9 2544.17   1
   4  -1   8 27254.1 2581.90   2
   3   1  -8 21379.9 2142.39   1
   4  -3   8 25020.6 2548.86   2
  -1  -3   8 22510.4 2379.30   1
   4  -3   8 25868.7 2537.26   1
   1   3  -8 21916.4 2336.46   1
  -1   4   9 314345. 9112.15   1
  -3  -1   9 351985. 10141.3   1
   4  -1   9 340729. 10296.5   1
  -1  -3   9 285080. 9381.24   1
   3  -4  -9 334180. 8000.56   1
   4  -3   9 327742. 10203.2   1
   1   3  -9 384457. 10560.8   1
   3   1  -9 309371. 9375.51   1
  -1  -3   9 364870. 10135.6   2
   1  -4  -9 329451. 8978.09   1
   4  -1   9 324864. 9892.19   2
  -4   3  -9 312970. 9836.26   1
   4  -3   9 334231. 10271.0   2
  -4   1  -9 352662. 10238.8   1
  -3   4   9 341450. 8247.72   1
  -1  -3  10 97759.2 5615.14   2
  -3   4  10 115513. 5052.23   1
   3  -4 -10 128509. 5040.70   1
   4  -1  10 105644. 5793.28   1
  -1   4  10 127317. 5761.91   1
   3   1 -10 111666. 5616.76   1
   1  -4 -10 108426. 5197.23   1
  -4   1 -10 111622. 5884.56   1
   4  -1  10 120182. 6111.67   2
   1   3 -10 127482. 6270.35   1
   4  -3  10 117751. 6091.10   2
  -1  -3  10 113856. 5861.49   1
  -1   4  10 76720.6 4581.91   2
  -4   3 -10 118286. 6042.20   1
   4  -3  10 106344. 5860.84   1
  -3  -1  10 109641. 5779.48   1
   4  -3  11 112534. 6090.71   1
   4  -1  11 114384. 6108.16   1
   4  -1  11 101791. 5834.45   2
  -4   1 -11 102252. 5670.12   1
  -4   3 -11 108244. 5934.49   1
   4  -3  11 110441. 5924.08   2
   3   1 -11 92005.6 5364.53   1
  -1  -3  11 90496.7 5300.01   2
  -1  -3  11 99961.8 5630.34   1
  -3  -1  11 117000. 6014.94   1
  -1   4  11 115492. 5595.81   1
   1   3 -11 116787. 6101.30   1
  -3   4  11 117211. 5277.02   1
   3  -4 -11 101651. 4822.94   1
   3   1 -12 3736.84 1165.05   1
  -1  -3  12 1995.42 777.247   2
  -3  -1  12 2984.15 969.639   1
   4  -3  12 2119.88 756.648   2
   1  -4 -12 3333.79 912.165   1
   4  -3  12 3454.93 1233.45   1
  -4   1 -12 3090.55 1098.25   1
  -4   3 -12 3017.71 913.343   1
  -1   4  12 754.415 302.983   2
  -1   4  12 3804.61 925.367   1
  -1  -3  12 1759.47 516.627   1
   1   3 -12 1616.39 793.650   1
   4  -1  12 3285.12 1114.13   2
   4  -1  12 3382.07 883.938   1
  -3  -1  13 5024.46 1485.80   1
   3   1 -13 5892.07 1304.11   1
   1   3 -13 4704.71 1345.96   1
   1  -4 -13 4836.09 1192.76   1
   4  -1  13 4363.32 1102.92   2
  -4   3 -13 4777.24 1276.86   1
   4  -3  13 3645.96 1071.30   1
  -1  -3  13 6104.88 1466.45   2
  -4   1 -13 4658.36 1061.95   1
   4  -3  13 4736.54 1302.71   2
   4  -1  13 3816.93 1028.14   1
  -1   4  13 6014.15 1235.29   1
   4  -3  14 199904. 9125.42   2
  -1   4  14 196201. 9036.07   1
  -3  -1  14 242022. 9849.27   1
  -4   3 -14 244165. 9959.60   1
   1   3 -14 232942. 9676.63   1
  -4   1 -14 206716. 9267.84   1
   3   1 -14 197399. 8935.25   1
   4  -3  14 221073. 9702.57   1
  -1  -3  14 215083. 9293.63   2
   1  -4 -14 242505. 9418.11   1
   4  -1  14 217038. 9688.07   1
   4  -1  14 209824. 9395.19   2
   4  -3  15 29884.1 3440.45   1
   4  -1  15 32857.8 3509.10   1
   4  -1  15 28193.7 3333.04   2
  -3  -1  15 28731.4 3283.12   1
   1  -4 -15 34275.3 3442.98   1
   3   1 -15 43218.4 3824.09   1
  -4   1 -15 26521.7 3057.54   1
   4  -3  15 31080.1 3392.16   2
  -1   4  15 32261.6 3370.85   1
   1   3 -15 27365.4 3155.54   1
  -4   3 -15 28863.3 3278.87   1
   4  -3  16 49553.6 4369.51   1
  -4   3 -16 52710.6 4418.66   1
  -3  -1  16 54403.9 4621.40   1
   3   1 -16 42868.4 3961.78   1
   4  -3  16 49250.5 4347.39   2
   4  -1  16 51143.4 4579.82   1
   4  -1  16 49567.6 4487.92   2
  -1  -3  16 52691.7 4532.63   1
   1   3 -16 43675.0 4104.94   1
  -4   1 -16 48145.4 4294.39   1
  -3  -1  17 47231.4 4350.16   1
   4  -1  17 43611.4 4337.34   1
  -4   1 -17 47697.6 4407.58   1
   4  -3  17 51214.9 4566.44   2
   4  -1  17 41219.4 4474.53   2
   3   1 -17 51489.8 4569.55   1
   1   3 -17 43109.4 4084.07   1
  -1  -3  17 49958.1 4430.22   1
   4  -3  17 47456.8 4389.47   1
  -4   3 -17 48550.8 4385.55   1
  -4   3 -18 55055.7 4824.94   1
   4  -1  18 46004.6 4549.55   1
   3   1 -18 49437.4 4604.55   1
   1   3 -18 56239.4 4844.81   1
   4  -1  18 43410.4 4588.61   2
  -1  -3  18 48142.3 4507.55   1
   4  -3  18 55441.4 4954.98   1
  -4   1 -18 58615.2 5003.21   1
   4  -3  18 52311.9 4889.42   2
  -3  -1  18 46651.1 4547.23   1
   4  -1  19 4913.41 1638.95   2
  -1  -3  19 6557.13 1539.68   1
   1   3 -19 7377.80 1757.15   1
   3   1 -19 3521.45 1298.17   1
   4  -3  19 6971.66 1691.88   1
  -4   3 -19 8548.69 1880.73   1
   4  -1  19 7762.81 1780.68   1
   4  -3  19 4815.24 1500.18   2
  -3  -1  19 5665.63 1476.27   1
  -4   1 -19 8123.65 1954.45   1
   4  -1  20-193.181 649.941   1
   3   1 -20 254.941 547.933   1
   1   3 -20-879.483 588.314   1
   4  -1  20-278.385 633.572   2
  -3  -1  20-710.564 578.850   1
  -4   1 -20 90.5919 584.594   1
  -4   3 -20 210.096 505.263   1
   4  -3  20 26.1473 459.874   2
   4  -3  20-422.013 620.473   1
  -1  -3  20 923.772 688.970   1
   4  -4   0 41971.0 1936.06   1
  -4   0   0 48892.3 2933.44   1
   0   4   0 53996.4 2991.42   1
   4   0   0 44040.3 2854.44   1
   4  -4   0 41886.3 2587.90   2
   0  -4   0 47368.8 2835.23   1
  -4   4   0 49746.3 2106.62   1
  -4   0  -1 447398. 11586.3   1
   0   4   1 455682. 11193.8   1
   4   0   1 487682. 12075.8   2
  -4   0   1 429206. 11396.7   1
   0  -4  -1 425059. 11160.9   1
   4  -4   1 396806. 10970.0   2
  -4   0   3 542568. 14178.5   1
  -4   0  -3 535792. 14433.4   1
   0  -4  -4 189803. 6457.14   1
   4  -4   4 194710. 6719.39   1
   4   0  -4 180903. 6609.64   1
  -4   0  -4 199372. 7145.50   1
   0  -4   4 200334. 7371.34   2
  -4   4  -4 171040. 6474.82   1
   0   4   4 185836. 6533.16   1
   4  -4  -4 197901. 5579.65   2
   4  -4   4 184745. 7066.96   2
   4   0   4 195243. 7127.53   1
   4   0   4 214663. 7328.85   2
   0   4  -4 203041. 7147.86   1
   0  -4   4 200434. 7124.71   1
  -4   0   4 163003. 6408.87   1
   4  -4   5 36786.0 2817.39   1
  -4   4  -5 47032.7 3094.25   1
  -4   0  -5 38885.7 2954.53   1
   4   0   5 45648.5 3141.22   1
   0   4   5 47702.1 2971.52   1
   4  -4   5 46968.2 3271.18   2
   0  -4   5 38944.5 3065.20   2
   4   0  -5 40495.7 2870.79   1
   0  -4   5 44518.9 3085.68   1
   0   4  -5 46728.0 3184.95   1
  -4   0   5 35323.4 2713.59   1
   4   0   5 45197.9 3143.07   2
   0  -4  -5 40203.1 2678.75   1
  -4   4   6 35874.8 1388.91   1
   4  -4   6 52381.7 3424.17   1
  -4   0   6 63469.3 3717.77   1
   0   4  -6 54895.3 3482.49   1
   4  -4   6 58252.0 3751.36   2
   4   0   6 53664.7 3608.26   1
   0   4   6 53162.7 3264.12   1
   4   0  -6 50717.8 3241.96   1
   0  -4   6 59749.2 3820.80   2
   0  -4   6 48321.8 3399.37   1
  -4   4  -6 62584.3 3783.56   1
   4   0   6 62930.3 3777.63   2
   0  -4  -6 62027.5 3424.31   1
  -4   0  -6 56910.5 3668.69   1
   0   4  -7 13897.3 1788.71   1
  -4   4  -7 14638.5 1841.94   1
  -4   0   7 15530.1 1835.02   1
   0  -4  -7 14481.8 1636.92   1
  -4   4   7 14226.2 997.238   1
   4   0  -7 18247.8 2004.73   1
   4  -4   7 19254.7 2048.30   2
   0   4   7 15566.1 1698.41   1
   4   0   7 16368.6 2072.70   2
  -4   0  -7 14759.2 1952.44   1
   0  -4   7 14016.8 1886.97   2
   4   0   7 16362.7 2049.81   1
   4  -4  -7 9956.29 839.084   1
   0  -4   7 16403.9 2043.80   1
   4  -4   7 18643.2 2107.25   1
  -4   0  -8 6443.05 1287.18   1
   4  -4  -8 4494.91 640.977   1
   0   4  -8 4785.12 1164.60   1
   4   0   8 5543.10 1129.87   1
   0  -4   8 4792.04 1118.62   1
   4  -4   8 6071.76 1321.78   1
   0  -4   8 5284.89 1201.70   2
   0   4   8 4426.13 984.508   1
   4   0  -8 4645.40 1032.89   1
   4  -4   8 6145.63 1172.59   2
  -4   0   8 4781.56 979.538   1
   4   0   8 4614.61 1203.42   2
   0  -4  -8 4614.16 971.247   1
  -4   4  -8 5145.95 1132.90   1
   4  -4   9 65803.8 4508.99   1
  -4   4  -9 71132.9 4533.66   1
   4   0   9 74117.0 4644.81   2
   0   4   9 79063.0 4488.06   1
   4  -4   9 72316.9 4667.01   2
   0  -4   9 68427.4 4424.85   2
  -4   0  -9 75136.6 4703.83   1
   0  -4   9 69668.6 4463.19   1
  -4   0   9 89061.0 4844.04   1
   0  -4  -9 74395.4 4281.13   1
   4   0   9 72272.7 4726.31   1
   0   4  -9 70847.8 4543.44   1
   4   0  -9 61283.3 3981.91   1
  -4   4   9 87322.1 3690.73   1
   4   0  10 334687. 11830.9   1
   0  -4  10 360132. 11927.0   1
   0  -4  10 344577. 11805.6   2
   0   4  10 363944. 11980.5   2
   4  -4  10 330704. 11875.5   2
   0  -4 -10 363990. 11370.7   1
   0   4  10 321033. 11246.8   1
   4   0  10 397413. 12363.1   2
  -4   0 -10 373929. 12174.4   1
  -4   0  10 345353. 11628.4   1
  -4   4 -10 379358. 12237.1   1
   0   4 -10 343032. 11835.9   1
   4  -4  10 350409. 12039.3   1
   4  -4  11 238198. 9833.39   1
  -4   0  11 271323. 10009.0   1
  -4   4 -11 248209. 9814.24   1
   0  -4 -11 281691. 9786.38   1
   0   4  11 246355. 9517.69   1
   4  -4  11 267495. 10227.7   2
   0  -4  11 247856. 9732.76   2
  -4   0 -11 253836. 9907.44   1
   4   0  11 244302. 9826.14   1
   4   0  11 264196. 10114.6   2
   0   4 -11 228926. 9423.12   1
   0   4  11 271334. 9685.06   2
   4   0 -11 287499. 9786.44   1
   4  -4  12 54583.0 4344.80   1
   0   4  12 57253.2 4205.16   1
   0   4  12 63619.5 4296.49   2
   0  -4  12 50003.4 4377.01   2
   0  -4 -12 50500.9 3996.17   1
  -4   0  12 52482.5 4119.39   1
   4   0 -12 64228.2 4415.25   1
  -4   4 -12 58645.3 4429.69   1
   4  -4  12 57131.6 4426.73   2
   4   0  12 55529.0 4278.30   1
  -4   0 -12 55959.2 4281.55   1
   4   0  12 62720.5 4492.21   2
   0  -4  12 63406.6 4790.11   1
   0   4 -12 67719.5 4715.81   1
   4  -4  13 101843. 6308.83   1
   0  -4  13 110664. 6367.52   2
  -4   4 -13 126538. 6707.15   1
   4   0  13 126873. 6707.34   1
   0   4 -13 106717. 6304.62   1
   0  -4 -13 112902. 6131.27   1
   4   0  13 124736. 6778.35   2
   0   4  13 129708. 6711.90   1
  -4   0 -13 112556. 6328.22   1
   0   4  13 100435. 5765.26   2
   4   0 -13 96977.5 5848.08   1
   4  -4  13 116669. 6618.76   2
  -4   0  13 122894. 6667.78   1
   0  -4  13 104552. 6495.39   1
   0   4  14 217616. 9347.49   2
   0  -4  14 248754. 10471.8   1
  -4   4 -14 223619. 9770.82   1
   4   0  14 231777. 9961.53   2
   4   0  14 213921. 9769.74   1
   0   4 -14 212725. 9437.00   1
   0   4  14 244405. 10004.7   1
   0  -4 -14 238356. 9616.95   1
  -4   0 -14 247791. 9774.73   1
   0  -4  14 198097. 9643.82   2
   4  -4  14 228711. 9888.62   2
   4  -4  14 229110. 9999.41   1
   4   0 -14 240708. 9863.56   1
  -4   0  14 205728. 9473.03   1
   0  -4  15 13935.7 2459.01   1
  -4   4 -15 17513.5 2585.88   1
   4  -4  15 16133.2 2416.84   2
   4  -4  15 17089.3 2587.23   1
   0  -4 -15 15983.1 2383.44   1
   4   0  15 16338.3 2507.93   1
   0  -4  15 14614.4 2375.99   2
   4   0  15 16808.0 2458.32   2
   4   0 -15 16815.2 2514.46   1
  -4   0 -15 14785.9 2265.95   1
   0   4 -15 18847.2 2620.46   1
   0   4  15 16076.5 2375.38   1
  -4   0  15 19970.6 2724.79   1
   0  -4  16 6299.68 1563.70   1
   0   4  16 6382.48 1737.41   1
   4  -4  16 5121.17 1406.15   1
   0  -4  16 6786.63 1665.31   2
   4   0  16 6815.53 1679.74   1
  -4   0 -16 7040.58 1664.01   1
   4  -4  16 5124.82 1350.61   2
   0  -4 -16 4823.16 1375.99   1
  -4   0  16 6995.29 1630.63   1
   4   0  16 3738.92 1255.79   2
  -4   4 -16 5077.44 1489.66   1
   0   4 -16 5473.06 1522.59   1
   4   0 -16 4623.56 1324.20   1
  -4   0 -17 4826.43 1417.73   1
   4   0  17 5561.39 1488.65   1
   0   4  17 6463.58 1574.34   1
  -4   0  17 5204.58 1444.06   1
   4   0 -17 4506.94 1329.16   1
   0   4 -17 4408.29 1279.35   1
  -4   4 -17 5083.29 1346.50   1
   4  -4  17 4550.81 1373.16   2
   4   0  17 3715.17 1432.85   2
   4  -4  17 4312.50 1353.48   1
   4  -4  18 10883.7 2209.88   2
   4  -4  18 16237.2 2642.70   1
  -4   0 -18 15236.4 2406.04   1
   0   4 -18 15164.6 2518.81   1
   4   0  18 12945.3 2330.25   1
   4   0  18 11250.5 2380.69   2
  -4   4 -18 15067.9 2418.34   1
  -4   0  18 12712.4 2303.88   1
   0   4 -19 11684.9 2214.73   1
   0  -4  19 9341.11 1874.21   1
  -4   0 -19 9856.51 2222.42   1
   4   0  19 6765.90 2023.50   2
  -4   4 -19 11360.4 2159.83   1
   4  -4  19 10805.9 2240.43   1
   4   0  19 14366.0 2440.47   1
   4  -4  19 8110.27 1992.06   2
   4   0  20 652.931 505.749   1
   0   4 -20 3084.29 1294.46   1
   0  -4  20 4011.94 1337.81   1
  -4   4 -20 5266.64 1496.35   1
   4  -4  20 3591.43 1353.66   1
  -4   0 -20 3113.47 1023.59   1
   4  -4  20 1124.31 506.450   2
   2   3  20 3140.79 1162.57   1
   3   2  20 2416.28 1165.15   1
  -2  -3 -20 3111.62 1210.87   1
  -3  -2 -20 3028.19 1271.65   1
   2  -5  19 12042.7 2211.65   1
   3  -5  19 16723.5 2690.41   1
   3  -5  19 9657.25 2108.74   2
   3   2  19 9920.18 2147.87   1
  -3   5 -19 11483.3 2129.74   1
   2   3  19 12328.1 2401.04   1
  -2   5 -19 12044.7 2153.08   1
  -3  -2 -19 9493.56 1886.28   1
  -2  -3 -19 9086.94 2006.22   1
  -2  -3 -18 41387.7 4181.49   1
   3  -5  18 46937.4 4673.44   2
   2  -5  18 48138.9 4641.39   2
   3   2  18 48195.6 4832.61   2
   2   3  18 55738.6 5153.53   1
   3  -5  18 53489.6 4848.67   1
   2  -5  18 61394.4 5213.03   1
  -3   5 -18 55804.8 4649.53   1
   3   2  18 53305.7 4938.01   1
  -2   5 -18 57977.3 4908.77   1
  -3  -2 -18 48807.4 4622.88   1
   2   3  17 22069.5 3136.42   1
   3   2  17 22680.0 3010.91   1
   3  -5  17 26228.8 3260.40   1
   3  -5  17 20971.9 2993.96   2
   2  -5  17 22329.9 3046.66   2
  -3  -2 -17 21531.2 2846.17   1
  -2  -3 -17 19357.4 2846.30   1
   3   2  17 20974.1 3129.56   2
  -3   5 -17 29681.5 3321.24   1
  -2   5 -17 26335.3 3239.02   1
   2  -5  17 20692.2 2977.40   1
   3  -5  16 19669.2 2910.80   1
   2   3  16 20166.6 2774.38   1
   2  -5  16 21810.4 2906.66   2
   3   2  16 19279.1 2637.06   1
   2  -5  16 21929.2 3037.37   1
  -2   5 -16 17896.5 2629.35   1
   2   3  16 18091.7 2702.51   2
  -3   5 -16 19567.3 2714.19   1
   3  -5  16 19527.0 2807.31   2
  -2  -3 -16 18036.2 2626.64   1
  -3  -2 -16 19885.3 2667.77   1
   3   2  16 18282.5 2671.33   2
  -3   5 -15 11338.9 2057.96   1
   3  -5  15 9422.69 1892.78   1
   2  -5  15 8700.12 1924.50   1
   3   2  15 11532.7 1947.58   1
   2   3  15 12566.2 2170.69   1
   3   2  15 11251.8 2152.89   2
  -3  -2 -15 9960.25 1836.08   1
  -2  -3 -15 12264.7 2095.72   1
   3  -5  15 8927.43 1803.35   2
   2   3  15 11184.7 1885.08   2
   2  -5  15 9842.68 1826.51   2
  -2   5 -15 9922.45 1852.19   1
   3   2  14 88184.2 5919.35   1
   3  -5  14 112239. 6711.24   1
  -3  -2 -14 109692. 6326.89   1
  -2  -3 -14 89978.7 5855.57   1
   2   3  14 98720.5 6245.13   1
   3   2  14 104334. 6270.59   2
   2  -5  14 99605.9 6257.03   2
   2   3  14 102324. 6212.58   2
   3  -5  14 93182.7 5956.12   2
   2  -5  14 105756. 6492.24   1
  -3   5 -14 106065. 6276.32   1
  -2   5 -14 96931.1 6001.56   1
   3   2  13 10468.3 1948.48   1
  -2  -3 -13 9350.42 1811.54   1
  -3  -2 -13 10104.5 1837.74   1
   2  -5  13 11343.4 2012.03   1
   3  -5  13 8871.37 1663.25   1
   2   3  13 12727.7 1987.25   2
   3   2  13 9801.12 1877.31   2
   2   3  13 9610.76 1752.01   1
   3  -5  13 11060.7 1967.86   2
  -3   5 -13 12586.3 1947.49   1
  -2   5 -13 7893.91 1595.64   1
   2  -5  13 10771.2 1971.82   2
   5  -2 -12 4116.96 1020.54   1
   2   3  12 5379.53 1362.64   1
   3   2  12 5645.85 1419.08   1
  -2   5 -12 3633.22 1249.32   1
   2  -5  12 4345.29 1454.96   1
   3  -5  12 3075.36 1032.90   1
  -3   5 -12 4652.64 1123.88   1
  -5   2  12 4841.83 1141.70   1
   2  -5  12 5175.06 1218.56   2
   3  -5  12 5145.10 1219.48   2
   3   2  12 4062.03 1158.27   2
  -3  -2 -12 4237.94 1214.54   1
  -2  -3 -12 4635.26 1195.35   1
   2   3  12 2469.24 1111.51   2
   3   2  11 129787. 6566.99   2
  -2   5 -11 112212. 6215.26   1
   3  -5  11 115354. 6356.72   2
   2  -5  11 127868. 6840.43   1
   2  -5  11 127690. 6527.83   2
  -3  -2 -11 126998. 6557.25   1
  -2  -3 -11 128618. 6503.15   1
   5  -2 -11 124035. 5928.04   1
   2   3  11 132744. 6747.35   1
   3   2  11 116319. 6384.40   1
   3  -5  11 110051. 6392.12   1
   2   3  11 137515. 6620.00   2
  -5   2  11 136732. 6276.23   1
  -3   5 -11 113054. 6146.22   1
   3  -5  10 189907. 8330.06   1
   3   2  10 179542. 7867.70   1
   2  -5  10 180710. 8038.34   2
  -3   5 -10 163746. 7496.60   1
   3  -5  10 193800. 8193.24   2
  -5   3  10 201380. 7184.43   1
  -5   2  10 215585. 7804.03   1
   5  -2 -10 153390. 6759.31   1
  -3  -2 -10 196279. 8118.33   1
   2  -5  10 190265. 8318.83   1
   2   3  10 191216. 8088.13   1
  -2   5 -10 188012. 7940.18   1
   3   2  10 200924. 8249.54   2
   2   3  10 229863. 8788.27   2
  -2  -3 -10 149333. 7216.22   1
  -3  -2  -9 224205. 8712.50   1
  -3   5  -9 204430. 8315.09   1
   2   3   9 218595. 8776.27   1
   5  -2  -9 271134. 8523.29   1
   3   2   9 217678. 8663.95   2
  -5   2   9 307854. 8979.88   1
   3   2   9 193123. 8459.24   1
   2   3   9 235682. 9217.60   2
   5  -3  -9 218989. 7328.37   1
  -5   3   9 218598. 7406.51   1
  -2  -3  -9 195568. 8192.01   1
   3  -5   9 193737. 8402.54   1
  -2   5  -9 187033. 8127.42   1
   3  -5   9 209154. 8548.84   2
   2  -5   9 209181. 8684.34   1
   2  -5   9 207903. 8541.61   2
   5  -2  -8 62179.5 3610.31   1
  -5   3   8 62632.2 3313.33   1
  -3  -2  -8 56047.2 3884.62   1
   3   2   8 49946.7 3807.96   1
   2   3   8 54055.1 3729.47   1
   3   2   8 55706.6 3946.23   2
   2  -5   8 52418.1 3868.77   2
   3  -5   8 60394.4 4037.56   1
   3  -5   8 49682.6 3768.55   2
   5  -3  -8 51959.6 3035.58   1
  -3   5  -8 54298.3 3728.91   1
  -2   5  -8 55589.9 3886.76   1
  -2  -3  -8 52624.1 3616.55   1
   2  -5   8 59766.4 4085.67   1
   2   3   8 58724.5 4078.25   2
   5  -3  -7 143135. 5128.31   1
  -2   5  -7 116649. 5845.24   1
   2  -5   7 128937. 6311.93   2
  -5   3   7 145831. 5166.10   1
   3   2   7 126411. 6016.19   1
  -3  -2  -7 128835. 6092.73   1
   3  -5   7 144492. 6523.81   2
  -5   2   7 166094. 5865.27   1
  -2  -3  -7 126834. 6040.57   1
   2  -5   7 138443. 6421.04   1
   3  -5   7 137286. 6370.02   1
   3   2   7 142368. 6821.09   2
   2   3   7 131414. 6111.90   1
  -3   5  -7 126965. 5952.08   1
   3  -5   6 804940. 19253.3   1
   3  -5   6 830342. 19469.7   2
  -2  -3  -6 785701. 18809.8   1
   3  -5   5 182650. 7224.15   2
  -3   5  -5 181466. 6800.48   1
   2   3   5 180458. 7176.42   1
   2  -5   5 204779. 7550.68   2
   5  -2  -5 180328. 4847.64   2
  -2   5  -5 180201. 6970.60   1
   3  -5   5 200184. 7292.76   1
  -5   3   5 164961. 5264.35   1
   5  -2  -5 175360. 6035.23   1
   5  -3  -5 170954. 5304.95   1
   3   2   5 195152. 7411.26   1
  -5   2   5 226495. 6697.17   1
  -3  -2  -5 185767. 7144.70   1
  -2  -3  -5 161506. 6660.68   1
  -5   3   4 146233. 4657.42   1
   5  -3  -4 162347. 4446.40   2
   2  -5   4 157008. 6057.19   1
   2   3   4 157829. 6308.78   1
  -5   2   4 169040. 5648.53   1
   5  -3  -4 186039. 5008.61   1
  -3  -2  -4 145015. 6034.83   1
   5  -2  -4 118784. 4890.53   1
   5  -2  -4 162368. 4751.49   2
   3  -5   4 168699. 6553.67   2
   3   2   4 147627. 6255.19   1
  -2   5  -4 142692. 5910.38   1
   3  -5   4 140031. 5932.10   1
   2  -5   4 156598. 6491.45   2
  -3   5  -4 143227. 5760.85   1
  -2  -3  -4 166040. 6387.65   1
  -5   2   3 104930. 4314.75   1
   5  -3  -3 128779. 4022.50   2
   3  -5   3 118306. 5237.85   2
  -3  -2  -3 122048. 5218.11   1
   2   3   3 111590. 5115.45   1
   5  -2  -3 105861. 4210.74   1
  -2   5  -3 113389. 4864.88   1
   5  -3  -3 96354.4 3531.56   1
   2  -5   3 118053. 4886.83   1
   3   2   3 108344. 5044.88   1
   5  -2  -3 94017.6 3860.10   2
   2  -5   3 121663. 5420.51   2
  -2  -3  -3 102002. 4869.96   1
  -3   5  -3 106179. 4619.16   1
   3  -5   3 114957. 4829.21   1
  -5   3   3 105600. 3735.07   1
   5  -3  -2 288451. 8420.78   2
  -3  -2  -2 357960. 10259.1   1
   2  -5   2 380807. 10608.1   2
  -2  -3  -2 403605. 10578.9   1
  -2   5  -2 384122. 9828.97   1
   5  -3  -2 268030. 7840.65   1
   3  -5   2 356484. 9127.78   1
   2   3   2 352674. 10163.8   1
   2  -5   2 322774. 9372.86   1
   3  -5   2 382636. 10338.5   2
  -5   3   2 384725. 8573.77   1
  -3   5  -2 340679. 9225.94   1
   3   2   2 359090. 10347.3   1
   2  -5   1 41762.7 3017.55   2
   3  -5   1 32776.9 2101.49   1
  -3  -2  -1 38553.2 2873.91   1
  -3   5  -1 38592.6 2322.44   1
   5  -3  -1 43485.8 2198.37   1
  -2  -3  -1 37740.9 2809.51   1
  -2   5  -1 42974.2 2631.88   1
   3   2   1 37559.6 2788.66   1
   2   3   1 38258.7 2783.22   1
  -5   3   1 36639.1 2112.58   1
   3  -5   1 43177.3 2916.90   2
   5  -2  -1 42675.8 2574.36   2
   5  -3  -1 52877.8 2742.65   2
   5  -2  -1 42096.4 2467.78   1
   2  -5   1 32865.5 2259.30   1
  -5   2   1 42388.2 2563.31   1
   3  -5   0 47774.5 3078.96   2
   2  -5   0 50278.7 3301.62   2
   3  -5   0 41134.1 2221.68   1
   5  -3   0 50139.3 2846.35   2
  -3   5   0 46916.1 2414.50   1
   3   2   0 44171.7 2939.23   1
   5  -3   0 30133.4 2104.97   1
   2   3   0 42138.7 2947.57   1
  -3  -2   0 42848.6 2928.10   1
   5  -2   0 49740.2 2895.33   2
  -2   5   0 51947.8 2832.82   1
  -2  -3   0 49497.1 3125.00   1
   5  -2   0 56961.1 2994.93   1
  -5   3   0 45611.7 2463.41   1
  -5   2   0 46544.9 2790.67   1
   2  -5   0 40007.5 2409.32   1
  -2  -3   1 165907. 6360.38   1
   2   3  -1 163776. 6381.92   1
   2  -5  -1 190210. 6977.83   2
   5  -3   1 203318. 5996.29   1
   5  -2   1 147633. 5652.11   1
  -3  -2   1 166075. 6499.27   1
   3  -5  -1 162294. 4778.32   1
   2  -5  -1 197877. 5687.43   1
  -5   3  -1 149209. 5453.89   1
   3  -5  -1 164746. 6227.74   2
   5  -2   1 181424. 6366.84   2
   5  -3   1 185326. 6271.76   2
  -3   5   1 141368. 4684.63   1
  -2   5   1 170291. 5590.79   1
  -5   2  -1 164242. 5949.85   1
   3   2  -1 143165. 5938.13   1
   2   3  -2 697218. 17360.7   1
   5  -3   3 266636. 9229.79   1
   5  -2   3 369822. 10397.7   1
   5  -3   3 401211. 10799.7   2
   5  -2   3 280056. 9785.63   2
   2   3  -3 353781. 10659.3   1
  -2   5   3 350214. 9018.83   1
  -5   3  -3 383031. 10256.2   1
   3   2  -3 386191. 10782.9   1
  -2  -3   3 335188. 10378.4   1
   2  -5  -3 341648. 8795.56   1
  -5   2  -3 341000. 10163.2   1
  -3  -2   3 398393. 10916.5   1
   5  -3   4 54523.5 3439.43   2
   5  -3   4 53513.1 3331.81   1
   5  -2   4 38283.9 2942.66   1
   2   3  -4 58880.7 3716.81   1
   2  -5  -4 64452.5 2753.90   1
  -3   5   4 44016.8 1848.01   1
  -2   5   4 45814.4 2489.10   1
  -5   3  -4 53521.8 3308.81   1
   3   2  -4 48817.4 3291.81   1
  -5   2  -4 50926.3 3345.34   1
   5  -2   4 46992.7 3230.54   2
  -3  -2   4 51791.7 3320.45   1
  -2  -3   4 48145.7 3325.14   1
   3  -5  -4 45283.8 1777.93   1
  -3  -2   5 348040. 11383.4   1
  -5   3  -5 401913. 11647.4   1
  -2  -3   5 364442. 11505.3   1
   5  -3   5 422643. 11978.6   2
   5  -3   5 396869. 11494.9   1
  -5   2  -5 399265. 11655.7   1
   5  -2   5 424780. 11865.0   1
   2  -5  -5 381740. 9775.52   1
   3   2  -5 401376. 11883.2   1
   2   3  -5 357259. 11585.4   1
  -2   5   5 398435. 10006.8   1
   5  -2   5 417632. 11964.7   2
  -3  -2   6 829927. 19268.9   1
   3   2  -6 676309. 18479.0   1
  -5   3  -6 745596. 18526.0   1
  -2  -3   6 766216. 18870.0   1
   2   3  -6 773371. 18981.4   1
   5  -2   6 647953. 18089.5   1
   5  -2   6 768905. 18958.6   2
  -5   2  -6 648179. 18116.3   1
   5  -3   6 753849. 18710.2   2
  -2   5   7 209472. 6913.47   1
  -2  -3   7 206383. 8186.81   1
   3  -5  -7 227938. 6095.59   1
  -3  -2   7 198495. 8021.83   1
  -5   3  -7 230203. 8428.40   1
   5  -3   7 207697. 8237.20   2
   2   3  -7 237949. 8631.77   1
   5  -3   7 213411. 8113.65   1
  -5   2  -7 207230. 8089.32   1
   2  -5  -7 236831. 7041.05   1
   3   2  -7 211312. 8167.33   1
  -3   5   7 222524. 6224.08   1
   5  -2   7 214760. 8238.42   1
   5  -2   7 221249. 8558.69   2
  -3   5   8 62964.2 3040.68   1
   5  -3   8 49356.3 3739.48   1
   2   3  -8 50146.6 3650.94   1
  -2  -3   8 65014.3 4241.59   2
  -5   3  -8 48335.2 3615.25   1
  -2   5   8 58395.9 3295.49   1
  -5   2  -8 53606.9 3804.39   1
  -3  -2   8 47744.4 3592.62   1
  -2  -3   8 52358.1 3798.37   1
   5  -3   8 51027.6 3782.31   2
   3   2  -8 61083.0 4029.36   1
   5  -2   8 54295.7 3835.36   2
   5  -2   8 44940.0 3585.51   1
   2  -5  -8 51214.9 3038.20   1
  -5   2  -9 20111.7 2393.01   1
  -2  -3   9 20033.6 2347.71   2
  -2   5   9 25372.6 2195.64   1
   5  -3   9 20529.6 2423.14   2
   2   3  -9 18783.9 2215.96   1
   2  -5  -9 20132.0 1955.77   1
   5  -2   9 21387.0 2504.64   2
  -3  -2   9 17185.3 2219.48   1
   3   2  -9 18422.4 2232.40   1
  -5   3  -9 18534.5 2260.24   1
   5  -2   9 20079.8 2321.22   1
  -2  -3   9 19332.6 2273.67   1
   5  -3   9 19550.0 2394.00   1
  -3  -2  10 181317. 7706.41   1
   5  -2  10 158028. 7408.50   1
   5  -3  10 221285. 8481.03   1
  -5   2 -10 189738. 7697.03   1
  -5   3 -10 187466. 7748.09   1
   2  -5 -10 195746. 6670.68   1
  -2  -3  10 209814. 8248.20   2
   5  -3  10 193953. 7938.63   2
   5  -2  10 199245. 8068.67   2
  -2  -3  10 166634. 7307.89   1
  -2   5  10 210880. 7088.07   1
   2   3 -10 230510. 8437.80   1
   3   2 -10 168604. 7185.67   1
   5  -2  11 14277.4 2149.18   1
  -5   2 -11 13175.5 2018.39   1
  -2   5  11 15176.7 1904.23   1
  -2  -3  11 12919.3 1968.16   2
  -5   3 -11 12656.0 1963.75   1
  -2  -3  11 16194.9 2217.99   1
  -3  -2  11 20682.3 2490.79   1
   3   2 -11 14380.7 2022.01   1
   2   3 -11 17803.1 2282.52   1
   5  -3  11 16547.0 2289.87   2
   5  -2  11 13473.5 1980.15   2
   5  -3  11 14317.4 2192.25   1
   5  -3  12 40853.8 3771.03   1
   5  -2  12 39746.5 3636.93   1
  -2  -3  12 34385.3 3439.86   1
  -3  -2  12 38927.2 3557.63   1
  -5   3 -12 36996.4 3518.45   1
  -5   2 -12 37292.0 3411.30   1
   5  -3  12 35005.9 3461.33   2
   3   2 -12 33824.2 3289.15   1
   5  -2  12 39250.7 3557.80   2
   2   3 -12 47109.6 3847.18   1
  -2  -3  12 37856.9 3459.91   2
   5  -3  13 60693.6 4770.60   1
  -5   3 -13 67837.5 4840.26   1
  -5   2 -13 67714.7 4896.66   1
  -2  -3  13 71408.4 5021.37   2
   5  -2  13 58074.6 4839.62   1
   5  -2  13 58006.3 4680.80   2
   5  -3  13 72608.1 5134.06   2
   2   3 -13 52831.3 4383.23   1
  -3  -2  13 69365.3 4954.59   1
   3   2 -13 50574.2 4219.66   1
  -2  -3  13 69883.8 5001.05   1
  -5   3 -14 99860.2 6175.25   1
  -3  -2  14 103567. 6382.75   1
  -5   2 -14 101956. 6120.57   1
   5  -3  14 98388.4 6200.94   1
  -2  -3  14 93767.4 5950.91   1
   5  -3  14 89074.1 5875.96   2
   2   3 -14 113031. 6541.42   1
   3   2 -14 86354.4 5764.44   1
   5  -2  14 105549. 6545.28   1
   5  -2  14 97708.5 6104.16   2
   5  -3  15 40444.7 3860.83   1
   5  -2  15 41141.3 3961.71   2
   5  -2  15 40843.9 4034.76   1
  -5   3 -15 41524.6 3986.66   1
  -3  -2  15 37832.1 3809.24   1
  -2  -3  15 39985.9 3948.63   1
   2   3 -15 46690.7 4118.75   1
   5  -3  15 38195.6 3776.93   2
  -5   2 -15 44294.4 4045.72   1
   3   2 -15 41475.2 3959.45   1
   3   2 -16 5413.39 1494.09   1
   5  -3  16 4510.41 1216.41   2
   5  -3  16 3916.28 1075.80   1
   5  -2  16 3395.29 1234.22   1
   5  -2  16 4051.08 1397.75   2
  -2  -3  16 4487.02 1317.32   1
  -3  -2  16 5127.89 1225.40   1
  -5   3 -16 2710.88 878.752   1
   2   3 -16 2646.36 1204.91   1
  -5   2 -16 4495.92 1283.12   1
  -2  -3  17 14580.6 2522.29   1
   5  -2  17 18059.0 2777.13   1
   5  -3  17 17457.0 2626.34   1
  -3  -2  17 15953.3 2533.19   1
  -5   3 -17 16867.6 2507.92   1
  -5   2 -17 21194.8 2953.25   1
   5  -3  17 15568.0 2597.68   2
   2   3 -17 20703.1 2848.23   1
   5  -2  17 16954.3 2661.60   2
   3   2 -17 15884.9 2590.25   1
   5  -3  18 67934.4 5438.10   1
  -5   3 -18 61788.1 5173.37   1
  -5   2 -18 68715.4 5488.00   1
   5  -3  18 55321.2 5013.57   2
   5  -2  18 58996.8 5027.43   1
   2   3 -18 48801.5 4586.54   1
   3   2 -18 50597.1 4761.70   1
   5  -2  18 55263.4 4936.14   2
  -3  -2  18 65997.2 5431.93   1
  -2  -3  18 67282.4 5341.06   1
  -2  -3  19 16159.4 2701.61   1
  -5   3 -19 15722.7 2649.18   1
   2   3 -19 13395.0 2476.59   1
   5  -3  19 11537.2 2447.53   2
   5  -2  19 17526.4 2782.94   1
  -3  -2  19 14570.9 2542.83   1
   5  -3  19 16385.9 2691.60   1
   3   2 -19 12204.3 2243.66   1
  -5   2 -19 17260.3 2702.88   1
   5  -2  19 11900.8 2417.33   2
   3   2 -20 2404.01 1147.26   1
  -3  -2  20 4466.11 1470.00   1
   2   3 -20 3699.54 1192.45   1
   5  -2  20 2304.73 1208.24   2
  -2  -3  20 4935.72 1441.84   1
   5  -3  20 3140.52 1374.04   2
   4  -5  20 38781.4 4253.37   2
  -1   5 -19 572.211 430.143   1
   4  -5  19-240.113 296.751   2
   4   1  19 388.358 460.973   1
  -4   5 -19 805.123 336.859   1
  -4  -1 -19 1478.85 646.776   1
   4  -5  19 788.153 492.591   1
   4   1  19 590.189 655.053   2
   4  -5  18 206.132 750.829   1
  -1   5 -18-582.142 480.350   1
  -4  -1 -18-374.603 703.426   1
   1   4  18-192.353 370.771   1
   4   1  18-105.799 511.337   1
  -4   5 -18 188.999 213.456   1
   4  -5  18-336.929 455.332   2
   4   1  18 986.300 498.534   2
  -1  -4 -17 1244.36 794.083   1
   4  -5  17-218.619 658.717   1
  -1   5 -17 39.6625 688.453   1
  -4  -1 -17-525.450 627.775   1
  -4   5 -17 2006.07 1066.23   1
   4  -5  17 563.039 326.935   2
   1  -5  17 2115.10 1174.64   1
   4   1  17 1298.83 877.808   1
   1  -5  17 339.627 354.063   2
   1   4  17 497.736 405.522   1
   4   1  17 820.259 685.296   2
   4  -5  16 53469.0 4636.24   1
   4   1  16 47351.6 4425.12   1
  -1   5 -16 43396.4 4176.52   1
  -1  -4 -16 63764.5 4904.77   1
   1   4  16 56083.3 4911.26   1
   1  -5  16 44754.3 4418.70   2
   4  -5  16 47532.2 4364.86   2
   1  -5  16 51019.8 4744.93   1
   4   1  16 48840.4 4703.03   2
  -4  -1 -16 50079.3 4388.51   1
  -4   5 -16 46815.2 4331.68   1
  -5   1  15-170.717 270.308   1
  -1  -4 -15 375.926 330.729   1
   4  -5  15 1429.85 884.574   1
  -1   5 -15 572.099 592.730   1
   1   4  15 309.690 521.201   1
   4   1  15 1192.42 869.411   1
  -4   5 -15-532.886 636.070   1
   4   1  15-211.421 666.605   2
   1  -5  15 57.3010 345.095   2
  -4  -1 -15 532.584 483.385   1
   1  -5  15 82.6815 466.026   1
   4  -5  15 901.942 490.129   2
   1   4  15-35.2666 187.593   2
   1  -5  14 525.894 659.940   1
   4  -5  14-347.009 599.043   1
  -1   5 -14 26.0514 359.587   1
  -5   1  14-710.839 641.266   1
   5  -1 -14 93.9436 406.249   1
   1  -5  14-63.9305 347.503   2
   4   1  14 117.863 341.812   1
  -4   5 -14-447.775 434.035   1
  -1  -4 -14 385.938 545.241   1
  -4  -1 -14-313.607 303.321   1
   4   1  14 1130.47 698.878   2
   1   4  14 443.398 597.606   1
   4  -5  14 126.380 336.659   2
   1   4  14 315.178 356.416   2
   4  -5  13-486.857 368.615   1
  -1   5 -13-55.7794 531.931   1
   4   1  13 740.237 612.462   1
   1   4  13 131.865 297.724   1
   5  -1 -13 290.653 184.980   1
  -4   5 -13 688.929 641.534   1
  -1  -4 -13 965.498 586.979   1
   1   4  13 263.189 702.129   2
   1  -5  13 138.102 453.694   2
  -5   1  13 576.517 395.681   1
  -4  -1 -13 314.019 499.988   1
   4   1  13-168.796 345.115   2
   1  -5  13-273.365 764.743   1
   4  -5  13-621.212 723.106   2
  -4   5 -12 704472. 19997.2   1
   1  -5  12 688258. 20598.1   1
   1   4  12 761888. 20257.6   2
  -4  -1 -12 668823. 19675.7   1
  -1  -4 -12 771421. 20106.4   1
   4  -5  12 708538. 20170.0   2
  -5   1  12 736972. 19983.4   1
   4  -5  12 676221. 20334.2   1
   4   1  12 783334. 20711.7   2
   4   1  12 742951. 20554.1   1
   1  -5  12 690107. 20136.2   2
  -1   5 -12 728850. 20246.8   1
   5  -1 -12 754566. 19911.4   1
   4  -5  11 5723.04 1421.74   1
  -1   5 -11 4622.57 1285.13   1
   1   4  11 3785.88 1108.63   1
  -4  -1 -11 4366.15 1198.36   1
   4   1  11 3877.59 1111.72   1
   4   1  11 3949.06 1182.40   2
  -5   1  11 4577.55 1192.19   1
   1  -5  11 4468.58 1336.49   2
   1  -5  11 4252.36 1060.81   1
   1   4  11 2692.72 918.988   2
   5  -1 -11 4062.35 986.039   1
   4  -5  11 5867.90 1407.97   2
  -1  -4 -11 3865.53 1123.50   1
  -4   5 -11 4290.02 1199.92   1
   4  -5  10 1305.41 655.742   1
  -1  -4 -10 2551.10 946.430   1
  -5   1  10 2438.90 854.494   1
  -4   5 -10 1326.76 517.500   1
   4   1  10 3197.85 910.090   1
   1   4  10 1428.32 607.371   1
  -1   5 -10 2538.93 957.543   1
   1  -5  10 3034.43 1054.54   2
   4  -5  10 2401.16 709.649   2
   4   1  10 3171.78 856.367   2
   5  -1 -10 1349.73 481.261   1
   1   4  10 1241.67 334.553   2
  -4  -1 -10 2339.61 846.058   1
  -4  -1  -9 6437.31 1268.98   1
  -1   5  -9 5823.81 1404.78   1
   4  -5   9 4884.81 1205.22   1
  -5   1   9 7687.88 1450.76   1
  -4   5  -9 6260.81 1422.10   1
   4   1   9 6202.16 1382.36   1
   4   1   9 8444.68 1441.54   2
   1   4   9 6540.39 1262.63   1
   1  -5   9 7447.99 1528.01   2
  -1  -4  -9 6327.73 1248.00   1
   4  -5   9 6256.07 1267.80   2
   1  -5   9 6830.89 1286.32   1
   5  -1  -9 8083.50 1406.25   1
   4  -5   8 216694. 8651.78   2
  -4   5  -8 206753. 8461.77   1
  -5   1   8 243393. 8514.83   1
  -1  -4  -8 241376. 8525.30   1
   5  -1  -8 200658. 7895.68   1
  -1   5  -8 215348. 8593.93   1
   1   4   8 218162. 8290.30   1
   1  -5   8 203917. 8322.51   1
  -4  -1  -8 245887. 8973.60   1
   4   1   8 206482. 8622.17   1
   1  -5   8 219119. 8702.35   2
   4  -5   8 239164. 8894.83   1
   4   1   8 240858. 8871.37   2
  -4   5  -7 11381.2 1720.61   1
  -1   5  -7 10758.0 1645.47   1
   1  -5   7 11756.2 1848.56   2
   4  -5   7 10925.1 1644.24   1
   4   1   7 12593.8 1923.80   1
   1  -5   7 11561.6 1768.22   1
   1   4   7 11858.9 1618.40   1
   5  -1  -7 12829.7 1700.81   1
  -5   1   7 11602.8 1589.29   1
  -1  -4  -7 14457.3 1787.50   1
   4  -5   7 10427.2 1706.98   2
  -4  -1  -7 12263.3 1889.05   1
   4   1   7 14166.6 1805.49   2
  -4   5  -6 13117.3 1750.55   1
   1  -5   6 12124.6 1692.47   1
  -1   5  -6 14622.0 1896.89   1
  -4  -1  -6 14966.9 1851.74   1
   4   1   6 25513.1 2289.03   1
   4  -5   6 15099.7 1878.18   1
   4  -5   6 12754.4 1824.31   2
   1  -5   6 13067.3 1872.84   2
   5  -1  -6 13928.1 1705.68   1
  -1  -4  -6 11646.9 1533.81   1
   4   1   6 15501.2 1963.62   2
  -5   1   6 16769.2 1791.16   1
   1   4   6 17054.8 1945.68   1
   1   4   5 33968.0 2777.78   1
   4  -5   5 32958.3 2684.08   1
   4   1   5 36057.0 2984.23   1
   1  -5   5 28966.8 2784.98   2
  -1  -4  -5 35673.2 2685.62   1
   4  -5   5 35267.3 2991.28   2
  -4  -1  -5 33599.9 2790.24   1
   5  -4  -5 29157.1 1524.29   2
  -5   1   5 26503.7 2272.59   1
   1  -5   5 33630.9 2723.30   1
  -1   5  -5 32023.6 2769.45   1
  -4   5  -5 29566.3 2456.68   1
   4   1   5 39792.5 3193.49   2
   5  -1  -5 38471.0 2665.23   1
  -4   5  -4 498912. 13244.6   1
   1  -5   4 469964. 13558.5   1
   4   1   4 523571. 14032.4   1
   1   4   4 450534. 13252.4   1
   4  -5   4 517256. 14133.6   2
  -5   1   4 482961. 13288.8   1
   5  -1  -4 530404. 13182.2   1
  -1   5  -4 523087. 13898.7   1
  -1  -4  -4 520786. 13621.0   1
  -4  -1  -4 477017. 13694.3   1
   4   1   4 592104. 15037.8   2
   1  -5   4 579217. 14781.5   2
   4  -5   4 459246. 13113.0   1
   4  -5   3 3591.10 825.732   2
   1  -5   3 2610.14 807.887   1
   1  -5   3 3859.39 897.356   2
   4  -5   3 4008.83 838.223   1
  -4  -1  -3 3179.27 812.910   1
   4   1   3 3684.82 880.484   1
  -1   5  -3 3207.64 833.977   1
   1   4   3 4390.62 989.142   1
   5  -4  -3 4015.60 703.604   2
   5  -1  -3 3485.23 729.139   1
  -5   1   3 5161.03 969.425   1
  -4   5  -3 4246.48 881.916   1
   5  -1  -3 2346.88 665.408   2
  -1  -4  -3 4245.95 822.100   1
   1   4   2 67874.7 3832.25   1
   4  -5   2 75432.9 3523.66   1
  -1   5  -2 62394.7 3725.41   1
   5  -4  -2 68402.1 2277.34   1
  -4   5  -2 71602.8 3372.42   1
   5  -4  -2 74048.0 3373.98   2
   1  -5   2 80044.0 4042.50   1
  -5   1   2 83586.6 4116.30   1
   4   1   2 78218.0 4184.91   1
   5  -1  -2 85523.8 3963.46   1
  -5   4   2 61976.0 2267.06   1
  -1  -4  -2 76467.8 4019.37   1
   4  -5   2 74168.2 3977.65   2
   1  -5   2 87834.3 4643.58   2
  -4  -1  -2 80358.8 4248.65   1
   5  -1  -2 71005.9 3553.65   2
  -1   5  -1 2079.58 487.380   1
   4  -5   1 1447.58 414.211   1
  -4   5  -1 1015.55 273.254   1
   4  -5   1 1041.53 326.327   2
   1  -5   1 1522.17 568.887   1
   5  -4  -1 1075.10 275.533   1
  -5   4   1 1747.03 375.170   1
   4   1   1 1324.72 500.288   1
   5  -1  -1 1398.50 488.540   1
   1   4   1 942.543 313.264   1
  -5   1   1 1243.17 337.770   1
   5  -4  -1 2325.99 564.551   2
  -1  -4  -1 2673.41 769.169   1
   1  -5   1 1631.29 457.912   2
   5  -1  -1 1900.95 574.636   2
  -4  -1  -1 1722.41 699.855   1
  -1  -4   1 14999.9 1636.94   1
   4  -5  -1 13390.2 890.184   1
  -4  -1   1 13980.8 1615.25   1
   5  -1   1 13642.6 1551.07   1
   4  -5  -1 11628.4 1441.72   2
   4   1  -1 12416.1 1584.29   1
   5  -4   1 14744.2 1376.26   1
   1  -5  -1 13651.5 1489.89   1
  -1   5   1 14267.3 1550.09   1
   5  -4   1 13131.4 1548.88   2
   5  -1   1 15984.5 1690.32   2
  -5   4  -1 13422.5 1296.46   1
   1   4  -1 12679.8 1609.33   1
  -4   5   1 12115.7 887.370   1
  -5   1  -1 15718.2 1687.48   1
   5  -4   2 75734.3 3633.02   1
  -5   4  -2 80309.4 3691.14   1
   1   4  -2 81104.1 4361.24   1
   1  -5  -2 82723.3 3856.66   1
  -1   5   2 79521.7 3867.44   1
  -4  -1   2 82020.1 4347.64   1
   4   1  -2 92482.8 4425.41   1
  -1  -4   2 90298.2 4482.60   1
   5  -4   2 97725.8 4469.70   2
   4  -5  -2 94551.6 4167.34   2
  -5   1  -2 83788.7 4260.75   1
   5  -1   2 97244.4 4497.18   2
   5  -1   2 73024.1 4106.69   1
   1  -5  -3 6958.41 1029.18   1
   5  -4   3 6220.76 1162.07   2
  -5   1  -3 4623.11 1023.56   1
  -1  -4   3 7363.36 1125.58   1
   5  -1   3 6286.18 1127.76   1
  -4  -1   3 6189.47 1100.67   1
   4   1  -3 6460.17 1078.69   1
   4  -5  -3 6462.18 1046.70   2
  -5   4  -3 5639.21 955.982   1
  -1   5   3 5907.03 972.994   1
   1   4  -3 7544.70 1262.17   1
   5  -1   3 9601.39 1311.74   2
   5  -4   3 7240.38 1057.09   1
  -5   4  -4 547997. 14412.1   1
  -4  -1   4 497543. 14621.6   1
   1   4  -4 585485. 15674.1   1
  -5   1  -4 569679. 15099.2   1
  -1  -4   4 532702. 15099.0   1
   5  -1   4 649901. 15547.1   2
   4   1  -4 631918. 15413.1   1
   5  -1   5 2327.27 736.148   2
  -5   4  -5 3524.36 887.994   1
   5  -4   5 2193.47 756.328   1
   5  -1   5 2751.56 878.947   1
   1  -5  -5 3206.34 678.320   1
  -1   5   5 2366.53 609.855   1
  -4  -1   5 3527.91 926.664   1
  -5   1  -5 2453.74 847.259   1
  -1  -4   5 4526.07 1059.60   1
   5  -4   5 2700.20 984.176   2
   4   1  -5 2353.23 749.095   1
  -1  -4   5 1187.11 607.024   2
   1   4  -5 2588.99 779.879   1
  -5   4  -6 32618.9 2775.44   1
  -5   1  -6 33639.0 2935.14   1
   5  -4   6 39272.1 3067.38   2
  -1   5   6 27027.8 2316.12   1
  -1  -4   6 35505.1 3156.25   2
  -1  -4   6 30829.5 2844.88   1
   4   1  -6 33829.0 2814.01   1
  -4  -1   6 36776.3 2954.68   1
   5  -1   6 36628.1 2879.14   2
   5  -1   6 27452.2 2729.89   1
   1   4  -6 31189.1 2804.68   1
   5  -4   6 28485.1 2624.53   1
   1  -5  -6 33560.2 2466.00   1
  -5   4  -7 32249.3 2768.48   1
   5  -1   7 32180.6 2890.56   1
   5  -4   7 30529.0 2866.88   2
  -1   5   7 31578.1 2564.27   1
  -4  -1   7 29929.7 2754.79   1
   4   1  -7 39398.2 3161.77   1
  -5   1  -7 25819.0 2607.60   1
   5  -4   7 28453.2 2730.26   1
  -1  -4   7 30702.1 2851.65   1
   1  -5  -7 25216.4 2230.34   1
   5  -1   7 31808.3 2931.56   2
   1   4  -7 26377.5 2626.53   1
  -1  -4   7 34062.2 3056.15   2
  -4  -1   8 270158. 9404.49   1
  -1  -4   8 249020. 9375.58   2
   4   1  -8 224647. 8869.67   1
  -1   5   8 243635. 8544.70   1
   1   4  -8 251473. 9275.06   1
  -5   1  -8 238915. 9184.96   1
  -1  -4   8 252866. 9285.30   1
   1  -5  -8 214850. 8081.62   1
   5  -4   8 249494. 9268.27   1
   5  -4   8 246266. 9150.59   2
   5  -1   8 251765. 9398.53   1
   5  -1   8 251326. 9399.75   2
  -5   4  -8 248755. 9231.43   1
   1   4  -9-223.791 586.702   1
  -5   1  -9 269.883 447.194   1
   5  -4   9 145.497 210.436   1
  -4  -1   9 177.971 256.109   1
   5  -1   9-617.980 672.252   1
  -1   5   9 574.397 419.168   1
  -1  -4   9 241.605 492.618   1
   5  -1   9 656.312 444.820   2
   1  -5  -9 582.158 491.943   1
  -1  -4   9-487.878 492.628   2
   5  -4   9 561.540 589.520   2
  -5   4  -9-259.012 718.376   1
   1   4 -10 10027.5 1749.38   1
   5  -4  10 10569.1 1827.41   1
   5  -1  10 10282.6 1711.22   1
  -4  -1  10 9678.49 1667.74   1
  -5   4 -10 10456.9 1825.73   1
  -1   5  10 11430.1 1691.29   1
   1  -5 -10 9265.97 1496.82   1
   5  -4  10 9707.22 1676.73   2
  -1  -4  10 9729.15 1640.51   1
  -1  -4  10 11954.0 1847.22   2
   5  -1  10 8800.32 1670.77   2
  -5   1 -10 11549.8 1901.80   1
   4   1 -10 10191.1 1726.96   1
   1   4 -11 4870.71 1319.34   1
   5  -1  11 7539.55 1482.25   1
   5  -4  11 5380.81 1379.38   1
  -1   5  11 6348.77 1334.86   1
  -5   1 -11 7216.76 1488.99   1
  -1  -4  11 7982.90 1575.59   2
   1  -5 -11 6468.43 1296.64   1
  -5   4 -11 5758.62 1442.97   1
  -1   5  11 1579.28 568.676   2
  -4  -1  11 4781.28 1203.83   1
  -1  -4  11 6110.71 1436.12   1
   5  -4  11 4606.40 1202.34   2
   4   1 -11 6425.26 1386.12   1
   5  -1  11 6957.33 1523.58   2
  -1  -4  12 527106. 15564.3   1
   5  -1  12 569840. 16290.5   1
   1   4 -12 605535. 16408.4   1
  -1   5  12 561635. 15472.6   1
  -5   4 -12 528909. 15995.2   1
  -5   1 -12 568301. 16033.5   1
   4   1 -12 635221. 16401.0   1
  -4  -1  12 543628. 15881.8   1
  -1  -4  12 592981. 16336.9   2
   5  -4  12 556216. 16145.8   2
   5  -1  12 571276. 16418.4   2
   5  -4  12 580855. 16415.3   1
   4   1 -13 217.700 333.313   1
  -1  -4  13 1017.89 438.701   1
   5  -4  13-60.9667 673.505   2
  -1   5  13 535.928 175.766   1
  -5   4 -13 140.103 286.034   1
  -1  -4  13 801.460 547.529   2
   5  -1  13 17.5617 585.796   1
  -4  -1  13 546.456 782.357   1
  -5   1 -13 1071.84 645.545   1
   5  -4  13 200.131 437.228   1
   5  -1  13 1263.76 806.544   2
   1   4 -13 783.971 601.823   1
   4   1 -14 12615.5 1975.42   1
   5  -4  14 11003.7 2089.63   1
  -1  -4  14 16396.3 2335.96   1
  -1  -4  14 12073.3 2051.74   2
   5  -1  14 11154.8 2066.79   1
  -5   4 -14 14749.1 2250.01   1
   5  -4  14 12727.9 2163.99   2
  -4  -1  14 16945.1 2567.18   1
   1   4 -14 9553.53 1886.33   1
   5  -1  14 13466.4 2279.15   2
  -5   1 -14 12778.7 2139.12   1
   4   1 -15 284.038 187.127   1
   1   4 -15 217.132 615.437   1
  -4  -1  15 757.626 610.306   1
  -1  -4  15 1250.72 920.852   1
  -5   1 -15-126.913 306.674   1
   5  -1  15 1473.26 825.703   1
   5  -4  15-350.798 416.730   2
   5  -1  15-398.671 668.782   2
   5  -4  15 383.692 828.678   1
  -5   4 -15 45.2548 466.102   1
   5  -4  16 101128. 6633.13   1
   1   4 -16 81551.0 5795.53   1
  -1  -4  16 87124.2 6061.44   1
   5  -1  16 98062.8 6462.58   2
  -5   4 -16 97510.9 6451.78   1
   5  -1  16 99985.5 6611.99   1
  -4  -1  16 106409. 6787.01   1
   4   1 -16 90936.8 6115.24   1
  -5   1 -16 100883. 6459.29   1
   5  -4  16 101516. 6623.87   2
   1   4 -17 2430.64 1151.38   1
   5  -4  17-169.963 600.596   1
  -1  -4  17 1353.10 1043.89   1
   5  -1  17-480.063 849.478   1
  -5   1 -17-6.72961 503.423   1
  -5   4 -17-228.130 456.383   1
   5  -4  17 263.569 762.110   2
   5  -1  17 2706.76 1209.22   2
   4   1 -17-250.850 501.886   1
  -4  -1  17-173.181 629.407   1
   4   1 -18 4980.43 1396.09   1
  -1  -4  18 3329.84 1173.96   1
   1   4 -18 3755.70 1315.26   1
   5  -4  18 3082.16 1083.16   1
   5  -1  18 3490.59 1374.84   1
   5  -4  18 3015.19 1126.02   2
  -5   4 -18 4890.04 1453.50   1
   5  -1  18 2866.26 1418.00   2
  -5   1 -18 4519.71 1398.46   1
  -4  -1  18 3351.05 1242.75   1
   4   1 -19 403.431 348.100   1
   5  -1  19 555.263 506.245   1
   5  -1  19 1290.71 838.451   2
   5  -4  19 1512.39 945.501   2
  -5   4 -19 1342.83 660.167   1
  -5   1 -19 1283.84 758.411   1
   5  -4  19 353.196 508.949   1
  -4  -1  19 1667.04 970.898   1
   1   4 -19 1563.91 888.188   1
  -1  -4  19 628.745 539.227   1
   5  -4  20 23013.0 3194.22   2
   5  -1  20 14888.2 2815.40   2
  -5   5   0 209829. 5679.74   1
   5  -5   0 208185. 5729.93   1
  -5   0   0 172164. 7033.86   1
   5  -5   0 210306. 7119.42   2
   5   0   0 188120. 7165.28   1
   0   5   0 191643. 7161.23   1
   0  -5   0 194091. 7110.81   1
   5   0   0 200530. 7464.06   2
  -5   0  -1 542187. 14403.9   1
   5  -5  -1 498698. 13312.9   2
   0   5  -1 552275. 14448.0   1
   0   5   1 498089. 13674.1   1
   5  -5   1 485147. 13638.6   2
   0  -5   1 539186. 14125.6   1
  -5   0   1 509666. 14100.6   1
  -5   5  -1 509526. 12532.1   1
   5  -5   3 335230. 9123.31   1
  -5   5  -3 278277. 8564.18   1
   0  -5  -3 290342. 8928.59   1
   0  -5   3 250889. 9093.81   1
   5   0   3 264945. 9107.13   1
   5  -5  -3 297497. 8333.60   2
   5  -5   3 276624. 9237.81   2
  -5   0  -3 251167. 9045.04   1
  -5   0   3 281338. 9255.51   1
   0   5  -3 262245. 9335.23   1
   0   5   3 279242. 9043.72   1
   5   0  -3 225294. 8441.43   1
   5   0   3 296143. 9537.71   2
   0  -5  -4 25587.4 2290.62   1
   0  -5   4 28562.2 2995.64   2
  -5   5  -4 31985.6 2568.37   1
   0  -5   4 34966.8 2770.44   1
   5   0   4 30536.3 2689.72   1
   5  -5  -4 34429.6 2216.31   2
   0   5   4 32869.9 2637.05   1
  -5   0   4 32988.3 2773.15   1
   5   0  -4 31344.0 2544.82   1
   5  -5   4 32497.4 2847.62   2
   5   0   4 34495.9 2883.80   2
   5  -5   4 32680.0 2553.51   1
  -5   0  -4 30585.2 2657.59   1
   0   5  -4 34439.5 2896.00   1
   0   5  -5 8709.97 1470.19   1
   0   5   5 7670.62 1308.90   1
   5  -5   5 9678.43 1490.70   1
   0  -5   5 7559.45 1431.89   2
   0  -5   5 8035.27 1405.05   1
  -5   0  -5 7123.00 1330.40   1
   5   0   5 8126.05 1447.32   1
  -5   5  -5 9603.71 1482.26   1
   5   0  -5 7524.68 1278.24   1
   0  -5  -5 8073.11 1269.31   1
  -5   0   5 10639.8 1519.10   1
   5  -5   5 7708.47 1398.70   2
   5   0   5 7336.33 1307.92   2
   0   5  -6 1754.57 669.140   1
   0  -5   6 2231.56 813.518   1
   5   0  -6 2638.60 837.002   1
   5  -5   6 2026.23 732.239   1
  -5   0  -6 1311.04 638.323   1
   0  -5  -6 2780.68 759.643   1
  -5   0   6 2077.28 766.504   1
   5   0   6 1009.93 360.679   1
  -5   5  -6 2429.19 630.358   1
   0   5   6 2053.12 714.690   1
   5   0   6 1259.28 559.771   2
   5  -5   6 2608.52 858.589   2
   0  -5   6 2482.81 884.887   2
   0  -5   7 575.115 369.736   1
   0   5  -7 362.866 548.882   1
   5  -5   7 652.197 252.575   1
   0  -5   7 929.608 646.659   2
   0   5   7 714.448 510.268   1
   5   0   7 1299.79 562.750   2
   5   0   7 241.971 371.523   1
  -5   5  -7 513.026 415.314   1
   0  -5  -7 1235.57 546.551   1
  -5   0  -7 452.826 451.794   1
   5  -5   7 1123.48 607.178   2
  -5   0   7 317.911 309.790   1
   5   0  -7 447.640 183.580   1
  -5   0  -8 1732.86 684.909   1
   0   5  -8-85.8674 247.834   1
   0  -5  -8-383.598 220.853   1
   5  -5   8-678.815 592.785   1
   5   0   8 679.844 664.016   1
   0   5   8 604.165 435.940   1
  -5   5  -8 397.724 276.552   1
   5   0   8-444.060 324.468   2
   0  -5   8-347.912 374.450   1
   5  -5   8 286.590 685.513   2
  -5   0   8-117.779 387.411   1
   0  -5   8 480.853 567.020   2
   5   0  -8 882.794 702.876   1
  -5   0   9 90123.9 5315.75   1
  -5   5  -9 90534.8 5425.15   1
   5  -5   9 87342.7 5335.72   2
   0   5   9 98641.7 5435.70   1
   5  -5   9 95085.4 5582.22   1
   5   0   9 82865.2 5266.80   1
  -5   0  -9 86989.0 5275.04   1
   5   0  -9 105754. 5657.76   1
   5   0   9 99157.0 5533.19   2
   0   5  -9 86623.6 5337.03   1
   0  -5   9 97260.0 5588.97   2
   0  -5   9 91465.7 5405.30   1
   0  -5  -9 87713.5 5001.13   1
  -5   5 -10 396293. 13234.2   1
   0  -5  10 427213. 13451.9   1
   5  -5  10 393560. 13168.0   1
   5   0 -10 483828. 13923.2   1
  -5   0 -10 409442. 13291.8   1
  -5   0  10 277736. 11569.4   1
   0   5  10 437115. 13265.0   1
   0  -5  10 322113. 12611.6   2
   5   0  10 414440. 13386.8   2
   5  -5  10 397366. 13227.1   2
   0  -5 -10 407363. 12516.2   1
   5   0  10 384158. 13056.0   1
   0   5 -10 386662. 13047.9   1
   5  -5  11 188197. 8622.71   1
   0  -5  11 183185. 8352.64   1
   5   0  11 198382. 8733.38   2
  -5   0  11 209194. 8731.51   1
  -5   5 -11 190961. 8625.61   1
   0  -5 -11 242861. 8899.55   1
   0  -5  11 182253. 8492.01   2
   0   5  11 132935. 7447.53   2
  -5   0 -11 185138. 8429.83   1
   5   0  11 175578. 8331.70   1
   5   0 -11 194782. 8451.79   1
   0   5  11 185544. 8272.11   1
   0   5 -11 171362. 8162.02   1
   5  -5  11 183552. 8422.04   2
   5  -5  12 83244.9 5621.76   1
  -5   5 -12 83605.7 5545.74   1
   0  -5  12 89329.8 5615.68   1
   0   5  12 89987.9 5703.54   1
   5   0 -12 76622.6 5203.63   1
   5   0  12 75426.5 5349.89   1
   0  -5  12 95457.0 5792.77   2
  -5   0  12 77815.4 5239.49   1
  -5   0 -12 95486.6 5888.98   1
   0  -5 -12 84647.9 5305.85   1
   5  -5  12 83026.2 5516.40   2
   0   5  12 73383.6 4979.03   2
   5   0  12 85403.7 5602.66   2
   0   5 -12 84085.7 5578.52   1
   5  -5  13 74208.7 5379.87   1
   5   0  13 77170.0 5362.35   1
   0  -5  13 76946.2 5335.54   1
   5  -5  13 82936.5 5467.76   2
   0  -5  13 77005.3 5525.33   2
   0  -5 -13 88176.9 5557.53   1
  -5   0 -13 78389.2 5366.28   1
   5   0  13 79698.3 5424.92   2
   5   0 -13 87284.7 5613.45   1
  -5   5 -13 79003.8 5456.86   1
   0   5 -13 81913.1 5564.12   1
   0   5  13 90869.2 5638.45   1
   5  -5  14 161258. 8706.41   1
  -5   5 -14 195604. 9188.29   1
   0   5  14 235447. 9874.63   1
   5   0  14 179243. 8951.18   1
   0  -5  14 195277. 9161.01   1
  -5   0 -14 201571. 9201.11   1
  -5   0  14 247323. 10110.5   1
   5   0 -14 236916. 9880.38   1
   0  -5 -14 140898. 7778.19   1
   0   5 -14 245694. 10118.5   1
   0  -5  14 201186. 9529.13   2
   5  -5  14 175342. 8902.82   2
   5   0  14 194474. 9339.13   2
  -5   5 -15 11515.6 2087.67   1
   5  -5  15 13354.1 2276.55   1
   5   0  15 12138.9 2212.40   1
   0  -5  15 11894.3 2138.58   2
  -5   0 -15 15050.2 2332.92   1
   0   5  15 14771.0 2283.80   1
  -5   0  15 18109.8 2680.72   1
   0  -5  15 12856.6 2217.77   1
   5  -5  15 13669.9 2255.98   2
   5   0 -15 13631.7 2232.45   1
   0   5 -15 15458.2 2479.39   1
   5   0  15 13429.3 2413.56   2
   0   5 -16 5190.28 1497.41   1
   5  -5  16 3551.37 1288.32   1
   5   0  16 3728.51 1246.54   1
  -5   5 -16 3400.82 1218.34   1
  -5   0 -16 4102.48 1401.49   1
  -5   0  16 3920.04 1309.96   1
   0  -5  16 4656.39 1418.93   1
   5   0  16 3227.06 1255.50   2
   5  -5  16 2989.26 1121.66   2
   0  -5  16 4362.76 1314.34   2
   5   0 -16 5060.39 1402.19   1
   0   5 -17 5410.08 1529.14   1
  -5   5 -17 5831.74 1605.08   1
   5  -5  17 5508.42 1613.35   1
   5   0  17 4549.47 1419.66   1
   0  -5  17 5150.86 1483.94   1
  -5   0 -17 5228.17 1566.55   1
   5   0  17 4500.43 1531.88   2
   5  -5  17 6710.40 1701.27   2
   5  -5  18 7390.44 1942.86   2
   5  -5  18 7359.77 1821.01   1
  -5   0 -18 8279.54 1898.30   1
   5   0  18 7607.51 1918.47   1
  -5   5 -18 7382.86 1636.55   1
   0  -5  18 7065.77 1611.22   1
   0   5 -18 7747.25 1758.16   1
   5   0  18 6311.34 1916.84   2
   5   0  19 6331.40 1882.53   2
   0   5 -19 7516.22 1842.45   1
   5  -5  19 6334.81 1708.55   1
   5   0  19 8943.59 1948.20   1
   0  -5  19 6630.59 1728.34   1
   5  -5  19 6242.52 1709.11   2
  -5   5 -19 7417.74 1750.67   1
  -5   0 -19 7412.58 1844.80   1
   5   0  20 918.832 922.274   2
   3   3  19-51.4807 528.640   1
   3  -6  19 884.285 713.688   2
  -3  -3 -19-473.549 787.610   1
   3  -6  18 2546.26 1194.43   1
  -3   6 -18 2240.66 1151.39   1
   3  -6  18 1839.02 862.784   2
   3   3  18 1634.64 966.190   1
  -3  -3 -18 2292.21 1107.84   1
  -3   6 -17 575.319 336.150   1
  -3  -3 -17-625.163 726.397   1
   3  -6  17 236.418 418.205   2
   3   3  17-206.573 515.559   2
   3   3  17 854.527 762.112   1
   3  -6  17-694.722 461.805   1
  -3   6 -16 168842. 8526.65   1
   3   3  16 150593. 8341.16   1
  -3  -3 -16 161269. 8268.29   1
   3  -6  16 144818. 8334.27   1
   3   3  16 147106. 8397.98   2
   3  -6  16 134473. 8058.82   2
   3  -6  15-437.585 622.837   1
  -3   6 -15 528.487 371.356   1
   3   3  15-215.350 582.141   1
   3  -6  15 903.016 689.127   2
   3   3  15-92.9632 289.585   2
  -3  -3 -15 682.162 618.739   1
   3   3  14 86783.6 5925.70   1
   3  -6  14 93093.1 6138.46   2
  -3  -3 -14 101681. 6232.01   1
   3   3  14 88576.9 5944.92   2
  -3   6 -14 102824. 6287.47   1
   3  -6  14 91650.7 6271.84   1
   3  -6  13 1178.47 864.005   1
  -3   6 -13-661.883 341.495   1
   3  -6  13 1.54492 476.025   2
   3   3  13-318.487 482.592   1
  -3  -3 -13-48.4157 411.918   1
   3   3  13 352.142 444.553   2
   3   3  12 89923.8 5813.11   1
   3   3  12 88134.2 5626.99   2
   3  -6  12 89459.2 5853.03   2
  -3  -3 -12 89546.6 5657.85   1
  -3   6 -12 78586.7 5348.60   1
   3  -6  12 91658.8 5974.09   1
  -3  -3 -11 860.855 649.505   1
   3  -6  11 881.759 591.994   1
  -3   6 -11-143.653 447.161   1
   3  -6  11-94.6945 439.511   2
   3   3  11 1.41222 365.716   1
   3   3  11-560.134 754.752   2
   3   3  10 281367. 10636.8   1
   3  -6  10 276916. 10659.8   1
  -3  -3 -10 247138. 9897.31   1
   3   3  10 283888. 10529.2   2
   3  -6  10 251041. 10092.5   2
  -3   6 -10 252450. 9995.09   1
  -3  -3  -9 448.810 531.912   1
   3  -6   9-914.811 717.589   2
   3   3   9-138.259 464.791   1
   3  -6   9 74.1636 402.171   1
  -3   6  -9 1588.07 954.523   1
   3   3   9-956.215 771.207   2
   3  -6   8 731404. 19423.5   2
  -3  -3  -8 714304. 18948.0   1
   3  -6   8 691813. 19137.1   1
   3   3   8 741664. 19967.3   2
  -3   6  -8 668119. 18718.8   1
   3   3   8 694763. 18785.5   1
   3  -6   7-43.8256 478.182   1
  -3   6  -7 1.13601 229.129   1
  -3  -3  -7 218.576 484.690   1
   3  -6   7-100.346 506.492   2
   3   3   7 350.100 430.679   1
   6  -3  -7 417.475 280.843   1
  -6   3   7 281.647 275.679   1
   3   3   6 69559.0 4466.26   1
  -6   3   6 67109.7 3479.90   1
   3  -6   6 69058.4 4486.38   2
   6  -3  -6 73367.8 3516.62   1
  -3   6  -6 73609.7 4494.07   1
  -3  -3  -6 76989.7 4483.15   1
   3  -6   6 72612.2 4461.44   1
  -6   3   5 137.748 332.449   1
  -3   6  -5-541.668 660.150   1
   6  -3  -5 534.272 298.916   1
  -3  -3  -5 77.4648 240.811   1
   3   3   5 109.232 228.051   1
   3  -6   5-534.232 673.258   2
  -3   6  -3 478.512 443.329   1
   3   3   3-159.241 459.414   1
   6  -3  -3 165.944 207.999   1
  -3  -3  -3 79.1265 322.723   1
   3  -6   3 146.832 372.765   2
  -6   3   3 665.557 353.077   1
   6  -3  -3 161.052 280.665   2
   3  -6   3 104.156 300.021   1
  -6   3   2 281030. 7868.77   1
  -3  -3  -2 207905. 8267.08   1
   3  -6   2 221570. 8599.79   2
   6  -3  -2 307236. 8060.23   1
   3   3   2 226801. 8699.66   1
   6  -3  -2 279210. 7983.07   2
  -3   6  -2 229428. 7881.20   1
   3  -6   2 237637. 7994.88   1
  -3  -3  -1 170.306 514.180   1
   3  -6   1 59.4201 409.979   2
   3   3   1-186.914 219.320   1
   6  -3  -1-160.300 291.534   1
   3  -6   1 225.660 355.018   1
  -6   3   1-20.4071 131.272   1
   6  -3  -1-285.728 339.105   2
  -3   6  -1-322.551 288.007   1
   6  -3   0 96761.8 4309.36   1
  -3  -3   0 104749. 5162.59   1
  -6   3   0 92145.0 4296.90   1
   3   3   0 108409. 5195.97   1
   3  -6   0 105493. 5232.81   2
   3  -6   0 87580.7 3997.79   1
   6  -3   0 125029. 5163.36   2
  -3   6   0 106572. 4471.41   1
  -6   3  -1-328.742 399.268   1
   3  -6  -1-281.730 263.087   1
  -3  -3   1-160.897 564.291   1
   6  -3   1-134.340 250.996   1
   3   3  -1-263.953 532.553   1
   3  -6  -1 262.363 427.766   2
  -3   6   1-56.6652 236.123   1
   6  -3   1 5.10065 198.762   2
   3   3  -2 227602. 8014.70   1
   6  -3   2 172245. 6939.82   1
   3  -6  -2 218428. 6337.97   1
  -3   6   2 196335. 6047.91   1
  -3  -3   2 230773. 8134.95   1
   6  -3   2 194109. 7431.53   2
  -6   3  -2 196254. 7165.63   1
  -6   3  -3-411.589 335.075   1
  -3  -3   3-387.330 511.753   1
   6  -3   3 52.4172 343.176   1
   3  -6  -3 211.487 166.345   1
  -3   6   3 418.596 248.063   1
   3   3  -3 115.767 488.271   1
   6  -3   3-9.61699 290.330   2
  -3   6   5 244.293 214.806   1
   6  -3   5 663.970 406.506   2
  -3  -3   5 60.8544 228.512   1
   6  -3   5-223.331 419.448   1
   3   3  -5-421.682 411.071   1
  -6   3  -5-217.188 341.592   1
  -3  -3   6 56171.6 3956.54   1
   6  -3   6 55762.4 3866.98   1
  -6   3  -6 57384.3 3997.35   1
   6  -3   6 64666.5 4146.53   2
  -3  -3   7 802.035 629.113   1
   6  -3   7 27.0173 574.967   2
   3   3  -7-20.9602 480.410   1
  -6   3  -7 494.506 417.151   1
  -3  -3   8 388237. 12917.2   1
  -6   3  -8 381154. 12717.2   1
   6  -3   8 415443. 13061.2   1
   6  -3   8 405581. 13093.3   2
  -6   3  -9 103.902 392.441   1
   6  -3   9-843.682 760.385   1
  -3  -3   9 196.535 283.516   1
   6  -3   9 18.1623 324.935   2
   3   3  -9-321.019 516.241   1
   6  -3  10 286704. 10677.5   2
   6  -3  10 267575. 10327.8   1
  -6   3 -10 283627. 10415.8   1
  -3  -3  10 270407. 10378.2   1
   3   3 -10 250006. 10091.6   1
   3   3 -11 831.124 762.524   1
   6  -3  11 644.484 282.097   1
  -3  -3  11 965.717 722.265   1
  -6   3 -11 181.034 224.948   1
   6  -3  11 153.522 362.262   2
   6  -3  12 232275. 10020.8   1
  -6   3 -12 225396. 9777.51   1
   6  -3  12 234174. 9961.52   2
   3   3 -12 217578. 9522.79   1
   3   3 -13 1120.76 732.016   1
   6  -3  13-629.048 643.890   1
  -3  -3  13-356.687 742.115   1
   6  -3  13 111.225 646.305   2
  -6   3 -13 479.135 466.220   1
   6  -3  14 50594.8 4610.20   1
  -6   3 -14 55322.4 4508.08   1
   6  -3  14 54541.2 4714.98   2
   3   3 -14 51036.5 4411.86   1
  -3  -3  14 48351.0 4358.00   1
  -6   3 -15-542.234 563.705   1
  -3  -3  15-352.541 647.512   1
   6  -3  15 464.501 453.638   1
   6  -3  15 613.051 725.564   2
   3   3 -16 66268.6 5169.19   1
  -6   3 -16 69326.9 5297.52   1
   6  -3  16 63028.9 4981.86   2
  -3  -3  16 58811.6 5136.03   1
   6  -3  16 60939.4 5095.73   1
   3   3 -17-285.854 561.075   1
   6  -3  17-272.552 574.915   2
   6  -3  17-655.522 247.439   1
  -6   3 -17-613.206 545.872   1
  -3  -3  17-35.1143 212.788   1
   3   3 -18-545.356 276.377   1
  -3  -3  18-1.91629 206.515   1
   6  -3  18-793.626 241.364   1
  -6   3 -18-461.373 837.113   1
   6  -3  18 744.798 807.113   2
   3   3 -19 302.397 505.289   1
  -3  -3  19 230.222 663.978   1
   6  -3  19 550.728 653.047   2
   2   4  19 24297.6 3501.91   1
   4   2  19 25123.4 3469.87   1
  -4  -2 -19 25584.1 3438.46   1
   4   2  19 17826.3 3033.75   2
   4  -6  19 20979.5 3177.99   2
   4  -6  18 45507.7 4704.19   1
   2  -6  18 37058.8 4188.60   2
   2   4  18 44243.2 4593.25   1
   4   2  18 42078.9 4415.81   1
  -2  -4 -18 41192.3 4220.38   1
  -4  -2 -18 47831.4 4498.71   1
  -2   6 -18 42106.6 4315.45   1
   4   2  18 29243.6 3968.69   2
  -4   6 -18 45123.4 4287.68   1
   4  -6  18 43510.7 4500.52   2
   4   2  17 7026.52 1851.92   2
  -2   6 -17 9935.84 2016.37   1
  -4   6 -17 9158.20 2046.47   1
   2   4  17 10508.8 2072.77   1
   4   2  17 9758.02 2044.72   1
   2  -6  17 4856.54 1607.42   2
   4  -6  17 9356.18 1989.60   1
   2  -6  17 8862.69 1920.66   1
   4  -6  17 6463.10 1677.30   2
  -2  -4 -17 7210.68 1681.66   1
  -4  -2 -17 7762.16 1652.54   1
   4  -6  16 25821.0 3360.01   1
   2   4  16 27237.1 3442.52   1
   4   2  16 25331.4 3295.84   1
   4   2  16 19410.1 2933.32   2
  -2   6 -16 25138.0 3231.14   1
   2   4  16 23416.9 3124.66   2
  -4  -2 -16 28125.2 3208.65   1
   4  -6  16 22440.2 3072.36   2
  -2  -4 -16 25528.8 3242.11   1
   2  -6  16 21121.5 3112.42   2
  -4   6 -16 30221.3 3358.04   1
   2  -6  16 27426.7 3551.66   1
   2  -6  15 14008.1 2490.31   1
   4  -6  15 11936.3 2223.92   1
  -4   6 -15 13806.8 2393.60   1
   4   2  15 12632.0 2273.35   1
  -2   6 -15 13576.2 2345.73   1
   2   4  15 11742.2 2185.57   1
   2   4  15 13208.5 2224.66   2
   4  -6  15 11173.0 2114.71   2
   2  -6  15 13827.0 2325.91   2
  -2  -4 -15 13907.4 2281.84   1
  -4  -2 -15 12318.4 2162.93   1
   4   2  15 12926.9 2111.65   2
   4  -6  14 89502.1 6059.72   1
   4   2  14 95518.1 6301.00   1
   2   4  14 85244.3 5982.11   1
   4  -6  14 90705.9 6040.21   2
  -4  -2 -14 97605.2 6200.30   1
   4   2  14 74491.2 5536.44   2
   2   4  14 88149.7 5800.08   2
  -2   6 -14 89826.0 5957.01   1
   2  -6  14 81388.0 5981.36   2
  -4   6 -14 90579.8 5898.68   1
   2  -6  14 87548.7 6188.46   1
   4   2  13 24123.5 2995.24   1
  -4  -2 -13 19475.9 2631.52   1
  -2  -4 -13 24012.3 2907.69   1
   2   4  13 22746.5 2894.61   1
  -2   6 -13 19903.8 2687.27   1
   2  -6  13 18829.7 2711.20   1
   4  -6  13 18457.2 2655.22   1
   2  -6  13 18805.3 2709.39   2
   4  -6  13 18521.4 2633.35   2
   4   2  13 20849.6 2672.74   2
  -4   6 -13 22543.9 2818.13   1
   2   4  13 21792.7 2751.21   2
   4  -6  12 20101.2 2658.26   1
   4   2  12 22163.9 2805.38   1
   2   4  12 24234.8 2960.45   1
   4  -6  12 23531.3 2903.45   2
  -4  -2 -12 21252.0 2691.27   1
  -2  -4 -12 27277.1 3024.98   1
   2  -6  12 20547.3 2880.76   2
   2   4  12 18234.8 2459.25   2
   4   2  12 23424.3 2844.07   2
  -4   6 -12 19863.7 2499.76   1
  -2   6 -12 22749.6 2839.76   1
   2  -6  12 19411.7 2832.51   1
   4  -6  11 31256.7 3287.35   1
   4   2  11 32745.7 3250.68   1
   2   4  11 28965.0 3203.80   1
   4   2  11 34072.1 3317.39   2
  -4  -2 -11 34590.1 3335.28   1
  -2  -4 -11 32923.2 3262.03   1
   4  -6  11 32552.7 3236.97   2
  -4   6 -11 29270.2 3106.94   1
   2   4  11 37733.6 3499.78   2
   2  -6  11 28017.7 3134.69   2
  -2   6 -11 37294.1 3420.57   1
   2  -6  11 32614.8 3419.54   1
   4  -6  10 141979. 7283.37   1
  -2  -4 -10 144189. 7129.30   1
   2  -6  10 145872. 7422.21   2
  -4  -2 -10 133925. 6991.71   1
   4  -6  10 149888. 7242.73   2
   6  -2 -10 175488. 7280.39   1
  -6   2  10 156406. 6894.30   1
   2   4  10 132281. 7115.09   1
   4   2  10 161205. 7548.74   2
  -2   6 -10 137079. 7069.92   1
  -4   6 -10 137693. 7013.80   1
   4   2  10 144100. 7249.03   1
   2   4  10 155079. 7940.21   2
  -4  -2  -9 174062. 7780.43   1
  -2   6  -9 145901. 7287.16   1
   2   4   9 155924. 7399.90   1
   2  -6   9 163229. 7460.61   1
   2  -6   9 161877. 7743.90   2
   6  -2  -9 173014. 7045.80   1
  -2  -4  -9 145663. 7007.73   1
   2   4   9 176101. 8214.67   2
   4  -6   9 159708. 7602.62   1
   4   2   9 152865. 7479.53   1
  -4   6  -9 169033. 7525.99   1
   4   2   9 164546. 7723.07   2
   4  -6   9 171933. 7826.53   2
   4  -6   8 8033.82 1597.82   2
  -2   6  -8 9083.49 1655.23   1
  -6   2   8 8345.57 1460.83   1
  -4  -2  -8 7487.53 1581.85   1
   4   2   8 6649.80 1218.92   2
  -2  -4  -8 7768.18 1422.98   1
  -4   6  -8 8195.00 1502.21   1
   4   2   8 6530.48 1281.05   1
   2   4   8 9058.84 1636.39   1
   2  -6   8 8755.45 1671.89   2
   4  -6   8 8378.15 1639.88   1
   2  -6   8 7132.90 1459.30   1
   6  -2  -8 6589.20 1207.84   1
  -2   6  -7 140549. 6830.34   1
   4  -6   7 159140. 7138.43   1
   6  -2  -7 179814. 6761.53   1
   2  -6   7 162758. 7409.68   2
   4   2   7 152572. 7017.66   1
   2  -6   7 153657. 6921.78   1
   2   4   7 158160. 7110.52   1
   4  -6   7 161131. 7260.31   2
  -4  -2  -7 153938. 6982.06   1
  -6   2   7 173139. 6831.64   1
  -2  -4  -7 147744. 6726.99   1
   4   2   7 179152. 7993.99   2
  -4   6  -7 155361. 6927.80   1
   4  -6   6 447439. 13297.4   1
   2  -6   6 445830. 13233.4   1
   4   2   6 452575. 13705.5   1
   2   4   6 399430. 12931.9   1
   2  -6   6 476132. 14099.0   2
  -6   2   6 403159. 12222.4   1
   6  -2  -6 453266. 12287.9   1
   4  -6   6 461898. 13595.6   2
  -4  -2  -6 407059. 12986.7   1
  -2   6  -6 431482. 13267.1   1
  -2  -4  -6 441390. 13054.7   1
   4   2   6 532586. 14858.5   2
  -4   6  -6 423928. 12890.4   1
  -2   6  -5 77814.6 4524.79   1
   4   2   5 75043.4 4569.47   1
   2   4   5 78413.4 4563.50   1
  -6   2   5 67968.1 3900.37   1
   6  -2  -5 67163.8 3193.92   2
  -4   6  -5 79935.6 4411.60   1
  -4  -2  -5 82125.7 4662.78   1
   4  -6   5 75235.9 4605.39   2
   2  -6   5 71703.4 4603.22   2
   2  -6   5 68549.2 4258.62   1
  -2  -4  -5 83082.6 4646.98   1
   4  -6   5 82588.7 4604.01   1
   2  -6   4 370602. 11762.5   2
  -6   2   4 312394. 10178.6   1
   4   2   4 345378. 11368.2   1
   2   4   4 351844. 11299.8   1
   6  -2  -4 304598. 9940.23   1
  -2  -4  -4 344310. 11087.6   1
  -4   6  -4 394650. 11085.4   1
   2  -6   4 404465. 11423.6   1
  -4  -2  -4 358742. 11438.9   1
   4  -6   4 415436. 11933.5   2
  -2   6  -4 363470. 11190.5   1
   6  -2  -4 384209. 9811.03   2
   4  -6   4 396200. 11345.5   1
  -4  -2  -3 232801. 8560.83   1
  -6   2   3 271451. 8311.96   1
   6  -4  -3 225777. 6257.40   1
  -4   6  -3 227171. 7772.64   1
   4   2   3 239675. 8638.86   1
   6  -4  -3 234416. 7047.07   2
   2   4   3 244677. 8739.85   1
   6  -2  -3 263516. 8123.16   1
   4  -6   3 232259. 8592.27   2
   2  -6   3 261948. 8498.02   1
  -6   4   3 248143. 6452.53   1
   2  -6   3 255655. 9180.55   2
  -2  -4  -3 255828. 8737.03   1
  -2   6  -3 204916. 7945.25   1
   6  -2  -3 214127. 7233.76   2
   4  -6   3 244909. 8202.47   1
  -6   2   2 552585. 13909.1   1
  -4  -2  -2 542691. 14694.0   1
   6  -2  -2 452744. 12994.6   2
   2  -6   2 512912. 14781.6   2
  -2  -4  -2 550909. 14655.6   1
   6  -4  -2 463139. 11787.0   1
   2  -6   2 542087. 13923.1   1
   6  -2  -2 590076. 13835.9   1
   4   2   2 535833. 14579.2   1
   4  -6   2 553067. 14622.4   2
   2   4   2 537585. 14575.6   1
  -2   6  -2 517338. 14115.3   1
   2  -6   1 41021.2 2851.05   1
  -4  -2  -1 42291.5 3184.52   1
   6  -4  -1 52387.6 2620.86   1
   6  -4  -1 37254.8 2770.25   2
   6  -2  -1 46278.0 3013.43   2
  -2  -4  -1 41988.7 3177.30   1
   6  -2  -1 42384.6 2898.41   1
   4   2   1 47319.9 3412.39   1
   2   4   1 42780.1 3204.51   1
  -6   4   1 48344.4 2546.57   1
   2  -6   1 46287.9 3565.51   2
  -2   6  -1 40166.6 2939.50   1
   4  -6   1 40756.8 3163.79   2
  -4   6  -1 41783.4 2577.42   1
   4  -6   1 46614.3 2628.34   1
  -6   2   1 45642.3 2985.28   1
  -4  -2   0 7970.13 1436.69   1
   4  -6   0 9156.70 1033.00   1
   6  -4   0 9007.52 1273.41   2
   4  -6   0 8435.82 1427.15   2
   2  -6   0 9442.59 1714.78   2
  -6   4   0 8466.50 1092.28   1
  -6   2   0 8193.93 1254.56   1
   6  -2   0 6832.96 1170.02   1
  -2  -4   0 10638.2 1554.40   1
   2  -6   0 8459.09 1227.94   1
   6  -2   0 11863.4 1529.63   2
  -4   6   0 9187.41 1062.04   1
   6  -4   0 8149.33 1074.13   1
   2   4   0 7285.60 1307.19   1
  -2   6   0 8217.21 1217.52   1
   4   2   0 9995.57 1492.25   1
  -6   4  -1 3828.16 752.737   1
   2   4  -1 4616.37 1034.28   1
   6  -4   1 4273.08 862.938   1
  -6   2  -1 5216.07 960.339   1
  -4  -2   1 4550.45 1130.45   1
   6  -2   1 4791.38 970.842   1
   4  -6  -1 6419.68 1212.88   2
   4   2  -1 5810.58 1223.67   1
  -2   6   1 4974.94 879.341   1
  -4   6   1 4243.78 669.888   1
   6  -4   1 7015.64 1251.15   2
  -2  -4   1 6492.16 1303.89   1
   2  -6  -1 4290.80 848.344   1
   6  -2   1 5954.21 1147.87   2
   4  -6  -1 5110.39 658.852   1
   2   4  -2 449521. 12078.7   1
   6  -2   2 427128. 11227.4   1
   2  -6  -2 378549. 10070.7   1
   6  -4   2 408099. 11342.7   2
  -6   4  -2 358359. 10333.0   1
  -4  -2   2 410625. 11854.0   1
   4  -6  -2 471062. 11826.5   2
  -2   6   2 404529. 10386.1   1
   4   2  -2 449580. 11858.3   1
   6  -2   2 331830. 10709.7   2
  -6   2  -2 415246. 11381.5   1
  -2  -4   2 397533. 11605.5   1
   6  -2   3 446827. 13135.4   2
   6  -4   3 466999. 12646.8   1
   6  -2   3 504598. 13232.3   1
   4   2  -3 476488. 13264.2   1
  -6   4  -3 502981. 12976.9   1
  -2  -4   3 463278. 13483.1   1
  -2   6   3 461181. 12078.2   1
  -4  -2   3 423617. 13186.6   1
   2   4  -3 442726. 13360.2   1
   6  -4   3 481682. 13578.7   2
  -6   2  -3 402584. 12635.2   1
  -6   2  -4-99.5294 292.382   1
  -4  -2   4-96.6275 421.481   1
   6  -4   4 239.068 363.484   1
  -2  -4   4 245.032 251.529   1
   6  -2   4-269.403 478.871   1
  -2   6   4 30.3617 229.516   1
   2  -6  -4 213.772 199.693   1
  -6   4  -4 294.587 263.153   1
   4   2  -4-202.987 378.134   1
   6  -4   4 236.743 441.937   2
   2   4  -4 106.211 404.933   1
   6  -2   4 574.530 554.661   2
  -2  -4   5 412290. 12686.7   1
   6  -4   5 478419. 12731.7   1
  -6   4  -5 402242. 12089.3   1
  -2   6   5 324664. 10425.8   1
   4   2  -5 467633. 13016.3   1
  -6   2  -5 393274. 12402.2   1
   6  -2   5 465757. 13096.5   2
  -4  -2   5 437638. 12841.5   1
   6  -4   5 410811. 12525.2   2
   6  -2   5 386648. 12172.3   1
   2   4  -5 401717. 12778.0   1
   6  -4   6 316641. 10512.2   1
   6  -2   6 350119. 11173.1   1
   6  -2   6 354681. 11192.2   2
  -6   4  -6 292395. 10261.9   1
  -2   6   6 341551. 9656.10   1
  -6   2  -6 285490. 10408.9   1
   4   2  -6 278198. 10341.6   1
   2   4  -6 365526. 11841.8   1
   6  -4   6 388040. 11881.2   2
   2  -6  -6 299903. 9165.46   1
  -4  -2   6 337319. 11144.2   1
  -2  -4   6 316327. 11124.0   1
  -4  -2   7 20277.1 2336.62   1
   6  -4   7 18024.4 2162.10   1
  -2  -4   7 20850.6 2413.35   1
  -6   4  -7 19353.6 2315.66   1
  -6   2  -7 24160.6 2558.17   1
  -2   6   7 29486.9 2326.00   1
   2  -6  -7 18729.5 1858.43   1
   4   2  -7 21285.8 2478.09   1
   2   4  -7 22732.9 2681.53   1
   6  -4   7 22241.5 2624.74   2
   6  -2   7 21606.2 2452.29   2
   6  -2   7 19903.6 2325.87   1
  -4  -2   8 127393. 6506.29   1
   6  -4   8 112578. 6045.47   1
   6  -2   8 122624. 6362.37   1
  -2   6   8 114915. 5355.26   1
  -6   4  -8 113926. 6088.51   1
   6  -2   8 135500. 6495.38   2
   2   4  -8 114065. 6205.09   1
  -2  -4   8 114048. 6128.71   1
  -6   2  -8 116814. 6194.18   1
   6  -4   8 121813. 6383.16   2
   2  -6  -8 129979. 5380.70   1
   4   2  -8 128858. 6423.56   1
   6  -4   9 33318.8 3297.71   1
  -4  -2   9 35844.6 3379.71   1
  -6   4  -9 36380.9 3391.19   1
   4   2  -9 39282.7 3637.08   1
  -6   2  -9 34188.8 3257.66   1
  -2  -4   9 34518.4 3280.62   1
   2   4  -9 34730.2 3341.48   1
   6  -2   9 35090.7 3384.51   2
   6  -2   9 35472.3 3289.06   1
   6  -4   9 37141.1 3426.57   2
   6  -4  10 260034. 10517.2   1
   6  -2  10 295928. 10775.5   1
  -6   4 -10 287936. 10704.7   1
  -4  -2  10 285548. 10764.1   1
   6  -4  10 270567. 10563.9   2
  -2  -4  10 289688. 10808.8   1
  -6   2 -10 267967. 10553.2   1
   2   4 -10 274312. 10487.7   1
   6  -2  10 281663. 10722.5   2
   6  -4  11 59423.1 4677.69   1
   4   2 -11 56065.0 4364.75   1
   6  -2  11 57176.0 4377.26   1
  -6   4 -11 65655.0 4754.66   1
  -4  -2  11 61695.0 4627.58   1
  -6   2 -11 59585.2 4545.13   1
   6  -4  11 56709.2 4420.92   2
   2   4 -11 59179.5 4512.89   1
   6  -2  11 54514.8 4364.37   2
  -2  -4  11 56479.1 4453.62   1
  -2  -4  11 44723.9 4102.10   2
  -2  -4  12 24780.7 3108.18   2
   6  -4  12 17422.4 2528.77   1
  -2  -4  12 21837.8 2795.28   1
  -6   4 -12 22814.4 2821.93   1
  -6   2 -12 19999.7 2676.24   1
   4   2 -12 21240.6 2776.11   1
  -4  -2  12 22152.1 2812.36   1
   6  -2  12 18500.0 2619.07   1
   6  -2  12 18893.3 2631.44   2
   2   4 -12 21205.9 2650.10   1
   6  -4  12 22794.3 2782.36   2
   6  -4  13 20923.7 2769.22   1
  -2  -4  13 23928.1 2990.82   1
   6  -2  13 22201.4 2889.70   1
  -6   4 -13 25019.5 2957.41   1
  -6   2 -13 18352.1 2597.54   1
  -2  -4  13 22278.6 3073.28   2
  -4  -2  13 23471.3 2909.35   1
   2   4 -13 17959.5 2530.94   1
   4   2 -13 23056.2 2957.91   1
   6  -2  13 20626.6 2820.70   2
   6  -4  13 21738.0 2787.67   2
   6  -4  14 70818.6 5381.03   1
  -6   4 -14 69835.0 5294.85   1
  -6   2 -14 76674.6 5404.03   1
  -4  -2  14 69630.1 5260.64   1
   6  -2  14 72718.9 5453.09   1
   6  -4  14 69388.9 5238.41   2
  -2  -4  14 74689.8 5335.82   1
   6  -2  14 78180.7 5589.31   2
   2   4 -14 66941.9 5113.61   1
   4   2 -14 67234.9 5159.15   1
  -6   4 -15 32483.5 3682.63   1
   6  -2  15 26139.6 3350.28   2
  -6   2 -15 31856.4 3525.60   1
   6  -2  15 32098.8 3525.73   1
  -4  -2  15 25379.5 3092.81   1
   4   2 -15 28217.4 3323.19   1
   6  -4  15 31636.3 3539.17   2
  -2  -4  15 26990.7 3279.57   1
   2   4 -15 29102.3 3366.66   1
   6  -4  15 27237.9 3322.07   1
   4   2 -16 362.093 232.509   1
   2   4 -16-185.394 415.019   1
  -2  -4  16-899.945 627.067   1
   6  -4  16-353.408 687.380   1
   6  -2  16-9.05633 479.945   1
  -6   4 -16 41.5176 324.132   1
  -6   2 -16 398.056 687.336   1
   6  -2  16 744.740 689.681   2
  -4  -2  16-182.825 493.612   1
   6  -4  16 98.0407 483.546   2
   6  -4  17 24015.0 3248.87   1
  -6   4 -17 21072.5 3002.30   1
  -6   2 -17 20586.9 2970.17   1
  -4  -2  17 18934.1 2908.70   1
  -2  -4  17 17555.4 2793.63   1
   6  -2  17 16509.1 3014.02   2
   6  -2  17 20302.0 3002.10   1
   6  -4  17 19648.3 2951.07   2
   2   4 -17 20474.2 2941.87   1
   4   2 -17 14517.0 2511.74   1
   6  -4  18 31268.8 3691.46   1
  -6   4 -18 33221.7 3777.09   1
   4   2 -18 25213.4 3390.02   1
  -6   2 -18 37792.6 3927.88   1
  -4  -2  18 24158.7 3315.77   1
  -2  -4  18 32322.7 3741.29   1
   6  -4  18 26533.3 3524.43   2
   2   4 -18 32596.7 3748.09   1
   6  -2  18 27525.3 3826.87   2
   6  -2  18 32510.1 3688.25   1
   2   4 -19 11346.5 2244.30   1
  -2  -4  19 10541.5 2180.25   1
   4   2 -19 6842.23 1717.97   1
  -4  -2  19 6583.09 1732.55   1
   6  -2  19 6727.08 1944.71   2
   6  -4  19 9538.08 2032.77   2
   5   1  19 3172.69 1392.31   2
   5  -6  19 4876.98 1560.11   2
   5  -6  18 31943.2 3887.43   1
   5   1  18 35349.5 3935.39   1
  -5  -1 -18 33570.9 3855.73   1
   1  -6  18 34777.6 3769.97   1
   5  -6  18 32910.7 3758.57   2
   5   1  18 28280.5 3772.83   2
  -1   6 -18 38615.2 3997.39   1
  -5   6 -18 33163.5 3746.57   1
   5  -6  17 7447.37 1875.50   1
   5  -6  17 9027.73 1944.01   2
   5   1  17 7459.83 1876.44   1
   5   1  17 5774.47 1896.70   2
  -5  -1 -17 7789.09 1822.22   1
   1  -6  17 6023.41 1601.11   2
   1  -6  17 9823.94 2097.75   1
  -5   6 -17 9146.47 1989.06   1
  -1   6 -17 8017.60 1869.38   1
   1   5  16 2761.65 1059.13   1
  -1   6 -16 3525.65 1482.15   1
   5  -6  16 3166.84 1312.40   1
   5   1  16 2918.62 1088.14   1
  -5   6 -16 2623.42 987.966   1
   1  -6  16 2386.95 1117.96   1
  -5  -1 -16 3101.05 1150.75   1
   1  -6  16 2009.51 1069.93   2
   5  -6  16 2177.07 766.859   2
   5   1  16 3116.52 1290.17   2
   5   1  15 32244.3 3612.60   2
   5   1  15 30382.8 3540.05   1
   5  -6  15 27785.2 3501.20   1
   1  -6  15 31148.7 3566.53   1
  -1  -5 -15 29203.9 3413.58   1
  -5  -1 -15 34472.8 3653.57   1
   1  -6  15 28198.9 3597.73   2
   1   5  15 21492.0 2791.41   2
  -1   6 -15 32735.7 3521.86   1
   1   5  15 29817.4 3580.27   1
   5  -6  15 27984.9 3339.81   2
  -5   6 -15 28659.2 3368.63   1
   5  -6  14 86938.2 6155.89   1
   1   5  14 92263.7 6061.95   1
   1  -6  14 91382.2 5991.54   1
  -5  -1 -14 84979.3 5811.11   1
  -1  -5 -14 89303.8 5969.96   1
   5  -6  14 71029.7 5487.62   2
   1  -6  14 79332.1 5883.19   2
   5   1  14 82140.9 5746.42   2
  -1   6 -14 102367. 6366.75   1
   1   5  14 56179.4 4758.57   2
   5   1  14 91022.8 6153.14   1
  -5   6 -14 88152.6 5907.56   1
   5  -6  13 43789.7 4229.79   1
   5   1  13 44272.8 4185.19   1
   1   5  13 51865.2 4459.21   1
   5  -6  13 43543.8 4131.80   2
   1  -6  13 47582.1 4204.29   1
  -1  -5 -13 45932.1 4121.38   1
   1  -6  13 39988.4 4030.15   2
   1   5  13 27497.9 3216.75   2
   5   1  13 49912.4 4423.70   2
  -5  -1 -13 52524.2 4420.52   1
  -1   6 -13 42192.5 4055.90   1
  -6   1  13 47688.4 4286.02   1
  -5   6 -13 45932.5 4067.29   1
  -5   6 -12 48142.7 4153.46   1
   5  -6  12 52451.3 4576.02   1
  -6   1  12 69873.7 4932.60   1
   5   1  12 52859.2 4401.63   1
   1  -6  12 51041.4 4241.05   1
   1   5  12 54385.7 4365.77   1
  -5  -1 -12 48965.0 4177.76   1
  -1  -5 -12 63956.9 4719.07   1
   5  -6  12 49419.7 4193.19   2
   6  -1 -12 56107.7 4482.10   1
   1  -6  12 46982.8 4194.95   2
   5   1  12 53793.9 4310.88   2
  -1   6 -12 35353.7 3742.71   1
   1   5  12 24966.3 3075.78   2
  -5   6 -11 31762.1 3314.17   1
   5  -6  11 34057.9 3389.46   1
   1  -6  11 30450.4 3149.39   1
   5   1  11 33461.6 3315.92   1
   1   5  11 28522.6 3182.67   1
  -5  -1 -11 26841.2 3023.91   1
  -1  -5 -11 35482.5 3331.70   1
   5  -6  11 32834.0 3360.17   2
   1  -6  11 27538.6 3174.63   2
  -1   6 -11 36227.0 3553.78   1
   6  -1 -11 37197.0 3562.63   1
   5   1  11 32229.6 3256.82   2
   1   5  11 29486.3 3379.03   2
  -6   1  11 28699.6 3030.41   1
  -5   6 -10 305458. 11419.3   1
   5  -6  10 291151. 11588.3   1
   1  -6  10 332362. 11731.8   1
   5   1  10 305729. 11354.8   2
  -1  -5 -10 369991. 12044.6   1
   5   1  10 305131. 11563.9   1
   1  -6  10 314275. 11714.6   2
  -5  -1 -10 300235. 11357.5   1
   5  -6  10 296135. 11406.5   2
   6  -1 -10 380174. 12019.1   1
   1   5  10 303193. 11554.0   1
  -1   6 -10 359005. 12197.2   1
  -6   1  10 298473. 10965.0   1
  -5   6  -9 26384.0 2844.26   1
  -1  -5  -9 29485.1 2891.71   1
   6  -1  -9 20931.3 2438.25   1
   5   1   9 25252.9 2820.41   1
   1   5   9 27303.3 2786.16   1
  -5  -1  -9 27216.9 2846.21   1
   5   1   9 21862.8 2617.24   2
  -1   6  -9 19649.9 2499.94   1
   1  -6   9 23113.3 2712.74   2
   5  -6   9 21376.9 2678.40   1
   5  -6   9 25006.3 2846.39   2
  -6   1   9 26399.8 2713.66   1
   1  -6   9 21643.5 2493.75   1
  -5   6  -8 20798.2 2503.16   1
   5  -6   8 21767.1 2594.83   1
   1  -6   8 20217.3 2413.09   1
  -1  -5  -8 25784.2 2682.65   1
   5   1   8 20266.0 2501.73   1
   1   5   8 23940.0 2506.46   1
   1  -6   8 20998.7 2675.99   2
   6  -1  -8 25104.9 2512.63   1
  -6   1   8 24815.3 2581.70   1
  -1   6  -8 20352.8 2531.46   1
   5   1   8 23250.2 2717.53   2
  -5  -1  -8 24199.6 2644.65   1
   5  -6   8 22246.9 2633.29   2
  -5   6  -7 138134. 6493.94   1
   5  -6   7 140069. 6702.76   1
   5   1   7 131589. 6430.11   1
   1   5   7 119432. 6105.69   1
   6  -1  -7 144774. 6259.90   1
   1  -6   7 117172. 6554.85   2
  -6   1   7 130513. 6090.32   1
  -5  -1  -7 127409. 6380.25   1
   5  -6   7 117851. 6302.40   2
   1  -6   7 124770. 6257.00   1
  -1  -5  -7 117578. 5923.67   1
  -1   6  -7 123345. 6364.79   1
   5   1   7 134829. 6640.13   2
  -5   6  -6 37012.2 3058.27   1
   5  -6   6 43373.7 3503.56   1
   5   1   6 35620.8 3156.54   1
   1   5   6 36742.4 3119.19   1
   5  -6   6 41529.3 3393.31   2
  -1  -5  -6 32121.9 2890.79   1
   6  -1  -6 40946.2 3084.92   1
  -6   1   6 44335.1 3350.87   1
  -5  -1  -6 39880.2 3294.67   1
   1  -6   6 33063.4 3078.12   1
  -1   6  -6 41849.2 3365.87   1
   5   1   6 40794.3 3437.13   2
   1  -6   6 40447.0 3473.34   2
   5  -6   5 244903. 8351.03   1
   5   1   5 230276. 8560.89   1
   1   5   5 229869. 8229.18   1
  -6   1   5 228837. 8031.27   1
   1  -6   5 241304. 8476.37   1
   1  -6   5 215171. 8586.68   2
   5  -6   5 220894. 8346.51   2
   6  -1  -5 249645. 8107.29   1
  -1   6  -5 214597. 8167.61   1
  -5  -1  -5 219045. 8192.86   1
   5   1   5 249415. 8919.13   2
  -1  -5  -5 191850. 7390.50   1
  -5   6  -5 200741. 7524.79   1
   5  -6   4 5353.71 1034.76   1
  -5   6  -4 4941.48 1004.96   1
   5   1   4 5692.86 1339.41   2
   1  -6   4 5186.82 1116.77   1
   6  -1  -4 3683.77 893.536   1
  -6   1   4 5283.84 1119.46   1
  -5  -1  -4 3250.54 815.661   1
   5   1   4 4811.70 1190.85   1
   1  -6   4 4774.70 1265.06   2
   1   5   4 4678.27 1075.71   1
   6  -5  -4 4690.24 762.960   2
   5  -6   4 3860.71 1052.71   2
  -1  -5  -4 3413.19 876.284   1
   6  -1  -4 1946.39 581.382   2
  -1   6  -4 4754.13 1120.23   1
   5  -6   3 22260.8 2110.66   1
  -1  -5  -3 21588.6 2244.88   1
   1  -6   3 26743.8 2519.40   1
  -1   6  -3 24836.6 2536.23   1
  -6   1   3 21030.2 2242.22   1
   5   1   3 24300.7 2518.08   1
   6  -5  -3 25265.7 1983.74   2
   1   5   3 22963.0 2436.57   1
   6  -1  -3 25274.2 2328.37   1
   1  -6   3 25193.0 2842.13   2
   5  -6   3 18251.8 2181.69   2
   6  -1  -3 20057.1 1934.78   2
  -5  -1  -3 20129.7 2263.50   1
   5   1   3 27177.8 2734.89   2
  -5   6  -3 23161.5 2087.51   1
   1  -6   2 999999. 25082.1   2
   6  -5  -1 100200. 3437.65   1
  -6   1   1 90326.6 4839.45   1
  -5  -1  -1 84813.6 4883.88   1
  -6   5   1 102933. 3516.35   1
  -1  -5  -1 84166.7 4692.31   1
   6  -1  -1 124937. 5373.52   1
   5   1   1 99075.6 5107.90   1
   1   5   1 89646.3 4916.40   1
   6  -5  -1 92307.8 4545.49   2
   5  -6   1 103115. 5082.23   2
  -1   6  -1 105413. 5158.57   1
   1  -6   1 104299. 5026.12   1
   6  -1  -1 125310. 5324.87   2
  -5   6  -1 83288.1 3762.44   1
   5  -6   1 98896.6 4128.89   1
   5  -6   0 249557. 7096.44   1
   6  -5   0 286502. 7741.59   1
  -5  -1   0 294825. 9705.33   1
  -1   6   0 277645. 9193.68   1
   6  -1   0 298946. 9391.42   2
   6  -1   0 296132. 9451.48   1
   5   1   0 259381. 9362.18   1
  -6   5   0 270318. 7604.46   1
  -1  -5   0 276541. 9524.07   1
   1   5   0 282454. 9346.98   1
   1  -6   0 295677. 9232.47   1
   6  -5   0 294673. 9204.85   2
  -5   6   0 267927. 7352.21   1
   5  -6   0 282429. 9369.39   2
  -6   1   0 346761. 10060.8   1
  -5  -1   1 569797. 15287.5   1
   6  -5   1 534617. 14311.8   2
   6  -1   1 615176. 15041.5   1
   1   5  -1 530115. 14662.5   1
   5   1  -1 446739. 14031.2   1
   1  -6  -1 491527. 13821.0   1
  -1   6   1 558244. 14227.5   1
  -1  -5   1 504920. 14386.8   1
   5  -6  -1 573374. 14565.3   2
  -6   1  -1 548907. 14621.4   1
   6  -5   1 490465. 12854.1   1
  -1  -5   2 371420. 11198.7   1
  -6   5  -2 313706. 9535.69   1
   6  -5   2 431032. 10653.0   1
   1  -6  -2 410644. 10842.4   1
   6  -1   2 325073. 10621.5   1
  -5  -1   2 375672. 11312.5   1
   5  -6  -2 318821. 10084.4   2
   1   5  -2 312640. 10802.7   1
  -1   6   2 289250. 9819.70   1
   5   1  -2 332424. 10741.8   1
   6  -5   2 327205. 10666.8   2
   6  -1   2 381164. 11100.1   2
  -6   1  -2 284123. 10165.4   1
   6  -5   3 88340.5 4422.85   1
   6  -1   3 95676.2 4849.78   2
   1  -6  -3 74701.5 4121.03   1
  -6   5  -3 71500.0 3960.09   1
   6  -1   3 90271.5 4791.05   1
   1   5  -3 78734.4 4714.55   1
   6  -5   3 87172.9 4721.76   2
  -5  -1   3 77460.1 4581.67   1
  -1   6   3 75962.1 4122.08   1
  -6   1  -3 70626.1 4296.53   1
   5   1  -3 60873.8 3987.22   1
   5  -6  -3 91212.6 4410.94   2
  -1  -5   3 71018.0 4424.09   1
  -1  -5   4 17177.4 2138.78   1
   1  -6  -4 18398.7 1857.96   1
   6  -5   4 14306.2 1741.10   1
  -6   5  -4 17517.0 1909.56   1
   6  -1   4 14028.3 1848.51   1
   6  -5   4 17015.0 2068.86   2
  -1   6   4 14320.7 1737.05   1
  -5  -1   4 15588.1 2039.16   1
   5   1  -4 18023.3 2009.34   1
   5  -6  -4 20741.8 2068.29   2
   1   5  -4 15120.7 2075.12   1
  -6   1  -4 15447.1 1968.33   1
   6  -1   4 17813.1 2107.25   2
  -1  -5   5 6258.57 1362.48   1
  -5  -1   5 6099.71 1316.35   1
  -6   1  -5 4188.19 954.132   1
   1  -6  -5 5927.97 1156.16   1
   6  -5   5 6195.94 1372.63   2
   6  -1   5 6027.48 1290.00   1
  -1   6   5 5858.08 1092.37   1
  -6   5  -5 6231.56 1221.00   1
   6  -5   5 8212.47 1392.05   1
   5   1  -5 6889.02 1198.90   1
   6  -1   5 6475.89 1263.31   2
   1   5  -5 5183.27 1253.53   1
   6  -5   6 166350. 7240.00   1
  -6   5  -6 145196. 6889.08   1
  -1  -5   6 176590. 7529.53   1
   6  -1   6 176891. 7674.51   1
   1   5  -6 162975. 7646.35   1
  -1   6   6 184812. 7148.09   1
  -6   1  -6 163908. 7366.56   1
   5   1  -6 157058. 7032.12   1
   6  -5   6 172931. 7566.97   2
  -5  -1   6 163653. 7228.97   1
   6  -1   6 186523. 7740.34   2
   1  -6  -6 188778. 6961.19   1
  -6   5  -7 114241. 5901.33   1
   6  -1   7 101528. 5623.18   1
  -1   6   7 114750. 5448.77   1
  -1  -5   7 100011. 5626.43   1
  -6   1  -7 86400.5 5389.80   1
   6  -1   7 113371. 5987.11   2
   5   1  -7 98048.7 5496.19   1
   6  -5   7 110068. 5830.12   2
   1  -6  -7 120003. 5431.63   1
   1   5  -7 106528. 5982.77   1
  -5  -1   7 114906. 6009.83   1
   6  -5   7 87177.8 5262.38   1
   6  -5   8 26216.5 2746.56   1
  -6   5  -8 19619.6 2419.75   1
   1   5  -8 21261.7 2400.00   1
   6  -1   8 20529.7 2542.35   1
  -1   6   8 23146.3 2402.01   1
   5   1  -8 26618.8 2776.53   1
  -1  -5   8 24305.9 2661.11   1
  -6   1  -8 23586.7 2660.29   1
   1  -6  -8 20866.7 2257.23   1
  -1  -5   8 24038.3 2781.52   2
   6  -5   8 24342.6 2607.54   2
   6  -1   8 21677.9 2681.60   2
  -5  -1   8 22132.7 2603.57   1
   6  -5   9 215570. 9131.41   1
   6  -1   9 180648. 8659.96   1
  -1   6   9 276909. 9557.91   1
  -6   1  -9 229140. 9325.12   1
   1   5  -9 217343. 9153.87   1
  -1  -5   9 225028. 9342.92   1
   1  -6  -9 252099. 8898.37   1
  -1  -5   9 243084. 10094.3   2
   5   1  -9 218506. 9187.57   1
   6  -5   9 236519. 9557.42   2
  -6   5  -9 237945. 9684.92   1
   6  -1   9 221183. 9385.59   2
  -5  -1   9 229934. 9273.51   1
  -5  -1  10 270914. 10498.2   1
  -6   5 -10 254775. 10489.6   1
   6  -1  10 244385. 10098.1   1
  -1   6  10 275990. 10005.0   1
   6  -5  10 263142. 10462.8   2
  -6   1 -10 251793. 10225.2   1
   5   1 -10 308013. 11105.3   1
   6  -1  10 246421. 10224.0   2
   1   5 -10 266702. 10276.5   1
  -1  -5  10 265499. 10456.8   1
   6  -5  10 235879. 10024.5   1
  -1  -5  10 227591. 10256.7   2
   6  -5  11 51784.8 4407.17   1
  -6   5 -11 50861.4 4224.67   1
  -5  -1  11 57143.3 4538.81   1
   1   5 -11 50115.9 4168.96   1
   6  -1  11 55030.9 4310.79   1
  -1   6  11 52703.1 4174.20   1
   6  -5  11 54142.8 4414.89   2
  -6   1 -11 54138.3 4367.68   1
   5   1 -11 56968.6 4531.72   1
  -1  -5  11 51363.0 4464.44   2
  -1  -5  11 51896.9 4293.66   1
   6  -1  11 50061.5 4291.78   2
   6  -5  12 22664.0 2966.83   1
  -6   5 -12 24255.8 2959.94   1
  -5  -1  12 24303.2 2945.31   1
  -1  -5  12 28943.0 3219.36   1
  -6   1 -12 27680.9 3140.25   1
  -1  -5  12 26715.1 3140.52   2
   1   5 -12 20753.0 2703.89   1
   6  -5  12 26182.5 3006.94   2
   5   1 -12 27245.6 3169.72   1
   6  -1  12 25481.3 3080.41   2
   6  -1  12 22501.2 2841.51   1
   6  -5  13 22430.5 2891.18   1
  -6   5 -13 22392.3 2911.72   1
   6  -1  13 21090.9 2789.26   1
  -5  -1  13 25335.0 3083.08   1
   6  -1  13 19769.5 2783.12   2
  -6   1 -13 19222.5 2658.96   1
   5   1 -13 18847.1 2775.44   1
  -1  -5  13 21518.6 2963.40   2
  -1  -5  13 24820.9 2983.93   1
   6  -5  13 18287.5 2747.17   2
   1   5 -13 18915.8 2553.32   1
   6  -5  14 100829. 6646.01   1
  -6   5 -14 103763. 6632.02   1
   6  -1  14 94857.0 6292.16   1
  -5  -1  14 105327. 6637.52   1
  -6   1 -14 100786. 6350.11   1
   5   1 -14 127035. 7350.90   1
  -1  -5  14 111253. 7121.09   2
   6  -1  14 103393. 6621.27   2
  -1  -5  14 111635. 6790.88   1
   1   5 -14 106932. 6606.81   1
   6  -5  14 98504.7 6562.57   2
  -6   5 -15 17614.0 2765.93   1
   6  -1  15 18406.2 2724.48   1
   1   5 -15 18253.5 2670.89   1
   6  -5  15 16591.5 2582.16   1
   5   1 -15 19619.4 2911.68   1
  -6   1 -15 20479.2 2644.23   1
  -1  -5  15 19917.4 2688.77   1
  -5  -1  15 17644.4 2578.68   1
   6  -1  15 15646.5 2615.41   2
   6  -5  15 20792.6 2872.40   2
   1   5 -16 13598.7 2249.93   1
   6  -5  16 11798.6 2297.55   1
   6  -1  16 12328.9 2318.43   1
  -5  -1  16 12086.0 2296.67   1
   5   1 -16 13789.5 2387.17   1
  -6   5 -16 12760.6 2361.23   1
  -6   1 -16 12705.6 2260.13   1
   6  -5  16 11707.8 2216.23   2
  -1  -5  16 17568.1 2693.08   1
   6  -1  16 12450.7 2405.73   2
   1   5 -17 16159.6 2547.80   1
  -5  -1  17 13416.4 2350.99   1
   6  -5  17 14070.8 2327.59   1
   6  -1  17 14637.1 2564.61   1
  -1  -5  17 13855.5 2322.85   1
  -6   5 -17 15367.8 2536.39   1
  -6   1 -17 14566.3 2547.62   1
   5   1 -17 15178.7 2617.28   1
   6  -5  17 11552.6 2240.97   2
   6  -1  17 12637.7 2479.99   2
   6  -5  18 17039.8 2831.40   1
  -6   5 -18 20637.0 2997.65   1
   6  -1  18 17761.2 2876.10   1
  -6   1 -18 19192.7 2846.80   1
  -5  -1  18 18441.1 2904.93   1
   6  -5  18 19235.6 2862.94   2
   6  -1  18 17127.6 3092.17   2
   1   5 -18 24217.6 3019.99   1
  -1  -5  18 18476.1 2954.86   1
   6  -5  19 5102.62 1587.11   2
   6  -1  19 3374.98 1266.06   2
  -6   0   0 995811. 24124.4   1
   6  -6   1 2826.47 641.312   1
   0  -6   1 2502.49 756.723   1
  -6   0  -1 3893.53 946.292   1
  -6   6  -1 3006.38 627.713   1
   6  -6   1 3015.14 983.397   2
   0  -6  -1 3266.68 946.619   1
   6   0  -1 3528.61 912.826   1
   6  -6  -1 4333.62 944.087   2
   0   6   1 3473.31 977.960   1
   0   6  -1 1993.56 567.505   1
   6   0   1 3222.85 823.917   1
   6   0   1 4449.11 1069.81   2
   6   0  -1 3139.07 984.123   2
  -6   0   1 1592.04 510.774   1
  -6   6  -2 14192.4 1550.54   1
  -6   0   2 11670.0 1697.28   1
  -6   0  -2 13656.0 1864.55   1
   0  -6  -2 10685.6 1654.35   1
   6   0   2 14735.4 1953.66   2
   0   6  -2 9551.98 1608.76   1
   6   0   2 11860.3 1802.54   1
   6  -6   2 10144.8 1346.31   1
   0  -6   2 9293.33 1623.95   1
   6   0  -2 10981.2 1628.86   2
   6  -6  -2 12037.7 1616.72   2
   6   0  -2 9803.11 1502.64   1
   0   6   2 10290.1 1615.86   1
   6  -6   2 9211.28 1428.78   2
   6  -6   3 5684.28 1098.45   1
  -6   0   3 5934.21 1260.54   1
   0  -6  -3 5640.38 1160.17   1
  -6   6  -3 7169.91 1150.50   1
  -6   0  -3 4076.23 1047.09   1
   6   0   3 3985.72 981.262   1
   0  -6   3 6416.42 1233.38   1
   0   6   3 6200.58 1144.06   1
   6  -6   3 4283.91 1141.71   2
   6   0  -3 6890.04 1296.87   1
   6  -6  -3 5690.54 1065.20   2
   0   6  -3 6633.64 1241.51   1
   6   0   3 4101.44 1014.41   2
   6  -6   4 299073. 9494.34   1
   0  -6   4 330307. 10477.8   1
  -6   6  -4 231480. 8773.41   1
   0  -6  -4 260169. 9188.75   1
   6   0   4 270892. 9777.00   1
   6  -6   4 258843. 9573.42   2
  -6   0   4 217710. 8981.91   1
   0   6   4 240924. 9055.43   1
   6   0  -4 318558. 10106.4   1
   0   6  -4 271536. 10036.0   1
   6  -6  -4 273342. 8595.01   2
  -6   0  -4 252862. 9464.12   1
   6   0   4 275061. 9890.64   2
  -6   0   5 4336.66 1040.64   1
   0  -6   5 4816.79 1227.10   1
   6  -6   5 4741.95 1108.88   1
  -6   0  -5 4268.16 1068.02   1
   0   6  -5 5488.07 1262.67   1
   6   0  -5 3286.91 708.377   1
   0   6   5 4828.08 1105.98   1
  -6   6  -5 5530.32 1056.16   1
   6   0   5 2849.95 973.691   1
   0  -6  -5 3555.89 932.230   1
   6  -6   5 3631.30 858.052   2
   6   0   5 5005.02 1073.02   2
   0  -6   6 14939.4 2342.67   2
  -6   6  -6 19504.7 2236.02   1
   6  -6   6 19423.6 2382.08   2
  -6   0  -6 14108.1 1982.48   1
   0  -6   6 18210.6 2279.41   1
   0   6   6 19335.2 2231.05   1
  -6   0   6 16496.9 2231.49   1
   6   0   6 15509.6 2010.02   1
   6   0  -6 15006.3 1920.54   1
   6  -6   6 19123.3 2309.06   1
   6   0   6 17080.1 2231.82   2
   0   6  -6 16649.6 2278.65   1
   0  -6  -6 16100.9 2038.23   1
  -6   0   7 2679.81 1029.98   1
   6  -6   7 3156.55 908.342   1
  -6   0  -7 2877.93 900.812   1
   6   0  -7 3629.96 1023.20   1
   0  -6  -7 3214.88 908.171   1
  -6   6  -7 3998.82 1026.30   1
   6   0   7 2481.55 863.682   1
   0  -6   7 3054.27 876.478   1
   0   6   7 3959.71 951.084   1
   0  -6   7 4024.28 1158.02   2
   6  -6   7 1993.10 649.930   2
   6   0   7 2640.80 948.220   2
   0   6  -7 2372.69 524.075   1
   0   6  -8 395505. 13297.8   1
   6  -6   8 423581. 13580.9   1
  -6   6  -8 434035. 13779.4   1
   6   0   8 397256. 13131.5   2
   6   0   8 359442. 13056.0   1
   0   6   8 445784. 13262.1   1
   0  -6   8 336916. 12827.7   1
   0  -6   8 402004. 13810.4   2
  -6   0  -8 386516. 13191.5   1
   6   0  -8 520131. 14222.1   1
   6  -6   8 379111. 13208.4   2
   0  -6  -8 439264. 12987.4   1
  -6   0   8 381023. 12855.6   1
   0   6  -9 4996.36 1244.56   1
  -6   0  -9 5143.11 1413.91   1
   0  -6  -9 7614.71 1470.67   1
   6  -6   9 6664.64 1544.41   1
   6   0   9 4653.91 1277.15   1
  -6   6  -9 4342.30 1272.38   1
   0   6   9 5570.18 1279.86   1
   0  -6   9 7215.44 1668.26   2
  -6   0   9 4399.71 1175.68   1
   0  -6   9 6206.06 1463.75   1
   6   0  -9 5654.26 1256.10   1
   6   0   9 7533.57 1634.35   2
   6  -6   9 5570.79 1391.25   2
   0  -6  10 3255.10 1046.45   1
   0   6 -10 3760.07 1147.36   1
   0  -6 -10 4585.79 1296.20   1
   6  -6  10 2176.23 869.294   1
  -6   0 -10 2972.01 1018.90   1
   0  -6  10 2513.83 1007.88   2
   6   0  10 1911.48 690.649   1
   0   6  10 2997.94 933.943   1
  -6   6 -10 3335.32 1145.33   1
  -6   0  10 3586.38 1242.12   1
   6  -6  10 1660.55 578.177   2
   6   0 -10 3514.32 1117.46   1
   6   0  10 3446.90 1074.40   2
   0   6 -11 163.392 503.385   1
   0  -6  11 749.918 656.655   1
   6  -6  11 23.3353 410.097   1
   6   0  11 709.255 602.652   2
  -6   0 -11 1215.06 667.605   1
   0  -6  11 382.875 555.655   2
   6   0  11 604.932 856.124   1
  -6   6 -11 265.392 382.539   1
   0  -6 -11-10.6918 465.601   1
   0   6  11 211.672 603.633   1
  -6   0  11 703.306 452.579   1
   6  -6  11 1416.22 797.255   2
   6   0 -11-62.9855 574.601   1
   6  -6  12 269619. 10972.9   1
  -6   6 -12 263614. 10665.0   1
   6   0  12 277697. 10934.0   1
   0   6  12 274731. 10641.3   1
   6   0 -12 225565. 9990.90   1
  -6   0 -12 269966. 10628.1   1
   0  -6 -12 212879. 9342.60   1
   0  -6  12 220602. 10023.1   2
   6   0  12 266403. 10678.8   2
   0  -6  12 256685. 10405.8   1
   0   6 -12 256158. 10359.1   1
   6  -6  12 253899. 10435.8   2
  -6   0  12 234067. 10004.0   1
   0   6 -13-602.727 605.044   1
   6  -6  13 512.575 650.489   1
   0  -6  13-1049.89 853.072   1
  -6   6 -13 952.401 701.003   1
   6  -6  13 209.344 416.572   2
   0  -6  13 2120.16 1067.13   2
   6   0  13-98.4953 502.011   1
  -6   0 -13 1236.12 942.125   1
   6   0 -13-257.870 403.511   1
  -6   0  13-458.190 667.662   1
   0   6  13-127.496 633.766   2
   6   0  13 1138.42 835.331   2
  -6   0  14 4408.18 1388.81   1
   0   6 -14 2336.54 686.114   1
   6  -6  14 3254.82 1229.72   1
   6   0  14 3230.04 1268.39   1
  -6   6 -14 4003.35 1307.26   1
   0  -6  14 2374.28 821.183   1
   0  -6  14 3098.00 1129.61   2
   6  -6  14 2331.73 1121.39   2
  -6   0 -14 5029.72 1611.48   1
   6   0  14 1115.31 549.717   2
   6   0 -14 5334.34 1579.45   1
  -6   0  15 1429.07 804.808   1
   0   6 -15-359.937 780.821   1
   6  -6  15-37.1446 386.563   1
   6   0  15-27.1372 375.293   1
   6  -6  15 546.252 818.354   2
  -6   6 -15-665.109 753.194   1
   0  -6  15-361.111 494.469   2
   0  -6  15-558.859 641.803   1
  -6   0 -15-94.1346 355.509   1
   6   0  15-365.832 871.822   2
  -6   6 -16 74646.1 5697.58   1
   6  -6  16 69721.2 5828.51   1
   6   0  16 76730.6 5746.40   1
   0  -6  16 64370.1 5604.54   2
  -6   0 -16 87037.7 5973.70   1
   6   0  16 65785.1 5792.71   2
   0   6 -16 75263.7 5746.18   1
   0  -6  16 81781.5 6044.87   1
   6  -6  16 70187.6 5609.87   2
   0   6 -17 627.460 823.474   1
   6  -6  17 733.092 554.327   1
   6   0  17 174.550 285.361   1
  -6   6 -17 1114.83 750.448   1
   0  -6  17 837.295 809.633   1
   6  -6  17 795.674 525.691   2
   6   0  17-266.519 324.885   2
  -6   0 -17 752.979 560.152   1
   0   6 -18 845.074 480.346   1
   6  -6  18 534.282 332.664   1
   6   0  18 591.719 793.861   1
  -6   6 -18 231.860 342.355   1
   0  -6  18 52.3860 571.325   1
   6   0  18 600.704 718.355   2
  -6   0 -18 964.283 866.790   1
   6  -6  18 380.422 512.471   2
   3   4  19-356.780 281.989   1
   3   4  18 55044.9 5120.64   1
   4   3  18 61756.7 5265.65   1
  -3  -4 -18 44446.0 4487.46   1
  -4  -3 -18 53498.3 4778.55   1
   3  -7  18 46121.7 4816.34   2
   4   3  18 38557.6 4419.07   2
   4  -7  18 44814.6 4629.22   2
  -4   7 -18 59147.0 5192.69   1
   4  -7  18 52587.0 5076.04   1
   3   4  17 31214.0 3719.68   1
   4   3  17 32515.1 3818.98   1
   4   3  17 23391.0 3402.40   2
  -3  -4 -17 24579.2 3228.84   1
  -4  -3 -17 33134.2 3755.08   1
   4  -7  17 31334.8 3764.43   2
   3  -7  17 30581.3 3784.32   2
   3   4  17 21659.3 3138.63   2
  -3   7 -17 38327.4 4093.23   1
  -4   7 -17 34294.5 3857.05   1
   4  -7  17 33584.5 3945.48   1
   3   4  16 23182.5 3220.59   1
   4   3  16 24100.2 3263.45   1
  -4   7 -16 24109.5 3208.47   1
  -3  -4 -16 18204.0 2854.27   1
  -4  -3 -16 22895.6 3100.78   1
   3  -7  16 18964.9 2959.82   2
   4  -7  16 21206.0 2985.60   2
   3   4  16 15047.3 2564.23   2
   3  -7  16 22998.3 3250.62   1
   4   3  16 16397.4 2789.10   2
  -3   7 -16 25706.7 3245.02   1
   4  -7  16 21649.1 3178.96   1
   3  -7  15 9268.77 2092.16   1
   4  -7  15 8888.27 2024.44   1
  -3   7 -15 7270.45 1699.48   1
  -4   7 -15 7520.74 1666.01   1
   4   3  15 6010.86 1581.86   1
   3   4  15 7307.13 1749.57   1
   3  -7  15 6967.12 1741.31   2
   4  -7  15 6179.96 1621.93   2
  -3  -4 -15 5946.62 1574.31   1
   3   4  15 6428.32 1617.52   2
  -4  -3 -15 7835.29 1780.45   1
   4   3  15 6544.08 1696.63   2
   4   3  14 98160.3 6400.79   1
   3   4  14 85319.2 6092.57   1
  -4   7 -14 88667.2 6110.88   1
  -4  -3 -14 106843. 6603.81   1
  -3  -4 -14 99678.1 6308.80   1
   3  -7  14 81156.9 6021.05   2
   4   3  14 90508.1 6147.52   2
  -3   7 -14 94169.5 6200.17   1
   3   4  14 106361. 6457.88   2
   4  -7  14 95623.2 6363.81   2
   3  -7  14 73958.8 5941.56   1
   4  -7  14 91022.6 6378.98   1
   3  -7  13 6957.16 1660.96   1
   4  -7  13 4980.60 1426.96   1
  -3   7 -13 6759.84 1486.00   1
  -4   7 -13 5039.80 1420.40   1
   4   3  13 4506.12 1223.35   2
   4   3  13 4374.91 1192.97   1
   3   4  13 4389.26 1398.46   1
   3   4  13 3262.17 1032.17   2
   3  -7  13 4866.56 1438.59   2
  -3  -4 -13 5981.25 1526.40   1
   4  -7  13 6207.96 1586.62   2
  -4  -3 -13 3734.00 1273.94   1
   3  -7  12 6517.90 1638.15   1
   4  -7  12 7273.04 1692.40   1
  -3   7 -12 8086.49 1673.88   1
  -4   7 -12 7400.09 1703.55   1
   4   3  12 7994.92 1724.96   1
   3   4  12 5290.04 1383.91   1
   4  -7  12 6600.88 1541.92   2
   3  -7  12 5610.72 1550.02   2
   4   3  12 6823.24 1523.13   2
   3   4  12 6195.06 1339.07   2
  -4  -3 -12 8318.82 1772.27   1
  -3  -4 -12 8977.73 1783.84   1
   3  -7  11 49343.8 4365.43   2
   4   3  11 46492.5 4139.79   1
   3   4  11 58069.2 4646.91   1
  -4  -3 -11 47908.2 4091.88   1
  -3  -4 -11 56226.7 4434.41   1
   4  -7  11 38524.2 3886.47   2
  -3   7 -11 51585.4 4381.42   1
   4   3  11 49814.3 4276.30   2
   3   4  11 53233.0 4410.77   2
  -4   7 -11 48784.8 4269.24   1
   4  -7  11 52504.4 4480.65   1
   4   3  10 31597.0 3307.07   1
   3   4  10 27077.5 3094.40   1
  -3   7 -10 29228.0 3224.07   1
   4   3  10 33252.4 3463.90   2
   3  -7  10 24972.3 2946.53   1
   3   4  10 27981.1 3326.94   2
  -3  -4 -10 33246.7 3254.28   1
   4  -7  10 31110.2 3323.32   2
   3  -7  10 30733.6 3379.44   2
  -4  -3 -10 27010.6 3007.63   1
  -4   7 -10 32364.1 3255.10   1
   4  -7  10 31824.2 3423.25   1
   4   3   9 83893.6 5418.91   1
   3   4   9 88144.0 5539.83   1
   3  -7   9 91589.7 5607.55   1
   4  -7   9 88626.1 5646.26   2
  -3   7  -9 90163.5 5656.04   1
  -3  -4  -9 94922.5 5654.27   1
   4  -7   9 87839.8 5772.98   1
  -4   7  -9 87025.6 5563.94   1
   3   4   9 92251.6 5942.16   2
   3  -7   9 89325.1 5844.81   2
   4   3   9 97744.1 6056.80   2
  -4  -3  -9 89690.9 5423.35   1
   4  -7   8 1252.35 757.095   1
  -3   7  -8-330.886 637.649   1
   3  -7   8 636.611 526.134   1
  -4   7  -8 132.085 215.577   1
  -4  -3  -8-145.084 438.599   1
  -3  -4  -8 1163.89 630.828   1
   4  -7   8-1063.96 701.171   2
   4   3   8 729.345 645.146   1
   3   4   8-184.929 282.496   1
   4   3   8 432.626 616.810   2
   3  -7   8 409.037 586.005   2
   3  -7   7 127686. 6286.32   1
   4   3   7 115075. 6276.57   1
   3   4   7 115588. 6280.81   1
   3  -7   7 118050. 6500.14   2
  -4  -3  -7 118850. 6151.68   1
  -3   7  -7 112893. 6198.61   1
  -3  -4  -7 129155. 6398.93   1
  -4   7  -7 115103. 6155.27   1
   4  -7   7 112692. 6349.38   2
   4   3   7 130785. 6900.99   2
   4  -7   7 117687. 6418.78   1
   3  -7   6 648165. 17139.5   1
  -7   3   6 569007. 15415.0   1
   4   3   6 631935. 17590.5   1
   3   4   6 608698. 17187.1   1
   3  -7   6 561624. 17160.9   2
  -4  -3  -6 600139. 16963.1   1
   4  -7   6 621426. 17392.7   2
  -3   7  -6 600725. 17057.9   1
  -3  -4  -6 606020. 16946.2   1
  -4   7  -6 596031. 16853.2   1
  -7   3   5 124557. 5321.91   1
   4   3   5 110019. 5936.85   1
   3   4   5 104596. 5815.49   1
   4  -7   5 116784. 5659.40   1
   7  -3  -5 98193.1 4780.28   1
   3  -7   5 114286. 6103.05   2
   4  -7   5 113517. 6024.50   2
  -3   7  -5 103492. 5620.49   1
   3  -7   5 114226. 5785.42   1
  -4   7  -5 110319. 5707.12   1
  -4  -3  -5 108718. 5692.76   1
  -3  -4  -5 105528. 5686.11   1
  -3  -4  -4 313798. 10551.5   1
  -7   3   4 309285. 9443.88   1
   4  -7   4 331108. 10113.9   1
   3  -7   4 294225. 9980.37   1
   4  -7   4 276374. 10388.5   2
   4   3   4 270710. 10116.5   1
   3   4   4 260172. 9952.91   1
   7  -3  -4 262868. 8718.94   1
   3  -7   4 293245. 10622.3   2
  -3   7  -4 321896. 10331.5   1
  -4   7  -4 275311. 9694.56   1
  -4  -3  -4 277029. 10083.9   1
  -4  -3  -3 45755.3 3533.66   1
   4  -7   3 44607.5 3729.66   2
  -3  -4  -3 48188.2 3635.29   1
   7  -3  -3 60318.9 3450.70   1
   4   3   3 46326.1 3565.53   1
   3   4   3 45919.4 3666.85   1
   3  -7   3 49973.2 3441.14   1
  -4   7  -3 54350.4 3560.57   1
   3  -7   3 45533.2 3781.76   2
   7  -4  -3 55342.4 3146.09   2
  -3   7  -3 49325.1 3506.65   1
   7  -3  -3 34911.9 2749.53   2
  -7   4   3 54309.7 2991.51   1
  -7   3   3 56114.9 3411.43   1
   4  -7   3 52494.0 3417.65   1
   7  -3  -2 283067. 9062.99   2
  -3  -4  -2 262483. 9710.47   1
   3  -7   2 339287. 9969.67   1
   7  -4  -2 285760. 8347.19   1
  -3   7  -2 290694. 9688.86   1
   7  -3  -2 311091. 9341.68   1
   4   3   2 283808. 10087.3   1
   3   4   2 297026. 10298.8   1
  -7   3   2 252721. 8773.20   1
   3  -7   2 269832. 10145.9   2
   4  -7   2 279445. 9017.96   1
  -7   4   2 278291. 8456.18   1
   7  -4  -2 321968. 9429.87   2
  -4   7  -2 263869. 8848.88   1
   4  -7   2 273276. 10037.8   2
  -4  -3  -2 273533. 9950.07   1
   3  -7   1 54527.1 3431.05   1
   4  -7   1 45935.5 3639.24   2
  -4  -3  -1 49042.2 3722.80   1
   7  -4  -1 66225.2 3490.22   1
   4  -7   1 56497.1 3270.38   1
  -3  -4  -1 53393.5 3939.35   1
   7  -3  -1 51384.7 3369.88   1
   7  -4  -1 56824.3 3627.10   2
  -3   7  -1 45968.2 3321.34   1
   4   3   1 50115.6 3782.93   1
   3   4   1 53213.2 3764.43   1
   3  -7   1 48892.3 3858.55   2
  -7   4   1 62879.3 3392.59   1
  -4   7  -1 65642.0 3672.17   1
   7  -3  -1 56413.7 3552.65   2
  -7   3   1 42313.2 3075.23   1
   7  -4   0 10111.1 1428.58   1
   3  -7   0 10683.3 1756.47   2
  -4  -3   0 9901.81 1591.11   1
  -3  -4   0 7804.52 1417.52   1
   7  -3   0 9244.34 1361.39   1
   3  -7   0 7395.72 1224.43   1
  -7   4   0 11633.8 1444.03   1
  -4   7   0 9998.31 1311.97   1
   4  -7   0 7206.87 1397.97   2
   3   4   0 9049.58 1613.73   1
  -7   3   0 12126.5 1647.01   1
   7  -3   0 7401.60 1366.32   2
  -3   7   0 8642.75 1317.63   1
   4  -7   0 8787.80 1134.15   1
   7  -4   0 7137.77 1191.82   2
   4   3   0 7718.78 1402.48   1
   7  -4   1 87451.1 4360.06   1
   7  -3   1 85642.7 4463.69   1
  -4  -3   1 75034.3 4646.92   1
  -3  -4   1 78564.7 4643.49   1
  -7   3  -1 89915.5 4694.97   1
   4   3  -1 70162.0 4416.52   1
  -7   4  -1 84044.3 4396.35   1
   3   4  -1 76220.0 4753.38   1
   3  -7  -1 75441.4 3855.83   1
  -3   7   1 78808.9 3971.78   1
   4  -7  -1 76883.2 4725.05   2
   7  -3   1 80245.1 4632.34   2
  -4   7   1 63962.3 3320.09   1
   7  -4   1 77164.4 4497.09   2
   7  -4   2 145179. 6136.78   1
   7  -3   2 123313. 5959.59   1
   4  -7  -2 142971. 6798.41   2
   3  -7  -2 157661. 5640.90   1
  -4  -3   2 133370. 6483.28   1
  -7   4  -2 132910. 5935.62   1
  -3   7   2 151867. 5611.84   1
   4   3  -2 150569. 6701.99   1
  -3  -4   2 149860. 6814.40   1
   3   4  -2 131846. 6302.39   1
  -7   3  -2 158479. 6615.45   1
   7  -4   2 123351. 6098.51   2
   7  -3   2 132429. 6269.89   2
   3  -7  -3 129283. 5095.42   1
   7  -4   3 139711. 6174.47   1
   7  -3   3 134631. 6244.99   1
  -7   4  -3 158074. 6545.06   1
  -3   7   3 121879. 5130.20   1
  -4  -3   3 131515. 6541.79   1
  -7   3  -3 140519. 6437.89   1
   4   3  -3 136805. 6464.10   1
   3   4  -3 141571. 6508.37   1
  -3  -4   3 146438. 6595.47   1
   7  -4   3 140398. 6461.43   2
   7  -3   3 142268. 6546.34   2
  -7   3  -4 1677.58 517.250   1
  -4  -3   4 1757.23 652.762   1
   7  -4   4 1129.31 358.083   1
  -3  -4   4 1745.80 846.179   1
   7  -3   4 1407.30 498.609   1
   3   4  -4 1848.61 611.582   1
   4   3  -4 991.998 669.056   1
  -7   4  -4 1235.97 505.526   1
   7  -4   4 2283.52 975.097   2
   7  -3   4 1823.93 840.269   2
   3   4  -5 234593. 9111.56   1
   7  -4   5 190881. 8146.77   1
   7  -3   5 236280. 8984.87   1
  -7   4  -5 240711. 8996.09   1
  -7   3  -5 219975. 8772.80   1
   4   3  -5 216039. 8774.80   1
  -4  -3   5 219308. 8890.91   1
   7  -4   5 249269. 9294.72   2
   7  -3   5 243731. 9250.42   2
  -3  -4   5 257659. 9436.71   1
   7  -4   6 432651. 13510.2   1
   7  -3   6 485270. 14275.0   1
  -7   4  -6 474039. 14161.9   1
   3   4  -6 455514. 14153.7   1
  -7   3  -6 445754. 13966.6   1
   4   3  -6 427237. 13793.9   1
   7  -4   6 422575. 13746.4   2
   7  -3   6 410049. 13632.4   2
  -4  -3   6 448824. 13997.2   1
  -3  -4   6 464054. 14099.4   1
  -3  -4   7 83730.3 5091.15   1
   7  -4   7 74420.7 4836.22   1
   7  -3   7 84089.5 5121.59   1
  -7   4  -7 78532.3 5009.36   1
   3   4  -7 81650.4 5260.43   1
  -7   3  -7 78234.1 5025.73   1
   7  -4   7 85375.2 5247.88   2
   4   3  -7 79221.7 5059.27   1
  -4  -3   7 79668.9 5129.49   1
   7  -3   7 85402.2 5277.91   2
  -3  -4   8 170286. 7956.09   1
   7  -4   8 172262. 7920.51   1
   7  -3   8 158741. 7714.27   1
  -7   4  -8 149475. 7396.69   1
  -7   3  -8 185377. 8199.33   1
   4   3  -8 194990. 8507.01   1
   3   4  -8 184712. 8322.53   1
   7  -4   8 168965. 7927.90   2
   7  -3   8 180785. 8053.00   2
  -4  -3   8 168143. 7724.57   1
  -3  -4   9 3757.98 916.283   1
   7  -4   9 2418.28 951.860   1
   7  -3   9 2821.37 1105.50   1
  -4  -3   9 2241.84 936.211   1
   4   3  -9 2740.38 920.761   1
  -7   4  -9 2250.50 832.440   1
   7  -4   9 3164.26 712.545   2
  -7   3  -9 2207.50 814.855   1
   7  -3   9 2662.00 1021.81   2
   3   4  -9 2412.91 780.117   1
   7  -4  10 172663. 8484.47   1
  -4  -3  10 202139. 8996.59   1
   7  -3  10 195677. 8892.93   1
  -3  -4  10 205992. 9089.17   1
  -7   4 -10 193973. 8784.92   1
  -7   3 -10 190355. 8729.41   1
   4   3 -10 177247. 8615.16   1
   3   4 -10 205201. 9166.34   1
   7  -4  10 204106. 8963.07   2
   7  -3  10 193764. 8767.39   2
   7  -4  11 23610.8 3001.03   1
   7  -3  11 22222.5 2852.02   1
  -4  -3  11 26655.4 3206.76   1
  -7   4 -11 23657.3 2910.13   1
  -3  -4  11 25545.7 2996.53   1
  -7   3 -11 22327.8 2684.74   1
   3   4 -11 23443.3 3016.20   1
   7  -3  11 22467.1 2866.29   2
   7  -4  11 26574.3 2971.45   2
   4   3 -11 30203.9 3312.29   1
   7  -4  12 8432.93 1834.44   2
  -4  -3  12 7737.85 1732.18   1
   7  -4  12 6254.95 1628.34   1
   7  -3  12 8571.99 1805.08   1
  -3  -4  12 9627.64 1924.48   1
  -7   4 -12 8961.46 1815.25   1
   7  -3  12 8188.44 1815.84   2
  -7   3 -12 8659.42 1674.06   1
   4   3 -12 10126.3 1989.95   1
   3   4 -12 8122.83 1697.55   1
   7  -4  13 61906.2 5146.29   1
   7  -3  13 65053.7 5149.01   1
  -7   4 -13 65369.5 5140.69   1
  -4  -3  13 63884.7 5059.44   1
  -7   3 -13 61220.0 4969.33   1
  -3  -4  13 69290.0 5215.99   1
   4   3 -13 60695.3 5064.31   1
   3   4 -13 70342.1 5375.57   1
   7  -3  13 57155.8 4813.93   2
   7  -4  13 58220.7 4886.34   2
   7  -4  14 27056.3 3373.74   1
   7  -3  14 22500.6 3066.21   1
  -7   4 -14 26062.2 3226.30   1
  -7   3 -14 30127.8 3419.59   1
  -4  -3  14 25859.9 3227.30   1
  -3  -4  14 24816.3 3116.55   1
   7  -4  14 26006.9 3188.74   2
   4   3 -14 23628.0 3183.47   1
   3   4 -14 30016.5 3309.20   1
   7  -3  14 26611.8 3313.64   2
   7  -4  15 26554.9 3393.80   1
   7  -3  15 24354.7 3141.60   1
  -7   4 -15 22870.3 3141.15   1
  -7   3 -15 23897.5 3082.72   1
  -4  -3  15 26271.1 3241.16   1
  -3  -4  15 32002.1 3498.05   1
   4   3 -15 19402.0 2826.70   1
   7  -4  15 27197.6 3203.77   2
   7  -3  15 23774.3 3249.69   2
   3   4 -15 22731.6 3030.97   1
   3   4 -16-191.570 425.917   1
   7  -4  16-245.782 447.177   1
   7  -3  16 754.195 633.057   1
  -4  -3  16 72.9180 348.847   1
  -3  -4  16 98.8178 465.870   1
  -7   4 -16 528.117 584.618   1
   7  -4  16-203.145 394.644   2
  -7   3 -16 800.937 834.475   1
   7  -3  16-272.552 656.439   2
   4   3 -16 431.229 231.038   1
   7  -3  17 14015.1 2539.94   1
   7  -4  17 13089.7 2428.98   1
  -4  -3  17 12110.0 2242.70   1
  -3  -4  17 13888.3 2467.31   1
  -7   4 -17 15955.3 2681.53   1
   7  -4  17 11082.3 2060.16   2
   7  -3  17 11421.2 2356.23   2
  -7   3 -17 12694.4 2377.62   1
   4   3 -17 10929.5 2235.29   1
   3   4 -17 11814.4 2250.65   1
   7  -4  18 61328.7 5393.80   1
  -7   4 -18 69858.9 5573.78   1
   4   3 -18 68138.3 5717.70   1
  -4  -3  18 55662.4 5080.07   1
  -3  -4  18 69432.5 5672.30   1
   7  -3  18 60279.7 5267.39   2
   3   4 -18 61817.3 5229.74   1
   7  -4  18 60230.5 5288.46   2
   5   2  18 242.695 518.858   1
   2  -7  18-27.5825 476.429   2
  -5  -2 -18 818.665 751.981   1
   5  -7  18-598.845 775.519   2
   5   2  18 68.3912 606.916   2
   5  -7  17 3128.60 1250.99   1
  -2   7 -17 1837.14 922.511   1
  -5   7 -17 2924.84 1082.85   1
   2   5  17 1953.28 884.231   1
   5   2  17 3908.57 1302.30   1
   2  -7  17 4492.14 1491.67   1
   2  -7  17 1906.18 864.538   2
   5  -7  17 2381.61 1244.62   2
  -5  -2 -17 2450.66 1027.60   1
   5   2  17 2078.06 1103.83   2
   5  -7  16 130744. 7999.61   1
   2   5  16 110257. 7326.26   1
   5   2  16 132236. 7786.41   1
   2  -7  16 140710. 7980.04   1
  -2  -5 -16 113626. 7264.03   1
  -5  -2 -16 145281. 8080.64   1
   2  -7  16 116168. 7627.20   2
   5  -7  16 114710. 7430.82   2
   5   2  16 117969. 7430.69   2
   2   5  16 83146.7 6321.49   2
  -2   7 -16 141895. 7999.92   1
  -5   7 -16 127689. 7564.31   1
   5  -7  15 1106.94 716.160   2
   5  -7  15 753.071 695.030   1
  -2   7 -15 1049.57 496.823   1
  -5   7 -15 480.377 629.211   1
   5   2  15 359.062 659.179   1
   2   5  15 1631.88 1036.62   1
   2  -7  15 1568.68 925.680   2
   2  -7  15 971.637 837.722   1
  -5  -2 -15 621.211 430.333   1
  -2  -5 -15 548.868 715.288   1
   5   2  15 1012.80 559.083   2
   2   5  15 981.608 918.139   2
   5  -7  14 1919.05 936.077   1
  -2   7 -14 2016.44 870.366   1
   2  -7  14 1418.97 732.260   1
  -5   7 -14 2937.10 1118.26   1
   5   2  14 731.828 359.773   1
   2   5  14 1525.94 769.802   1
   2   5  14 1636.38 753.446   2
   2  -7  14 1924.46 813.108   2
  -2  -5 -14 1180.63 738.833   1
   5   2  14 2096.85 582.264   2
   5  -7  14 720.021 438.508   2
  -5  -2 -14 2727.89 1204.22   1
  -2  -5 -13 368.555 287.980   1
   5  -7  13 326.053 485.698   1
  -2   7 -13 18.2041 395.865   1
  -5   7 -13-538.000 423.681   1
   5   2  13 730.447 549.004   1
   2   5  13-608.548 442.030   1
  -5  -2 -13 405.853 592.441   1
   2  -7  13 181.639 473.008   1
   2  -7  13-242.512 300.314   2
   5  -7  13 1048.17 697.900   2
   5   2  13 1343.65 737.883   2
   2   5  13 51.3558 564.722   2
   5  -7  12 76734.4 5753.62   1
   2  -7  12 81574.4 5665.09   1
   5   2  12 84969.0 5807.59   1
   2   5  12 87085.9 5901.06   1
  -5  -2 -12 84730.4 5748.76   1
  -2  -5 -12 92355.9 5842.94   1
   2  -7  12 89104.7 6142.76   2
  -2   7 -12 87590.0 5794.78   1
   5   2  12 90447.4 5722.29   2
   2   5  12 72812.6 5295.86   2
  -5   7 -12 81871.0 5705.46   1
   5  -7  12 87710.6 5820.68   2
  -5  -2 -11 1138.41 670.866   1
  -2  -5 -11 229.707 302.704   1
  -2   7 -11 373.702 264.376   1
   5  -7  11 952.632 699.650   1
   2  -7  11 1303.51 909.148   1
  -5   7 -11 229.005 396.954   1
   5   2  11 564.985 705.752   1
   2   5  11 666.030 646.477   1
   2  -7  11 585.674 520.701   2
   5  -7  11-301.078 615.354   2
   5   2  11 149.424 411.684   2
   2   5  11 1633.69 997.637   2
   5  -7  10 25295.0 2988.67   1
   2  -7  10 25636.5 3090.37   1
   5   2  10 27852.5 3168.84   1
   2   5  10 28412.6 3118.22   1
   2  -7  10 25157.6 3141.28   2
  -5  -2 -10 28018.1 3073.86   1
  -2   7 -10 26181.7 3010.43   1
   5  -7  10 25187.0 2915.66   2
  -2  -5 -10 30007.1 3137.64   1
   5   2  10 29739.5 3264.11   2
  -5   7 -10 28330.2 3185.45   1
   2   5  10 23893.7 2981.23   2
  -2   7  -9 5895.52 1285.69   1
   5  -7   9 4882.62 1472.91   1
  -5  -2  -9 3766.71 947.487   1
  -2  -5  -9 6408.13 1432.68   1
  -5   7  -9 4586.54 1146.26   1
   5   2   9 4541.45 1243.66   1
   2   5   9 5564.93 1404.34   1
   2  -7   9 3606.84 1098.77   2
   2  -7   9 5511.83 1384.51   1
   5  -7   9 4165.97 1112.67   2
   5   2   9 7033.64 1546.38   2
   5  -7   8 431626. 14123.0   1
   2  -7   8 387272. 13820.1   2
   5   2   8 392079. 13545.9   1
   2   5   8 418936. 13728.6   1
   7  -2  -8 395904. 12562.6   1
   5  -7   8 445374. 14236.2   2
  -5  -2  -8 416846. 13720.4   1
  -2   7  -8 402085. 13744.1   1
  -2  -5  -8 426397. 13675.0   1
   2  -7   8 413303. 13825.6   1
   5   2   8 479861. 14590.4   2
  -5   7  -8 434144. 13920.0   1
  -2   7  -7 159.588 322.083   1
   5  -7   7 1784.64 655.301   1
   2  -7   7 2133.73 825.673   1
  -5   7  -7 1675.53 709.077   1
  -5  -2  -7 995.310 491.787   1
  -2  -5  -7 1641.84 391.994   1
   5   2   7 1495.27 693.426   1
   2   5   7 2392.71 948.408   1
  -7   2   7 1626.88 738.992   1
   2  -7   7 1305.34 682.237   2
   5  -7   7 1329.69 622.145   2
   7  -2  -7 1292.71 532.990   1
   5   2   7 1468.61 684.603   2
   5   2   6 20030.0 2476.25   1
  -7   2   6 19539.4 2221.53   1
   2   5   6 18454.4 2341.29   1
   5   2   6 24187.2 2985.31   2
   5  -7   6 17557.2 2196.55   2
   7  -2  -6 21727.0 2200.47   1
   5  -7   6 19232.8 2316.48   1
  -2  -5  -6 13046.6 1871.28   1
   2  -7   6 16674.0 2376.61   2
   2  -7   6 16054.7 2219.55   1
  -2   7  -6 14279.6 2057.58   1
  -5  -2  -6 15631.2 2230.15   1
  -5   7  -6 18713.3 2191.15   1
  -7   2   5 19936.8 2208.74   1
   2   5   5 14700.5 2081.05   1
   7  -2  -5 15780.9 1891.46   1
   2  -7   5 15515.4 2085.12   1
   5   2   5 18589.1 2203.65   1
   5  -7   5 15428.4 2154.95   2
  -5  -2  -5 18525.0 2188.13   1
  -2   7  -5 17158.8 2187.47   1
   2  -7   5 15879.7 2287.13   2
  -5   7  -5 18869.4 2199.35   1
   5   2   5 20099.4 2446.18   2
  -2  -5  -5 20083.7 2379.45   1
   5  -7   5 17285.6 2169.31   1
  -2  -5  -4 610417. 16813.5   1
  -7   2   4 629911. 16307.4   1
   2  -7   4 619150. 16518.4   1
   2  -7   4 602879. 17379.6   2
   5   2   4 616226. 16966.0   1
   2   5   4 680899. 17315.3   1
  -2   7  -4 607796. 16891.2   1
  -5   7  -4 646634. 16441.1   1
   5  -7   4 585786. 16748.7   2
  -5  -2  -4 598835. 16613.4   1
   5  -7   4 659987. 16679.8   1
   2  -7   3 8638.93 1493.08   1
  -5   7  -3 6509.57 1184.46   1
   2   5   3 8110.68 1536.35   1
   5  -7   3 8041.21 1271.50   1
   5  -7   3 6112.48 1287.04   2
   5   2   3 6218.90 1304.52   1
   2  -7   3 7788.83 1640.06   2
   7  -2  -3 8998.87 1453.09   1
  -5  -2  -3 7019.38 1290.72   1
   7  -5  -3 7401.94 1161.54   2
  -7   2   3 6923.39 1293.43   1
   7  -2  -3 6988.96 1182.25   2
  -2  -5  -3 7343.91 1428.18   1
  -2   7  -3 6122.11 1332.95   1
  -2  -5  -2 94.6641 240.558   1
  -5   7  -2 394.355 346.018   1
   7  -2  -2 190.040 259.604   1
   2   5   2 422.986 487.394   1
  -7   2   2-204.415 577.608   1
   2  -7   2 362.089 667.243   2
   5  -7   2 268.924 565.118   2
   7  -5  -2 117.357 205.783   2
  -5  -2  -2 94.4305 577.079   1
   2  -7   2 55.2625 269.074   1
  -2   7  -2 84.7012 342.028   1
   5   2   2-525.522 624.256   1
   7  -2  -2-204.470 208.192   2
   5  -7   2-169.245 126.257   1
  -5   7  -1 51.3854 110.774   1
  -2  -5  -1 387.247 471.027   1
  -2   7  -1-364.490 433.685   1
   7  -2  -1 391.433 413.448   1
   2  -7   1 219.082 196.542   1
  -7   2   1-200.045 409.817   1
   5  -7   1 837.900 630.038   2
   2   5   1 540.654 352.631   1
   5   2   1 527.757 510.183   1
   7  -5  -1 609.289 573.478   2
   5  -7   1 272.546 342.502   1
   7  -2  -1-158.634 274.260   2
  -5  -2  -1-59.9045 384.378   1
  -5  -2   0 520416. 15055.2   1
  -7   5   0 502356. 13036.0   1
   7  -2   0 522755. 14446.3   1
  -2  -5   0 537291. 15186.4   1
   7  -5   0 471832. 14092.6   2
   5   2   0 520552. 15077.4   1
   5  -7   0 570764. 15335.2   2
   2   5   0 523836. 15070.2   1
  -2   7   0 491839. 14174.9   1
   2  -7   0 508403. 13944.7   1
   7  -2   0 602130. 15131.9   2
  -7   2   0 469156. 14105.8   1
  -5  -2   1 7527.31 1350.67   1
   7  -5   1 7074.02 1086.44   1
   7  -2   1 6871.84 1301.93   2
  -7   2  -1 8210.33 1408.73   1
   7  -5   1 7270.28 1347.31   2
   7  -2   1 6900.27 1292.78   1
   5   2  -1 4909.31 1056.02   1
  -2  -5   1 6660.52 1486.02   1
   5  -7  -1 6846.98 1364.46   2
   2  -7  -1 7848.52 1265.60   1
  -7   5  -1 7093.81 1110.70   1
  -2   7   1 5234.17 1031.18   1
   2   5  -1 7139.63 1239.85   1
   7  -5   2 8769.66 1355.63   1
   2  -7  -2 8204.77 1335.44   1
  -7   2  -2 6297.04 1339.92   1
  -5  -2   2 10388.8 1680.22   1
   2   5  -2 8341.78 1467.41   1
   7  -2   2 9794.89 1563.30   1
   5  -7  -2 9877.57 1611.26   2
  -7   5  -2 8743.56 1240.82   1
   7  -5   2 7565.62 1414.66   2
   5   2  -2 9315.36 1621.92   1
   7  -2   2 6977.87 1276.07   2
  -2   7   2 6852.50 1209.29   1
  -2  -5   2 8459.48 1421.36   1
   2  -7  -3 3496.16 839.630   1
  -7   2  -3 3960.67 946.313   1
   7  -5   3 4539.52 962.276   1
  -2  -5   3 3820.73 886.153   1
   7  -2   3 4842.04 1131.95   1
   5  -7  -3 3014.22 1022.32   2
  -5  -2   3 4764.98 1173.53   1
  -2   7   3 3674.77 919.835   1
  -7   5  -3 5475.59 1071.92   1
   5   2  -3 6189.43 1327.41   1
   7  -5   3 4244.63 1073.40   2
   2   5  -3 4666.82 1044.02   1
   7  -2   3 4582.65 1032.89   2
   7  -5   4 314726. 10384.1   1
   2  -7  -4 257916. 9313.66   1
   7  -2   4 358654. 11368.9   1
  -7   5  -4 353654. 10747.8   1
  -7   2  -4 297170. 10685.5   1
  -2   7   4 356515. 10281.1   1
   7  -2   4 326914. 11128.8   2
  -5  -2   4 324969. 11212.9   1
   5   2  -4 321037. 10823.7   1
   2   5  -4 318889. 11138.7   1
   7  -5   4 341637. 11119.8   2
  -2  -5   4 302579. 10897.1   1
  -7   2  -5 2860.82 1026.80   1
   7  -5   5 3304.42 979.458   1
   7  -2   5 2379.63 752.589   1
  -2   7   5 3000.90 864.465   1
  -7   5  -5 3199.52 923.020   1
  -2  -5   5 5070.71 1016.68   1
   5   2  -5 3892.42 991.765   1
   7  -5   5 2583.37 770.441   2
   2   5  -5 1555.05 543.261   1
   2  -7  -5 4073.76 887.987   1
   7  -2   5 3197.02 1048.47   2
  -5  -2   5 3964.42 1026.15   1
  -7   2  -6 1008.16 450.501   1
  -5  -2   6 630.880 451.312   1
   7  -5   6 463.483 600.545   1
   7  -2   6 518.243 551.189   1
  -2   7   6 101.229 312.904   1
  -7   5  -6 373.771 195.458   1
   5   2  -6-327.373 290.160   1
   7  -5   6 116.491 322.161   2
  -2  -5   6 202.882 377.861   1
   2   5  -6 206.377 460.280   1
   7  -2   6-2.55845 481.981   2
  -7   5  -7 7710.08 1541.50   1
   7  -5   7 9767.79 1725.92   1
   7  -2   7 8374.48 1642.39   1
  -5  -2   7 10798.2 1780.15   1
   7  -5   7 10113.4 1765.84   2
   5   2  -7 7937.81 1545.48   1
   7  -2   7 9879.73 1715.98   2
   2   5  -7 8207.53 1711.89   1
  -2  -5   7 9911.01 1835.22   1
  -7   2  -7 7560.70 1557.29   1
   7  -5   8 598475. 18486.8   1
  -2  -5   8 643235. 18989.5   1
   7  -2   8 726132. 19449.3   1
  -7   5  -8 623444. 18465.7   1
  -5  -2   8 679071. 19123.3   1
  -7   2  -8 609937. 18492.1   1
   5   2  -8 641780. 18579.7   1
   2   5  -8 725759. 19851.0   1
   7  -5   8 691900. 18895.0   2
   7  -2   8 718020. 19445.9   2
  -2  -5   9 5060.23 1292.50   1
   7  -5   9 3284.39 923.800   1
   7  -2   9 5506.58 1403.66   1
  -5  -2   9 3085.96 844.850   1
   7  -5   9 3973.95 1207.24   2
   5   2  -9 4711.42 1217.66   1
  -7   5  -9 2741.88 879.145   1
  -7   2  -9 3999.96 1213.70   1
   7  -2   9 5121.95 1403.80   2
   2   5  -9 4441.24 1318.75   1
   7  -5  10 163.342 371.583   1
  -2  -5  10 306.381 411.119   1
   7  -2  10 1257.20 729.215   1
  -7   5 -10 338.697 536.648   1
  -5  -2  10 1993.90 730.381   1
   7  -5  10 1355.19 706.372   2
  -7   2 -10 639.045 357.362   1
   5   2 -10 1345.37 837.988   1
   7  -2  10 171.576 368.685   2
   2   5 -10 949.681 615.625   1
   7  -5  11 1891.11 879.625   1
   7  -2  11 1001.43 595.337   1
  -2  -5  11 1377.29 668.870   1
  -7   5 -11 1580.05 742.176   1
  -7   2 -11 1498.70 817.188   1
   7  -5  11 1258.09 780.468   2
  -5  -2  11 2057.49 781.385   1
   7  -2  11 380.955 514.610   2
   5   2 -11 683.038 632.759   1
   2   5 -11 1545.57 905.572   1
   7  -5  12 86840.9 6003.85   1
  -5  -2  12 96869.2 6206.07   1
   7  -2  12 102572. 6315.36   1
  -7   5 -12 85622.6 5959.90   1
  -7   2 -12 85931.3 5871.68   1
  -2  -5  12 95914.7 6096.86   1
   5   2 -12 67982.7 5396.04   1
   2   5 -12 92242.1 6053.92   1
   7  -2  12 87917.2 6092.08   2
   7  -5  12 92012.4 5922.54   2
   2   5 -13 115.412 425.125   1
  -5  -2  13 552.973 421.383   1
   7  -5  13-569.112 812.552   1
   7  -2  13 3.23743 295.515   1
  -7   2 -13 326.331 543.395   1
  -7   5 -13 911.585 579.493   1
  -2  -5  13 313.668 247.629   1
   7  -2  13 647.681 502.330   2
   7  -5  13 112.947 592.370   2
   5   2 -13-483.202 585.351   1
   2   5 -14 237.671 516.864   1
  -5  -2  14 1329.37 889.200   1
   7  -5  14-58.7906 258.053   1
   7  -2  14 1357.08 856.742   1
  -2  -5  14 470.166 421.119   1
  -7   5 -14 1060.55 843.085   1
  -7   2 -14 232.290 478.925   1
   7  -5  14-660.468 762.032   2
   7  -2  14-519.007 638.455   2
   5   2 -14 169.483 261.301   1
   2   5 -15 294.018 227.687   1
  -5  -2  15 429.172 317.984   1
   7  -5  15-448.339 812.671   1
   7  -2  15 641.125 902.710   1
  -7   5 -15 1504.66 801.888   1
  -2  -5  15 399.514 617.380   1
  -7   2 -15 489.563 528.946   1
   7  -5  15 1952.88 997.819   2
   7  -2  15 147.269 460.176   2
   5   2 -15-421.861 841.947   1
   7  -5  16 97122.7 6661.35   1
  -7   5 -16 98947.2 6708.57   1
   7  -2  16 92028.8 6510.06   1
  -5  -2  16 68860.8 5763.81   1
  -7   2 -16 99523.2 6630.04   1
   7  -5  16 91621.1 6515.34   2
  -2  -5  16 99692.4 6729.42   1
   5   2 -16 79401.4 6112.95   1
   7  -2  16 91287.3 6682.54   2
   2   5 -16 105206. 6717.67   1
   2   5 -17 1009.78 694.332   1
  -5  -2  17 603.471 267.459   1
   7  -5  17 844.096 706.716   1
   7  -2  17 1465.68 963.235   1
  -7   5 -17 1330.76 607.144   1
  -7   2 -17 2123.02 1213.65   1
  -2  -5  17 1817.03 1022.40   1
   7  -5  17 1488.16 957.947   2
   7  -2  17 318.402 240.582   2
   5   2 -17 579.382 304.760   1
  -5  -2  18 1922.86 1100.14   1
   7  -5  18 967.464 263.466   2
   7  -2  18 1430.38 733.032   2
   5   2 -18 810.439 552.177   1
   6  -7  17 29843.5 3800.41   1
   6   1  17 31055.5 3722.27   1
  -6  -1 -17 31679.8 3658.67   1
   6   1  17 25628.6 3709.99   2
  -1   7 -17 28281.9 3533.86   1
   1  -7  17 35146.3 3923.76   1
  -6   7 -17 29154.5 3550.38   1
   1  -7  17 27273.2 3680.32   2
   6  -7  17 25954.4 3398.69   2
  -1   7 -16 1110.08 635.192   1
   6  -7  16 1380.63 835.212   1
  -6   7 -16 2478.48 1181.79   1
   6   1  16 1808.34 935.957   1
   6  -7  16 1433.97 924.022   2
   1  -7  16 1617.39 940.635   1
   1  -7  16 165.126 306.284   2
  -6  -1 -16 1852.34 900.907   1
   6   1  16 1155.34 967.836   2
   6  -7  15 30321.2 3759.88   1
   6   1  15 28143.7 3492.19   1
  -6  -1 -15 28566.4 3511.44   1
   1  -7  15 26903.6 3542.51   2
   6  -7  15 24755.0 3282.02   2
   6   1  15 28530.3 3646.04   2
  -1   7 -15 28489.6 3453.05   1
   1  -7  15 31078.9 3574.71   1
  -6   7 -15 27676.1 3413.98   1
   6  -7  14 47697.2 4695.45   1
   6   1  14 61820.3 5080.05   1
   1   6  14 55563.4 4878.30   1
  -6  -1 -14 62399.8 5078.22   1
   6  -7  14 57282.9 4907.09   2
  -1   7 -14 52751.4 4661.42   1
   6   1  14 54487.0 5061.53   2
   1  -7  14 65061.9 5119.74   1
   1   6  14 34486.1 3828.88   2
   1  -7  14 51586.4 4847.61   2
  -6   7 -14 49661.6 4530.22   1
  -1   7 -13 11360.3 2101.63   1
   6  -7  13 10458.6 2150.06   1
  -6   7 -13 10642.1 2036.32   1
   1  -7  13 10467.2 2042.88   1
   6   1  13 12732.3 2149.10   1
   1   6  13 12706.0 2200.78   1
   1  -7  13 10092.3 2095.27   2
   1   6  13 3348.51 1004.06   2
   6  -7  13 10915.0 1990.05   2
  -6  -1 -13 11834.8 2103.30   1
   6   1  13 11754.8 2145.80   2
  -1  -6 -13 13217.3 2245.29   1
   6  -7  12 18483.3 2759.02   1
  -1   7 -12 16531.2 2424.02   1
   6  -7  12 17070.6 2617.60   2
   6   1  12 17272.5 2620.82   1
   1   6  12 17073.8 2547.00   1
   1  -7  12 16375.9 2493.24   1
  -6  -1 -12 18115.1 2583.95   1
  -1  -6 -12 16267.2 2447.45   1
   1  -7  12 14997.1 2389.07   2
   6   1  12 15785.9 2533.92   2
   1   6  12 11207.7 2164.49   2
  -6   7 -12 15100.7 2432.89   1
  -1   7 -11 8248.91 1643.39   1
  -1  -6 -11 10482.7 1907.28   1
   1  -7  11 7588.86 1653.70   1
   6  -7  11 7536.53 1731.02   1
  -6   7 -11 8037.74 1645.87   1
  -7   1  11 8027.87 1580.12   1
   1  -7  11 7883.77 1801.34   2
   6   1  11 7989.62 1757.43   1
   1   6  11 9465.71 1822.30   1
   6  -7  11 7419.46 1629.10   2
   6   1  11 9606.95 1812.74   2
   1   6  11 4464.05 1338.11   2
  -6  -1 -11 7643.74 1725.38   1
   6  -7  10 102040. 6541.72   1
   6   1  10 90445.3 6080.73   1
   1   6  10 112471. 6517.67   1
  -6  -1 -10 107357. 6387.68   1
   1  -7  10 116748. 6720.46   1
   7  -1 -10 90090.3 5659.82   1
   1  -7  10 86269.2 6176.35   2
   6  -7  10 103914. 6328.29   2
  -1   7 -10 100656. 6103.50   1
  -1  -6 -10 116816. 6491.96   1
   6   1  10 109336. 6240.66   2
  -7   1  10 112764. 6379.65   1
  -6   7 -10 105836. 6283.96   1
   6  -7   9 26517.0 3136.77   1
   6   1   9 27937.8 3134.57   1
   1   6   9 26367.4 2964.87   1
   1  -7   9 28804.5 3149.24   2
   7  -1  -9 25483.6 2826.20   1
   6  -7   9 30277.2 3334.09   2
  -6  -1  -9 32237.9 3333.55   1
  -7   1   9 32047.5 3182.07   1
   1  -7   9 35268.3 3459.94   1
  -1  -6  -9 28458.1 3059.66   1
  -1   7  -9 21121.0 2723.95   1
   6   1   9 29749.0 3033.38   2
  -6   7  -9 31294.3 3251.69   1
   6  -7   8 104258. 6119.45   1
   6   1   8 89586.1 5547.76   1
   1   6   8 95334.0 5655.52   1
  -6   7  -8 92323.3 5565.15   1
   1  -7   8 83340.5 5487.84   1
  -7   1   8 95375.0 5663.30   1
   7  -1  -8 81573.0 5159.32   1
  -6  -1  -8 93998.1 5674.27   1
   6  -7   8 82922.8 5470.27   2
   1  -7   8 97488.4 6099.72   2
  -1  -6  -8 103674. 5869.93   1
  -1   7  -8 91696.3 5717.81   1
   6   1   8 101822. 5951.20   2
   6  -7   7 90789.2 5499.46   1
   6   1   7 76144.0 5028.41   1
   1   6   7 76371.8 4972.75   1
   1  -7   7 76008.7 5071.52   1
  -7   1   7 78544.8 5046.75   1
   7  -1  -7 88660.6 5104.78   1
  -6  -1  -7 73578.8 5002.62   1
  -1   7  -7 82258.5 5351.79   1
   6  -7   7 75644.7 5154.97   2
  -1  -6  -7 69486.1 4698.57   1
   6   1   7 82910.0 5207.78   2
   1  -7   7 67756.1 5089.51   2
  -6   7  -7 74395.0 4909.46   1
   6  -7   6 424581. 13106.7   1
   6   1   6 362810. 12602.5   1
   1  -7   6 389537. 12928.4   1
   1   6   6 359014. 12538.3   1
  -7   1   6 430426. 13185.8   1
   7  -1  -6 431914. 12822.0   1
  -1   7  -6 405612. 13283.0   1
   1  -7   6 328791. 12923.1   2
  -6  -1  -6 362470. 12682.2   1
   6   1   6 402398. 13162.0   2
  -1  -6  -6 399695. 12618.0   1
   6  -7   6 373739. 12812.5   2
  -6   7  -6 405470. 12747.9   1
   6  -7   5 94653.4 5323.64   1
   1  -7   5 101985. 5737.90   1
   1  -7   5 116352. 6452.32   2
  -7   1   5 119089. 6061.11   1
   6   1   5 109431. 6023.84   1
   1   6   5 108552. 5906.47   1
   7  -1  -5 103394. 5457.86   1
  -6  -1  -5 98960.3 5656.83   1
   6  -7   5 92237.2 5540.32   2
  -1   7  -5 107235. 6113.07   1
   6   1   5 111658. 6027.46   2
  -6   7  -5 97599.5 5319.91   1
  -1  -6  -5 102980. 5553.65   1
   6  -7   4 11087.3 1691.84   1
  -1  -6  -4 11742.6 1788.41   1
  -7   1   4 11037.7 1728.98   1
  -6   7  -4 11157.4 1588.91   1
   7  -1  -4 11193.1 1711.00   1
  -6  -1  -4 11045.2 1729.64   1
   6   1   4 8422.48 1626.37   1
   1  -7   4 7587.12 1558.02   2
   1   6   4 10615.1 1679.32   1
   6  -7   4 8477.54 1565.15   2
  -1   7  -4 10735.5 1760.77   1
   7  -1  -4 8308.64 1426.57   2
   6   1   4 11453.4 1808.02   2
   1  -7   4 8928.97 1586.14   1
  -1  -6  -3 298210. 9991.88   1
  -7   1   3 243913. 9295.14   1
   6   1   3 233531. 9432.52   1
   6  -7   3 257876. 9742.63   2
   7  -1  -3 247322. 9322.14   1
   1   6   3 262011. 9830.74   1
  -1   7  -3 271600. 10152.9   1
   7  -1  -3 223270. 8515.19   2
   6   1   3 307963. 10799.8   2
  -6  -1  -3 249350. 9417.71   1
  -6   7  -3 267496. 8890.08   1
   1  -7   3 268727. 9596.74   1
   6  -7   3 269226. 9076.76   1
  -7   1   2 202558. 8011.73   1
  -1  -6  -2 164052. 7369.87   1
   6   1   2 184604. 7706.53   1
   7  -1  -2 163649. 7038.18   1
   1   6   2 207947. 8156.60   1
   6  -7   2 166914. 7423.87   2
   7  -6  -2 150791. 6463.95   2
  -1   7  -2 155145. 7250.36   1
  -6   7  -2 178777. 6532.79   1
   1  -7   2 180462. 7489.55   1
   7  -1  -2 144117. 6597.36   2
   6   1   2 188918. 8061.01   2
  -6  -1  -2 145527. 7030.82   1
  -7   1   1 212900. 8498.82   1
  -6  -1  -1 222951. 8834.85   1
  -1  -6  -1 174266. 7824.28   1
   7  -1  -1 231552. 8574.52   1
   6   1   1 226836. 8670.61   1
   1   6   1 189729. 8235.55   1
  -1   7  -1 163142. 7640.26   1
   6  -7   1 246748. 8896.23   2
   7  -6  -1 230851. 8422.39   2
   1  -7   1 222736. 8386.45   1
   7  -1  -1 248615. 8703.28   2
   6   1   1 246522. 9634.86   2
   6  -7   0 55111.5 3793.07   2
  -6  -1   0 49931.1 3839.66   1
   7  -1   0 48874.6 3639.27   1
   6   1   0 47824.3 3716.66   1
  -1  -6   0 49028.1 3695.07   1
   7  -6   0 52570.3 3648.70   2
   1   6   0 42945.6 3545.82   1
  -1   7   0 37494.5 3175.04   1
   1  -7   0 53860.3 3739.36   1
   7  -1   0 44215.8 3444.97   2
  -7   1   0 52007.1 3759.13   1
  -6  -1   1 815.044 524.821   1
   7  -1   1 1031.67 645.212   2
  -7   1  -1 1095.20 475.547   1
   1  -7  -1-100.644 569.708   1
   7  -1   1 221.460 247.802   1
   6  -7  -1 1068.62 624.135   2
  -1   7   1 1120.64 529.903   1
   7  -6   1 1020.88 380.794   2
   1   6  -1 1472.70 700.116   1
  -1  -6   1 838.370 402.790   1
   6   1  -1 2977.05 1062.05   1
  -7   6  -2 422504. 11242.9   1
  -6  -1   2 369829. 12198.1   1
   1  -7  -2 377657. 11572.6   1
   7  -1   2 316465. 11368.5   1
   6   1  -2 396067. 12285.1   1
  -1   7   2 348812. 11340.6   1
   1   6  -2 361672. 11987.3   1
   6  -7  -2 354999. 11318.2   2
   7  -6   2 318150. 11184.7   2
  -7   1  -2 346927. 11633.1   1
   7  -1   2 333442. 11386.5   2
  -1  -6   2 362750. 11842.6   1
   1  -7  -3 4270.87 1113.31   1
   7  -6   3 2985.33 813.016   1
  -6  -1   3 3107.04 986.999   1
  -7   1  -3 2843.76 908.318   1
  -1  -6   3 3645.85 1011.59   1
   6   1  -3 2255.43 770.087   1
   7  -1   3 1892.43 748.189   1
  -7   6  -3 3842.27 953.164   1
   6  -7  -3 1966.68 662.062   2
  -1   7   3 2750.56 772.775   1
   7  -6   3 2883.72 1031.67   2
   1   6  -3 2327.34 819.438   1
   7  -1   3 3957.19 1056.66   2
   7  -6   4 92996.2 5096.46   1
   1  -7  -4 102831. 5292.33   1
  -7   6  -4 97110.8 5323.70   1
   7  -1   4 96390.1 5382.53   1
  -1   7   4 78557.2 4808.66   1
  -6  -1   4 107313. 5833.95   1
   6   1  -4 96342.6 5437.10   1
   6  -7  -4 96606.2 5202.35   2
   1   6  -4 112093. 6068.62   1
  -7   1  -4 100224. 5565.95   1
   7  -1   4 105256. 5645.40   2
  -1  -6   4 108545. 5862.57   1
   7  -6   4 90637.8 5354.77   2
   7  -6   5 136309. 6506.71   1
  -7   6  -5 142419. 6740.38   1
   7  -1   5 127405. 6408.02   1
  -1   7   5 132591. 6275.34   1
  -6  -1   5 113773. 6355.38   1
   6   1  -5 140822. 6675.60   1
  -7   1  -5 131906. 6691.90   1
   7  -1   5 118740. 6406.41   2
   1   6  -5 121434. 6571.13   1
  -1  -6   5 123913. 6452.38   1
   7  -6   5 132576. 6701.46   2
  -1  -6   6 279148. 10848.9   1
   7  -6   6 351242. 11478.1   1
  -7   6  -6 268821. 10517.5   1
   7  -1   6 301112. 11119.8   1
  -7   1  -6 301632. 10986.7   1
  -1   7   6 319239. 10760.8   1
   6   1  -6 349262. 11398.8   1
  -6  -1   6 282044. 10838.9   1
   1   6  -6 288818. 11234.1   1
   7  -1   6 305398. 11083.1   2
   1  -7  -6 343093. 10735.1   1
   7  -6   6 283729. 10905.2   2
   7  -6   7 213566. 8924.81   1
  -7   1  -7 229300. 9413.36   1
  -7   6  -7 225238. 9254.05   1
  -1  -6   7 196526. 8899.50   1
   7  -1   7 224285. 9351.27   1
   1  -7  -7 216286. 8362.04   1
   1   6  -7 220240. 9423.14   1
   6   1  -7 221853. 8982.91   1
   7  -6   7 228258. 9443.49   2
   7  -1   7 227329. 9276.67   2
  -6  -1   7 209767. 8961.00   1
  -7   1  -8 166.610 387.709   1
  -1  -6   8 2116.93 864.031   1
   7  -6   8 2577.41 1090.23   1
  -6  -1   8 604.494 447.562   1
   7  -1   8 403.084 493.336   1
  -1   7   8 669.724 356.644   1
  -7   6  -8 131.544 499.053   1
   7  -6   8 964.458 556.775   2
   6   1  -8 1180.06 688.026   1
   7  -1   8 1564.81 639.851   2
   1   6  -8 449.159 515.508   1
   7  -6   9 84975.9 5558.49   1
  -7   6  -9 69721.9 5091.23   1
   7  -1   9 76620.7 5179.51   1
  -1  -6   9 77106.1 5117.74   1
   6   1  -9 80033.3 5299.74   1
  -7   1  -9 70791.6 5042.99   1
   7  -6   9 67581.5 5023.53   2
   1   6  -9 66768.5 4943.27   1
  -6  -1   9 71613.1 5016.93   1
   7  -1   9 77130.5 5246.06   2
   7  -6  10 134291. 7405.98   1
  -7   6 -10 150855. 7769.15   1
   7  -1  10 129750. 7223.96   1
   6   1 -10 131699. 7177.13   1
  -1  -6  10 125110. 7047.03   1
  -7   1 -10 139547. 7270.23   1
   7  -6  10 123983. 7138.11   2
   1   6 -10 144330. 7498.11   1
  -6  -1  10 145074. 7571.42   1
   7  -1  10 128462. 7113.75   2
   7  -6  11 36223.9 3767.78   1
  -7   6 -11 36725.9 3772.63   1
   7  -1  11 36721.3 3649.37   1
  -1  -6  11 34589.3 3551.33   1
  -7   1 -11 34327.5 3498.54   1
   6   1 -11 32742.4 3576.81   1
   7  -6  11 39748.1 3818.10   2
   1   6 -11 35117.6 3659.60   1
   7  -1  11 38079.1 3746.82   2
  -6  -1  11 40669.2 3888.60   1
   1   6 -12 11973.4 2000.59   1
   7  -6  12 10130.4 1966.93   1
   7  -1  12 7790.98 1762.86   1
  -7   6 -12 13453.8 2269.77   1
  -1  -6  12 10415.1 2082.76   2
  -6  -1  12 11491.6 2100.76   1
   7  -6  12 9565.60 1998.31   2
  -7   1 -12 11015.1 2040.68   1
   6   1 -12 9772.46 1924.64   1
  -1  -6  12 13222.7 2273.04   1
   7  -1  12 9543.04 2001.29   2
   1   6 -13 17818.2 2568.03   1
   7  -6  13 17022.2 2679.93   1
  -7   6 -13 18572.9 2814.04   1
   7  -1  13 16919.2 2548.59   1
  -7   1 -13 16804.0 2640.31   1
  -1  -6  13 20479.5 3099.30   2
   6   1 -13 24095.7 3115.83   1
  -1  -6  13 17344.2 2505.40   1
   7  -1  13 17358.4 2879.82   2
   7  -6  13 18262.0 2674.39   2
  -6  -1  13 16151.7 2566.44   1
   7  -6  14 36392.9 3919.69   1
  -7   6 -14 49166.3 4580.92   1
   7  -1  14 43083.6 4237.17   1
  -7   1 -14 43208.7 4240.73   1
  -1  -6  14 46462.7 4401.86   1
   6   1 -14 42807.4 4345.56   1
   7  -6  14 41656.7 4170.22   2
   1   6 -14 41308.3 4116.81   1
   7  -1  14 42077.6 4504.83   2
  -1  -6  14 38549.9 4324.00   2
  -6  -1  14 44682.9 4373.78   1
   1   6 -15 7626.33 1549.92   1
   7  -6  15 7633.96 1897.94   1
   7  -1  15 9496.71 2027.50   1
  -7   6 -15 7917.85 1758.72   1
  -1  -6  15 8403.23 1961.60   1
  -7   1 -15 5647.76 1519.24   1
   7  -6  15 7523.30 1821.13   2
  -6  -1  15 7923.81 1972.35   1
   7  -1  15 6457.99 1822.57   2
   6   1 -15 8753.05 2044.71   1
   1   6 -16 14593.0 2392.17   1
   7  -1  16 16507.9 2694.58   1
   7  -6  16 13319.8 2492.89   1
  -7   1 -16 15783.0 2520.55   1
  -7   6 -16 13431.3 2431.51   1
  -1  -6  16 14607.3 2479.07   1
   7  -6  16 14407.6 2529.83   2
   7  -1  16 13707.1 2575.03   2
  -6  -1  16 15027.7 2586.17   1
   1   6 -17 4745.99 1381.89   1
   7  -6  17 4898.86 1529.59   1
   7  -1  17 5774.43 1483.00   1
   7  -6  17 6195.79 1598.50   2
  -7   6 -17 5429.07 1472.54   1
  -7   1 -17 5103.96 1423.58   1
  -1  -6  17 5032.21 1646.55   1
   7  -1  17 2659.46 1356.30   2
   0  -7   0-45.7264 514.783   1
   7  -7   0 47.4850 453.787   2
  -7   0   0 323.372 389.909   1
   0   7   0-193.580 295.711   1
   7   0   0 536.990 376.256   1
   7   0   0 1295.04 673.402   2
   0  -7  -1 2206.53 810.671   1
   7   0  -1 1276.79 766.679   1
  -7   0  -1 665.068 305.470   1
   7   0   1 1704.74 676.322   1
   7  -7  -1 954.028 711.817   2
   7  -7   1 2303.98 710.254   2
   0   7  -1 1398.13 706.924   1
   0   7   1 1090.00 561.433   1
  -7   0   1 2031.54 962.305   1
   0  -7   1 1169.05 352.902   1
   7   0   1 1596.69 408.105   2
   7   0  -1 375.410 533.675   2
  -7   0   2 146575. 7170.70   1
   0  -7  -2 186255. 7790.35   1
   7   0   2 160077. 7329.55   1
   7   0  -2 152849. 7178.12   1
   0   7   2 181444. 7656.06   1
   7  -7  -2 177828. 7330.37   2
   0   7  -2 165701. 7608.68   1
   7  -7   2 169934. 7418.02   2
   0  -7   2 160267. 7267.66   1
   7   0   2 170695. 7604.23   2
  -7   0  -2 160800. 7322.96   1
   0  -7  -3 267148. 9776.19   1
  -7   0   3 266960. 10151.0   1
   7   0   3 273217. 10186.2   1
   0   7  -3 279736. 10450.5   1
   0   7   3 357524. 11296.6   1
   7   0  -3 262954. 9823.28   1
   7   0   3 251178. 9807.93   2
   7  -7   3 260391. 9891.18   2
   0  -7   3 280690. 10184.1   1
  -7   0  -3 260364. 9991.35   1
   7   0  -3 184372. 8824.59   2
  -7   7  -4 100634. 5326.71   1
   0  -7  -4 111928. 5863.89   1
  -7   0   4 100014. 5790.65   1
   7   0   4 107564. 5988.91   1
   0   7   4 111394. 5942.07   1
   7   0  -4 99664.6 5579.39   1
   7  -7   4 93151.3 5545.22   2
   0   7  -4 98448.0 5843.39   1
  -7   0  -4 98107.8 5711.65   1
   7   0   4 96241.2 5598.84   2
   0  -7   4 106067. 5985.71   1
  -7   7  -5 145660. 6838.23   1
   7  -7   5 162921. 7261.81   1
   7   0   5 134929. 6857.85   1
  -7   0   5 134232. 6968.16   1
   0   7   5 153833. 7115.82   1
   7   0  -5 157717. 7139.07   1
   7  -7   5 132602. 6915.85   2
   0   7  -5 125133. 6999.94   1
  -7   0  -5 132144. 6924.33   1
   7   0   5 159019. 7399.02   2
   0  -7  -5 134375. 6597.48   1
   0  -7   5 135375. 6993.95   1
   7  -7   6 271063. 10186.4   1
  -7   7  -6 235431. 9580.97   1
   0  -7   6 208422. 9527.22   1
   7   0   6 266737. 10116.3   1
   0   7   6 259763. 9936.92   1
   0  -7  -6 263483. 9751.92   1
  -7   0   6 305845. 10844.5   1
   7   0  -6 236943. 9682.54   1
  -7   0  -6 242160. 9888.89   1
   7  -7   6 249704. 10131.2   2
   0   7  -6 221122. 9928.77   1
   7   0   6 254397. 9931.85   2
  -7   7  -7 21865.2 2644.71   1
   0  -7   7 18593.7 2539.90   1
   7   0   7 20693.8 2604.76   1
   0   7   7 22499.5 2560.89   1
  -7   0   7 19546.3 2612.99   1
   7  -7   7 17621.7 2463.69   1
   7   0  -7 17300.5 2333.20   1
  -7   0  -7 18682.6 2533.16   1
   7  -7   7 22332.0 2793.79   2
   0   7  -7 22135.7 2738.95   1
   0  -7  -7 23882.1 2641.87   1
   7   0   7 20062.6 2474.58   2
   7  -7   8 19740.7 2599.96   1
  -7   7  -8 18815.2 2508.93   1
   0  -7   8 16317.9 2289.43   1
   7   0   8 20391.1 2703.90   1
   0   7   8 17477.6 2369.88   1
  -7   0  -8 19617.2 2678.96   1
  -7   0   8 20802.1 2687.14   1
   7   0  -8 15697.9 2288.55   1
   7  -7   8 17454.3 2587.81   2
   7   0   8 20342.1 2564.07   2
   0  -7  -8 23471.9 2648.82   1
   0   7  -8 16904.2 2470.97   1
   7  -7   9 68700.0 5103.83   1
  -7   7  -9 66572.9 5045.92   1
   7   0   9 59943.7 4756.44   1
   0   7   9 50181.1 4195.11   1
   0  -7   9 67957.4 4937.31   1
   7   0  -9 63027.4 4644.01   1
  -7   0  -9 61715.1 4753.47   1
   0  -7   9 64744.5 5252.00   2
  -7   0   9 53032.0 4427.43   1
   7  -7   9 62480.9 4802.99   2
   0  -7  -9 72738.5 4958.26   1
   0   7  -9 58829.6 4670.03   1
   7   0   9 69579.2 4995.27   2
   7  -7  10 105322. 6614.69   1
  -7   7 -10 97061.5 6364.75   1
   7   0  10 106131. 6423.68   1
   0   7  10 91040.9 6031.48   1
   0  -7  10 107825. 6495.56   1
  -7   0 -10 100202. 6228.35   1
   7   0 -10 102333. 6262.77   1
   7  -7  10 105140. 6343.66   2
  -7   0  10 110613. 6541.40   1
   0   7 -10 97025.7 6266.09   1
   7   0  10 103447. 6464.64   2
   0  -7  10 90101.3 6615.31   2
   0   7 -11 19615.7 2649.04   1
  -7   7 -11 16520.7 2494.78   1
   7  -7  11 17824.4 2716.78   1
   7   0  11 15173.9 2510.63   1
  -7   0 -11 19185.8 2565.30   1
   0  -7  11 15710.5 2422.03   1
   7   0 -11 19459.3 2733.70   1
   0  -7  11 12869.8 2456.90   2
  -7   0  11 16135.9 2502.48   1
   7  -7  11 16297.9 2545.80   2
   7   0  11 16145.6 2582.83   2
  -7   0 -12 8119.00 1662.28   1
   0   7 -12 7382.16 1791.64   1
   7  -7  12 4654.73 1403.71   1
   7   0  12 6459.37 1452.95   1
  -7   7 -12 8633.49 1866.71   1
  -7   0  12 7175.39 1689.21   1
   0  -7  12 6775.54 1684.24   1
   7  -7  12 7518.18 1712.72   2
   0  -7  12 5965.26 1716.61   2
   7   0 -12 6863.87 1698.80   1
   7   0  12 7453.98 1799.98   2
   0   7  12 2025.66 1239.57   2
   0   7 -13 7884.67 1819.70   1
   7  -7  13 8364.50 1897.63   1
   7   0  13 9179.12 1914.24   1
  -7   7 -13 7219.85 1760.60   1
  -7   0  13 10071.7 2026.67   1
   0  -7  13 12304.0 2372.19   2
   0  -7  13 10213.2 2082.07   1
   7  -7  13 9485.13 2002.38   2
  -7   0 -13 11634.9 2205.78   1
   7   0  13 6173.44 1646.72   2
  -7   7 -14 50030.8 4720.62   1
   7  -7  14 52453.8 4923.93   1
   7   0  14 57190.7 4959.80   1
  -7   0 -14 55221.5 4835.45   1
   7  -7  14 56168.4 4899.87   2
   0  -7  14 59871.5 4993.66   1
   0  -7  14 47542.6 4893.29   2
   0   7 -14 56609.6 4814.53   1
   7   0  14 54395.0 4944.65   2
   7  -7  15 19922.2 3021.79   1
   7   0  15 21450.9 3031.47   1
  -7   0 -15 22012.9 3042.29   1
   0  -7  15 16239.8 2897.95   2
   7  -7  15 16552.0 2687.71   2
   0   7 -15 19433.7 2867.75   1
   7   0  15 17163.4 3169.05   2
   0  -7  15 20828.3 3056.57   1
  -7   7 -15 18844.2 2871.75   1
   0   7 -16 6162.15 1690.43   1
   7  -7  16 5481.20 1503.78   1
   7   0  16 7529.18 1679.90   1
  -7   7 -16 6686.08 1767.13   1
   0  -7  16 3845.32 1327.68   2
  -7   0 -16 6223.86 1581.43   1
   7  -7  16 8191.64 1922.81   2
   0  -7  16 7583.84 1855.92   1
   7   0  16 3762.57 1512.19   2
   7  -7  17 10625.7 2181.80   1
  -7   7 -17 13652.4 2539.49   1
  -4   8 -17 1126.37 945.652   1
   4   4  17 365.036 375.168   1
   4  -8  17-246.014 540.782   2
  -4  -4 -17-242.077 423.636   1
   4   4  17-865.072 652.318   2
   4   4  16 90071.3 6527.36   1
  -4  -4 -16 82339.7 6159.91   1
   4  -8  16 91035.7 6492.33   2
   4  -8  16 92541.8 6552.04   1
   4   4  16 70898.9 5854.38   2
  -4   8 -16 105251. 6911.88   1
  -4   8 -15-1258.49 737.358   1
   4   4  15-300.261 588.785   1
   4  -8  15-386.621 459.892   2
  -4  -4 -15-219.986 679.710   1
   4   4  15-641.526 1018.01   2
  -4   8 -14 1141.24 848.432   1
   4   4  14 1253.28 783.110   1
   4  -8  14-279.641 502.561   2
  -4  -4 -14-60.1368 390.043   1
   4   4  14 828.279 833.413   2
  -4   8 -13 8.75796 348.845   1
   4   4  13-291.041 656.613   1
   4  -8  13-340.209 343.748   2
   4   4  13 587.184 823.655   2
  -4  -4 -13-152.299 488.462   1
   4   4  12 190486. 8993.06   2
   4   4  12 180535. 9097.22   1
   4  -8  12 187179. 9273.15   1
  -4  -4 -12 189132. 9181.24   1
   4  -8  12 179003. 9109.21   2
  -4   8 -12 191724. 9325.60   1
  -4  -4 -11-185.462 247.278   1
  -4   8 -11-478.131 434.726   1
   4  -8  11-230.462 366.458   1
   4   4  11 861.665 891.164   1
   4  -8  11-618.513 257.348   2
   4   4  11 318.560 417.539   2
  -4   8 -10 2201.96 809.076   1
  -4  -4 -10 1057.13 730.028   1
   4   4  10 1701.92 917.035   1
   4  -8  10 1433.27 818.550   2
   4  -8  10 618.249 392.019   1
   4   4  10 511.898 445.997   2
   4  -8   9 90.5295 345.889   1
  -4   8  -9 586.618 360.043   1
  -4  -4  -9-167.348 499.461   1
   4   4   9-66.4555 329.237   1
   4  -8   9-138.361 444.798   2
   4   4   9 329.615 400.314   2
   4  -8   8 169263. 7953.77   1
   4   4   8 154459. 7691.12   1
   4  -8   8 150110. 7876.81   2
  -4  -4  -8 146742. 7416.19   1
  -4   8  -8 153176. 7642.92   1
   4   4   8 153147. 8223.64   2
   4  -8   7 24.3799 493.444   1
  -4   8  -7-868.878 721.881   1
  -4  -4  -7 162.965 363.955   1
   4   4   7-247.851 490.711   1
   4  -8   7 50.8277 597.726   2
  -4   8  -6 3311.03 1073.50   1
  -4  -4  -6 3816.22 1062.31   1
   4   4   6 3760.51 1123.05   1
   4  -8   6 5591.90 1296.22   1
   4  -8   6 1664.68 893.227   2
  -4   8  -5 543.804 504.671   1
   4  -8   5 207.925 256.734   1
   4   4   5-386.957 340.240   1
  -4  -4  -5 228.365 335.568   1
   4  -8   5 675.354 913.730   2
   4  -8   4 408583. 13344.1   2
   4   4   4 372397. 12750.4   1
   4  -8   4 397957. 12585.6   1
  -4   8  -4 418204. 12797.6   1
  -4  -4  -4 365095. 12576.6   1
   4  -8   3 151.476 426.451   1
   4  -8   3-230.066 265.118   2
  -4  -4  -3-151.750 435.803   1
   4   4   3 467.810 565.755   1
  -4   8  -3-37.6567 349.308   1
   4  -8   2 22018.8 2530.72   2
  -4  -4  -2 22412.2 2529.50   1
   4  -8   2 24822.5 2517.05   1
   4   4   2 22107.3 2668.67   1
  -4   8  -2 26052.2 2632.04   1
   8  -4  -2 19168.5 2102.96   2
  -4  -4  -1-619.621 304.985   1
  -8   4   1 362.977 249.727   1
   8  -4  -1 111.126 373.316   1
   4  -8   1 87.8553 364.056   1
   4  -8   1 83.9232 396.202   2
   4   4   1 914.773 597.627   1
   8  -4  -1-274.631 460.235   2
  -4   8  -1 386.824 329.992   1
  -4  -4   0 718536. 19295.3   1
   4   4   0 719738. 19071.1   1
   4  -8   0 707173. 19626.8   2
  -8   4  -1 163.739 221.227   1
  -4  -4   1 174.114 341.489   1
   8  -4   1-236.549 482.177   1
   4  -8  -1-326.927 580.976   2
   4   4  -1 365.501 558.189   1
   8  -4   1 224.702 251.036   2
   8  -4   2 97635.8 5241.53   1
  -4  -4   2 93303.3 5488.32   1
  -8   4  -2 103928. 5415.80   1
   4   4  -2 92955.4 5490.98   1
   8  -4   2 90210.2 5297.63   2
   8  -4   3-801.995 571.486   1
  -4  -4   3 203.970 256.693   1
   4   4  -3-631.113 352.923   1
   8  -4   3 9.89279 422.923   2
  -8   4  -3 41.0633 208.671   1
  -8   4  -4 262561. 10059.3   1
   4   4  -4 258497. 10057.6   1
   8  -4   4 249795. 10024.3   2
  -4  -4   5-589.534 650.250   1
   8  -4   5 149.263 487.544   1
   4   4  -5-334.813 458.421   1
   8  -4   5 568.047 720.722   2
  -8   4  -5 942.096 741.870   1
   8  -4   6 58218.2 4350.62   1
  -8   4  -6 55703.6 4314.89   1
   4   4  -6 47433.3 4061.00   1
  -4  -4   6 50601.2 4129.51   1
   8  -4   6 46752.9 4142.71   2
   8  -4   7 356.959 382.931   1
  -4  -4   7-200.314 309.027   1
  -8   4  -7 401.918 572.242   1
   4   4  -7-611.948 704.618   1
   8  -4   7 214.840 279.629   2
   8  -4   8 244086. 10383.0   1
  -8   4  -8 279916. 10909.4   1
  -4  -4   8 306765. 11311.0   1
   4   4  -8 273142. 10815.2   1
   8  -4   8 268474. 10835.2   2
   8  -4   9 202.760 317.073   1
  -4  -4   9 297.205 565.813   1
  -8   4  -9-322.778 641.308   1
   8  -4   9-362.540 433.023   2
   4   4  -9 315.124 653.835   1
   8  -4  10 1.57494 299.308   1
  -8   4 -10-107.489 477.942   1
   8  -4  10-191.960 604.823   2
   4   4 -10 778.968 422.943   1
   8  -4  11 404.594 499.706   1
  -8   4 -11 389.862 569.127   1
   8  -4  11-27.4070 468.239   2
  -4  -4  11-625.736 491.246   1
   4   4 -11 796.837 595.825   1
  -4  -4  12 150924. 8066.53   1
   8  -4  12 149651. 8177.94   1
   8  -4  12 152580. 8187.61   2
  -8   4 -12 156267. 8183.50   1
   4   4 -12 136048. 7876.78   1
  -4  -4  13 722.032 539.652   1
   8  -4  13-914.671 397.486   1
  -8   4 -13-269.817 549.979   1
   8  -4  13-722.530 627.752   2
   4   4 -13-344.806 799.566   1
  -4  -4  14 5900.63 1634.61   1
   8  -4  14 3858.88 1386.31   1
  -8   4 -14 3644.16 1101.39   1
   8  -4  14 2284.47 861.580   2
   4   4 -14 3456.28 1252.35   1
  -4  -4  15-365.097 923.429   1
   8  -4  15-1295.10 955.174   1
  -8   4 -15-551.382 584.626   1
   8  -4  15-436.486 495.669   2
   4   4 -15-874.345 843.974   1
   8  -4  16 95836.7 6705.28   1
  -8   4 -16 109145. 7120.07   1
  -4  -4  16 102439. 7051.59   1
   4   4 -16 113763. 7478.68   1
   8  -4  16 95224.6 6547.79   2
  -4  -4  17 25.7143 774.563   1
   4   4 -17-469.946 603.167   1
  -5   8 -17 3611.68 1163.50   1
   3   5  17 3250.29 1117.00   1
   5   3  17 2239.39 795.978   1
   5   3  17 2539.67 1131.05   2
   3  -8  17 2181.37 712.374   2
   5  -8  17 3050.27 1212.65   2
  -3  -5 -17 1646.00 700.706   1
  -5  -3 -17 3810.68 1232.56   1
   5  -8  16 3380.15 1368.47   1
  -3   8 -16 6387.72 1659.78   1
  -5   8 -16 6133.19 1651.27   1
   5   3  16 5460.97 1541.66   1
   3   5  16 4162.01 1379.27   1
   3  -8  16 5344.65 1610.56   1
   3  -8  16 5710.29 1624.16   2
  -3  -5 -16 3773.05 1197.39   1
  -5  -3 -16 5001.32 1355.23   1
   5   3  16 3419.09 1241.88   2
   3   5  16 1711.25 953.226   2
   5  -8  16 3441.12 1103.09   2
   5   3  15 73273.5 5702.76   1
   3   5  15 64685.4 5473.38   1
   3  -8  15 66435.4 5428.84   1
  -5  -3 -15 61935.2 5259.28   1
  -3  -5 -15 65988.1 5496.96   1
   3  -8  15 65333.5 5492.88   2
   5  -8  15 75039.2 5769.03   2
   5   3  15 63643.8 5373.97   2
  -3   8 -15 62797.5 5262.54   1
   3   5  15 48718.7 4703.18   2
  -5   8 -15 63850.2 5302.95   1
   5  -8  15 67172.5 5689.85   1
   3  -8  14 50086.5 4659.54   1
   5   3  14 54651.6 4862.87   1
   3   5  14 49535.4 4733.07   1
  -5  -3 -14 56827.8 4861.80   1
  -3  -5 -14 47999.3 4525.49   1
   5  -8  14 51776.1 4667.88   2
   3  -8  14 54698.6 5043.45   2
  -3   8 -14 52947.5 4563.34   1
   5   3  14 44895.7 4387.78   2
   3   5  14 36637.9 3909.21   2
  -5   8 -14 50879.8 4536.77   1
   5  -8  14 49721.5 4840.01   1
   3  -8  13 28699.7 3451.87   1
   5   3  13 34426.5 3673.37   1
   3   5  13 32923.2 3693.23   1
  -5  -3 -13 31369.4 3548.78   1
   5   3  13 27981.6 3255.59   2
  -3  -5 -13 34035.0 3722.78   1
   5  -8  13 29959.9 3512.16   2
   3  -8  13 27996.8 3434.12   2
  -3   8 -13 32611.6 3692.34   1
   3   5  13 26580.0 3321.31   2
  -5   8 -13 34325.2 3778.77   1
   5  -8  13 25883.7 3410.00   1
   5  -8  12 2072.47 832.512   2
  -5  -3 -12 1504.07 728.654   1
  -3  -5 -12 1607.94 717.217   1
   5  -8  12 2011.80 826.304   1
  -3   8 -12 2997.30 1014.22   1
   3  -8  12 1055.00 941.919   1
  -5   8 -12 734.893 707.309   1
   5   3  12 1969.96 716.662   1
   3   5  12 2208.81 894.547   1
   3  -8  12 1980.42 829.237   2
   5   3  12 1429.86 882.862   2
   3   5  12 2397.94 1018.47   2
  -5  -3 -11 1000.64 511.822   1
   5  -8  11 1637.67 988.357   1
  -3   8 -11 901.880 666.264   1
  -3  -5 -11 1431.79 853.327   1
  -5   8 -11 1738.76 920.465   1
   5   3  11 217.354 223.069   1
   3   5  11 1157.61 708.927   1
   5  -8  11 295.604 464.990   2
   3  -8  11 938.400 333.201   1
   5   3  11 493.370 276.535   2
   3  -8  11 400.105 465.749   2
   3   5  11 1197.77 679.504   2
   5   3  10 145497. 7634.57   1
   3   5  10 139471. 7555.19   1
   3  -8  10 144206. 7950.21   2
  -3   8 -10 129831. 7368.34   1
  -5  -3 -10 138976. 7454.50   1
  -5   8 -10 131480. 7280.72   1
   5  -8  10 128165. 7334.30   2
  -3  -5 -10 170938. 8065.84   1
   5   3  10 139547. 7484.17   2
   3   5  10 105905. 6868.76   2
   3  -8  10 144140. 7617.05   1
   5  -8  10 145807. 8071.26   1
   5   3   9 18439.8 2630.35   1
   3   5   9 18908.7 2534.95   1
   3  -8   9 16404.7 2518.03   2
   5  -8   9 21813.0 2818.00   2
  -5  -3  -9 20349.3 2653.78   1
  -3  -5  -9 17325.0 2406.30   1
  -3   8  -9 21863.8 2691.98   1
   5   3   9 23292.2 2864.09   2
  -5   8  -9 21847.3 2827.86   1
   3  -8   9 24542.6 2987.08   1
   5  -8   9 23410.9 2958.20   1
   5   3   8 60479.9 4559.21   1
   3   5   8 63679.3 4728.91   1
   3  -8   8 53696.8 4618.30   2
   5  -8   8 52396.7 4503.50   2
  -5  -3  -8 66612.4 4812.41   1
  -3  -5  -8 61926.3 4654.22   1
  -3   8  -8 64375.1 4866.69   1
   3  -8   8 62235.7 4641.68   1
  -5   8  -8 56252.1 4469.16   1
   5   3   8 68332.8 5103.81   2
   5  -8   8 65749.3 5051.99   1
   5   3   7 72045.6 5026.21   1
   3   5   7 68627.6 5002.91   1
   3  -8   7 81472.0 5198.46   1
   3  -8   7 67223.5 5116.12   2
   5  -8   7 62222.4 4863.40   2
  -5  -3  -7 75180.8 4972.47   1
  -3   8  -7 75184.0 5170.05   1
  -3  -5  -7 65687.6 4757.27   1
  -5   8  -7 69677.2 4916.15   1
   5   3   7 83828.6 5711.33   2
   5   3   6 109120. 6261.74   1
   3   5   6 107959. 6202.66   1
   5  -8   6 116043. 6130.11   1
   3  -8   6 116493. 6384.70   1
   3  -8   6 95859.3 6103.34   2
   5  -8   6 104512. 6177.24   2
  -5  -3  -6 87083.6 5633.94   1
  -3   8  -6 111481. 6158.04   1
  -5   8  -6 126153. 6511.99   1
  -3  -5  -6 103741. 5969.02   1
   5   3   6 121206. 6814.54   2
   5  -8   5 133332. 6469.00   1
   5   3   5 115229. 6573.78   1
   3   5   5 145453. 7169.96   1
   3  -8   5 133124. 6710.17   1
   3  -8   5 136950. 7222.48   2
   5  -8   5 129325. 6923.36   2
  -3   8  -5 136331. 6925.56   1
  -5   8  -5 150038. 7127.03   1
  -5  -3  -5 135671. 6854.96   1
  -3  -5  -5 132828. 6728.89   1
   3  -8   4 16571.0 2095.35   1
   3  -8   4 9636.56 1900.74   2
   5  -8   4 13809.6 2125.32   2
   5   3   4 12328.9 1935.22   1
   3   5   4 13650.2 2021.58   1
  -5  -3  -4 13207.3 1989.91   1
  -3  -5  -4 13963.6 1913.40   1
  -5   8  -4 12445.3 1891.20   1
   5  -8   4 14062.0 1912.56   1
  -8   3   4 13574.0 1832.61   1
  -3   8  -4 11160.3 1855.02   1
  -5  -3  -3 60429.6 4484.04   1
  -3  -5  -3 72375.3 4827.52   1
   3  -8   3 79751.3 4928.08   1
   8  -3  -3 84097.8 4555.10   1
   5   3   3 61697.7 4489.17   1
   3   5   3 66163.2 4666.25   1
   5  -8   3 71855.9 4298.40   1
   3  -8   3 71625.8 5109.59   2
  -3   8  -3 70103.1 4741.17   1
   5  -8   3 66418.8 4932.02   2
  -5   8  -3 76276.0 4509.90   1
  -8   3   3 74914.3 4419.08   1
  -5  -3  -2 391778. 13248.9   1
  -3  -5  -2 417233. 13427.4   1
   8  -3  -2 381353. 12236.8   1
   5   3   2 396761. 13174.0   1
   3   5   2 433860. 13852.6   1
   5  -8   2 409979. 13612.8   2
   3  -8   2 416869. 14288.1   2
  -3   8  -2 401026. 13248.1   1
   8  -3  -2 475237. 13250.4   2
  -8   3   2 425026. 12830.3   1
   3  -8   2 473647. 13367.1   1
   3   5   1 15310.6 2138.45   1
  -8   3   1 15124.3 2021.66   1
  -3  -5  -1 18192.8 2321.74   1
   5   3   1 18482.0 2321.17   1
   3  -8   1 17645.2 2524.16   2
   5  -8   1 16319.4 2305.56   2
  -3   8  -1 16990.2 2076.06   1
   8  -5  -1 14172.1 1850.42   2
   3  -8   1 21961.9 2372.99   1
   8  -3  -1 16423.9 2092.34   2
  -5  -3  -1 16914.9 2200.94   1
   3  -8   0 7657.05 1352.21   1
  -5  -3   0 7602.01 1500.31   1
   3   5   0 5913.82 1274.36   1
  -3  -5   0 8514.41 1607.27   1
  -8   3   0 6577.49 1317.37   1
   8  -3   0 6023.93 1146.48   1
   8  -3   0 5883.52 1197.20   2
   5  -8   0 6119.00 1501.84   2
   5   3   0 9440.49 1779.80   1
  -3   8   0 6977.27 1289.14   1
   8  -5   0 6431.47 1345.54   2
   8  -3   1 203364. 7749.99   1
  -5  -3   1 172722. 7940.69   1
  -8   3  -1 186514. 7733.32   1
  -8   5  -1 180944. 7176.81   1
  -3  -5   1 154235. 7434.70   1
   3  -8  -1 139459. 6410.75   1
   5   3  -1 161044. 7530.41   1
   3   5  -1 178163. 7808.06   1
   5  -8  -1 180323. 8095.37   2
  -3   8   1 198224. 7348.52   1
   8  -5   1 199984. 7875.51   2
   8  -3   1 145423. 7071.11   2
   8  -5   2 141098. 6296.99   1
   8  -3   2 129949. 6395.71   1
  -5  -3   2 121434. 6493.87   1
  -8   5  -2 107143. 5678.50   1
  -3  -5   2 139607. 6901.58   1
   5   3  -2 139442. 6795.91   1
   3   5  -2 124160. 6376.82   1
  -8   3  -2 164407. 7186.26   1
   8  -5   2 149058. 6899.29   2
   8  -3   2 156308. 7191.92   2
   5  -8  -2 144345. 7215.97   2
   8  -5   3 154134. 6741.77   1
   8  -3   3 125487. 6481.62   1
  -8   5  -3 148362. 6689.05   1
  -5  -3   3 134128. 6757.20   1
   5   3  -3 139195. 6846.20   1
   3   5  -3 115846. 6375.38   1
  -3  -5   3 131619. 6749.67   1
  -8   3  -3 129641. 6600.76   1
   8  -5   3 130504. 6589.04   2
   8  -3   3 127790. 6696.83   2
   8  -5   4 64935.6 4297.12   1
   8  -3   4 69208.1 4589.27   1
  -8   5  -4 62257.8 4302.61   1
   3   5  -4 47775.3 3925.89   1
  -5  -3   4 57432.7 4263.33   1
   5   3  -4 46522.8 3796.77   1
  -8   3  -4 54506.7 4156.04   1
  -3  -5   4 53920.7 4139.86   1
   8  -5   4 65935.7 4533.25   2
   8  -3   4 61737.6 4486.51   2
  -8   3  -5 745.233 593.802   1
  -8   5  -5 918.761 231.061   1
   8  -5   5 1928.96 855.258   1
  -3  -5   5 1512.26 750.464   1
   8  -3   5 1211.47 626.603   1
   5   3  -5 260.719 280.397   1
   3   5  -5 810.191 511.930   1
   8  -5   5 598.324 394.290   2
  -5  -3   5 1314.19 586.481   1
   8  -3   5 1028.07 654.644   2
   8  -5   6 293266. 10906.2   1
   8  -3   6 339310. 11680.4   1
  -8   5  -6 284357. 10648.5   1
   8  -5   6 305297. 11316.2   2
  -8   3  -6 299146. 11145.6   1
   5   3  -6 259133. 10460.9   1
   8  -3   6 328945. 11613.3   2
  -3  -5   6 298971. 11210.1   1
  -5  -3   6 269462. 10733.6   1
   3   5  -6 295540. 11252.1   1
   8  -5   7 39035.1 3659.17   1
   8  -3   7 43209.8 3890.00   1
  -8   5  -7 40525.3 3680.63   1
  -8   3  -7 41340.3 3698.83   1
   5   3  -7 40521.4 3731.92   1
   3   5  -7 41771.3 3821.37   1
  -5  -3   7 36151.0 3567.67   1
   8  -5   7 49505.4 4012.77   2
   8  -3   7 53239.7 4202.99   2
  -3  -5   7 51311.5 4126.14   1
   8  -5   8 39078.9 3728.79   1
   8  -3   8 37717.2 3615.95   1
  -8   5  -8 35179.4 3475.72   1
  -8   3  -8 36558.7 3494.94   1
   5   3  -8 32767.7 3381.55   1
   3   5  -8 31490.5 3390.02   1
   8  -5   8 28794.6 3196.96   2
  -5  -3   8 32742.5 3312.81   1
   8  -3   8 27234.5 3153.92   2
  -3  -5   8 28613.6 3154.05   1
  -3  -5   9 157288. 7798.51   1
   8  -5   9 142763. 7854.95   1
   8  -3   9 153394. 7963.25   1
  -8   5  -9 178737. 8492.80   1
  -8   3  -9 166095. 8208.22   1
   5   3  -9 174208. 8366.36   1
   3   5  -9 164109. 8264.68   1
   8  -5   9 150991. 7744.14   2
   8  -3   9 156751. 8019.16   2
  -5  -3   9 161485. 8093.63   1
  -3  -5  10 89861.7 6062.89   1
   8  -5  10 88350.9 6118.79   1
   8  -3  10 87190.9 5951.52   1
  -8   5 -10 82833.1 5752.33   1
  -8   3 -10 93687.8 6122.79   1
   5   3 -10 107238. 6484.69   1
   3   5 -10 113454. 6815.68   1
   8  -5  10 95564.4 6105.93   2
   8  -3  10 90826.9 6045.55   2
  -5  -3  10 105582. 6410.38   1
  -3  -5  11 8585.32 1755.63   1
   8  -5  11 11949.2 2225.96   1
   8  -3  11 13172.5 2272.10   1
  -5  -3  11 12759.8 2222.86   1
  -8   5 -11 9937.95 1933.12   1
  -8   3 -11 10707.1 2003.18   1
   8  -5  11 12367.2 2136.80   2
   8  -3  11 11929.1 2201.37   2
   5   3 -11 14128.9 2330.16   1
   3   5 -11 13226.6 2166.61   1
  -3  -5  12 1134.45 834.408   1
   8  -5  12 788.701 855.943   1
   8  -3  12 571.563 711.131   1
  -8   3 -12 325.817 575.062   1
  -5  -3  12 158.921 372.696   1
   8  -5  12 147.494 335.381   2
   8  -3  12-285.746 426.190   2
   5   3 -12 628.010 672.314   1
   3   5 -12-88.4727 284.501   1
  -8   5 -12-203.327 459.378   1
  -3  -5  13 5024.03 1588.57   1
   8  -5  13 4671.85 1322.36   1
   8  -3  13 3750.57 1314.99   1
  -8   5 -13 4509.25 1440.82   1
  -8   3 -13 5066.84 1449.50   1
   8  -5  13 5103.60 1411.16   2
  -5  -3  13 4009.80 1202.35   1
   8  -3  13 3102.91 1123.32   2
   5   3 -13 4621.99 1525.95   1
   3   5 -13 5057.05 1378.74   1
  -5  -3  14 54268.5 4847.66   1
   8  -5  14 50235.6 4808.82   1
   8  -3  14 48617.1 4584.42   1
  -8   5 -14 52058.4 4857.12   1
  -3  -5  14 59855.6 5081.39   1
  -8   3 -14 55601.0 4826.50   1
   8  -5  14 56437.3 4886.85   2
   3   5 -14 61964.5 5234.04   1
   8  -3  14 56144.6 4950.96   2
   5   3 -14 64231.9 5397.73   1
  -5  -3  15 45693.1 4575.57   1
   8  -5  15 40126.4 4331.39   1
   8  -3  15 39859.5 4234.87   1
  -8   5 -15 40551.9 4218.86   1
  -3  -5  15 47676.2 4611.37   1
  -8   3 -15 39776.6 4115.85   1
   8  -5  15 42589.4 4209.65   2
   5   3 -15 42828.7 4432.79   1
   3   5 -15 46045.0 4534.04   1
   8  -3  15 40981.0 4220.74   2
   8  -5  16 29223.0 3653.52   1
  -5  -3  16 29341.1 3588.92   1
   8  -3  16 33951.9 3868.91   1
  -8   5 -16 35977.5 3934.15   1
  -8   3 -16 31830.3 3760.68   1
  -3  -5  16 32480.7 3831.26   1
   5   3 -16 31993.1 3916.41   1
   8  -5  16 37220.3 3951.64   2
   3   5 -16 32081.7 3826.34   1
   8  -3  16 34988.2 4050.62   2
   5   3 -17 18490.0 2896.84   1
  -5  -3  17 16399.0 2828.39   1
   2  -8  17 14747.2 2722.05   2
  -2   8 -16 790.102 760.220   1
   6  -8  16 75.3188 512.222   1
  -6   8 -16 672.741 628.284   1
   6   2  16-928.288 1007.32   1
   2  -8  16-406.871 256.146   1
   2  -8  16 574.570 534.030   2
   6  -8  16-37.4990 365.879   2
  -6  -2 -16 250.633 593.708   1
   6   2  16 828.973 1106.07   2
   6   2  15 22601.5 3123.53   1
   2   6  15 22963.1 3226.85   1
  -6  -2 -15 24178.4 3144.51   1
   2  -8  15 19617.5 2971.80   2
   6  -8  15 23185.3 3156.90   2
  -2   8 -15 23060.7 2992.44   1
   6   2  15 18329.0 2976.04   2
   2  -8  15 26322.3 3378.48   1
  -6   8 -15 19201.2 2981.96   1
   6  -8  15 19370.8 3102.78   1
   6  -8  14 34940.7 3982.13   1
   6  -8  14 34083.4 3770.17   2
   6   2  14 36915.9 4000.19   1
   2   6  14 31124.1 3685.38   1
   2  -8  14 29770.3 3711.33   2
  -6  -2 -14 35580.1 3788.01   1
  -2  -6 -14 29228.8 3564.35   1
  -2   8 -14 33841.4 3840.15   1
   6   2  14 33501.0 3873.13   2
   2  -8  14 36386.0 3989.43   1
   2   6  14 15446.2 2582.61   2
  -6   8 -14 35452.8 3915.78   1
   6  -8  13 27415.7 3625.96   1
   6   2  13 34396.7 3772.24   1
   2   6  13 28601.6 3525.33   1
  -6  -2 -13 36067.9 3826.35   1
  -2  -6 -13 31195.7 3526.08   1
   6  -8  13 28027.0 3461.35   2
   2  -8  13 28673.7 3471.97   1
  -2   8 -13 38279.5 3945.11   1
   6   2  13 28647.4 3530.80   2
   2  -8  13 24600.4 3341.06   2
   2   6  13 18277.6 2804.76   2
  -6   8 -13 29420.3 3451.18   1
  -2  -6 -12 10014.8 1847.69   1
  -2   8 -12 6346.33 1651.71   1
   6  -8  12 5896.23 1566.28   1
   2  -8  12 8029.02 1812.68   1
  -6   8 -12 9455.08 1894.85   1
   6   2  12 6826.42 1681.28   1
   2   6  12 8291.16 1894.72   1
   2  -8  12 7773.21 1832.42   2
   6  -8  12 9280.54 1979.74   2
   6   2  12 6762.50 1752.00   2
   2   6  12 2479.04 1149.31   2
  -6  -2 -12 9018.22 1864.64   1
  -6  -2 -11 10260.6 2055.28   1
  -2   8 -11 6977.88 1536.07   1
   2  -8  11 9700.89 2057.81   1
   6  -8  11 9688.73 2076.85   1
  -2  -6 -11 9852.43 1889.87   1
  -6   8 -11 11056.1 1922.50   1
   6   2  11 9823.38 1883.93   1
   2   6  11 10337.6 2097.50   1
   2  -8  11 8463.54 1992.39   2
   6  -8  11 10669.7 2133.26   2
   6   2  11 10067.3 1880.75   2
   2   6  11 4106.70 1231.51   2
   6  -8  10 103740. 6696.09   1
   6   2  10 97684.0 6251.33   1
   2   6  10 103078. 6290.30   1
   2  -8  10 86238.8 6352.52   2
  -6  -2 -10 91680.4 6110.28   1
   6  -8  10 99377.2 6413.24   2
  -2  -6 -10 95376.8 6089.96   1
   2  -8  10 98933.2 6415.53   1
  -2   8 -10 87341.1 5948.06   1
   6   2  10 108287. 6429.48   2
  -6   8 -10 101974. 6329.03   1
  -2   8  -9 4980.78 1329.02   1
   6  -8   9 4129.05 1315.46   1
  -6  -2  -9 2840.82 887.829   1
  -6   8  -9 2863.64 1061.84   1
  -2  -6  -9 4940.47 1286.85   1
   6  -8   9 2439.11 850.150   2
   6   2   9 2519.56 966.700   1
   2   6   9 4744.55 1270.52   1
   2  -8   9 4069.29 1322.95   2
   2  -8   9 3868.32 1067.43   1
   6   2   9 4179.82 1247.97   2
  -2   8  -8 106160. 6467.94   1
   6   2   8 103899. 6242.77   1
   2   6   8 98332.9 6140.89   1
   2  -8   8 104912. 6348.71   1
   2  -8   8 116318. 6871.86   2
  -6  -2  -8 105059. 6218.56   1
   6  -8   8 109280. 6522.15   2
  -2  -6  -8 100341. 6131.27   1
   6   2   8 113963. 6534.75   2
  -6   8  -8 103884. 6195.89   1
   6  -8   8 106724. 6499.84   1
   6   2   7 40629.8 3747.37   1
   2   6   7 51153.1 4190.89   1
   2  -8   7 43752.7 3870.02   1
   2  -8   7 45508.1 4214.35   2
   6  -8   7 41261.8 3733.55   2
  -6  -2  -7 38608.0 3686.75   1
  -2   8  -7 40858.6 3850.20   1
  -2  -6  -7 40027.3 3695.37   1
   6   2   7 41953.3 3764.97   2
  -6   8  -7 37965.6 3556.78   1
   6  -8   7 40681.8 3811.61   1
  -8   2   6 351018. 11931.1   1
   2  -8   6 355937. 12348.9   1
   6   2   6 346949. 12291.4   1
   2   6   6 350018. 12432.9   1
   8  -2  -6 373861. 12069.3   1
   2  -8   6 298681. 12243.7   2
   6  -8   6 325106. 12104.1   2
  -2   8  -6 344679. 12570.1   1
  -6  -2  -6 337591. 12069.1   1
   6   2   6 362449. 12895.3   2
  -6   8  -6 318084. 11708.9   1
  -2  -6  -6 339420. 11956.9   1
   6  -8   6 339987. 12126.7   1
  -8   2   5 148971. 7059.02   1
   2  -8   5 174446. 7854.33   1
   6   2   5 137839. 7110.39   1
   2   6   5 120805. 6675.54   1
   8  -2  -5 127832. 6420.41   1
   2  -8   5 128690. 7266.74   2
   6  -8   5 137660. 7159.28   2
  -2   8  -5 131132. 7107.36   1
  -6  -2  -5 136157. 6902.12   1
  -6   8  -5 153007. 6947.29   1
   6   2   5 128295. 7248.03   2
  -2  -6  -5 112499. 6340.84   1
   6  -8   5 140312. 6936.25   1
  -6   8  -4 3023.29 842.640   1
  -6  -2  -4 2509.34 669.079   1
   6   2   4 2509.66 920.821   1
   2   6   4 2919.91 1008.13   1
   8  -2  -4 3184.37 821.810   1
   2  -8   4 2443.17 957.034   2
   6  -8   4 3118.72 1009.00   2
  -2  -6  -4 2846.00 870.605   1
  -8   2   4 4313.00 1073.80   1
  -2   8  -4 1340.84 652.272   1
   2  -8   4 2853.71 909.847   1
   6   2   4 3442.34 1186.34   2
  -8   2   3 170669. 7870.90   1
  -2  -6  -3 171320. 7983.90   1
   6   2   3 204802. 8740.35   1
   8  -2  -3 236132. 8693.75   1
   2   6   3 196204. 8551.67   1
   6  -8   3 187118. 8351.57   2
  -2   8  -3 218419. 9019.00   1
   2  -8   3 188340. 8995.09   2
   2  -8   3 194238. 8208.68   1
  -6  -2  -3 192406. 8463.61   1
   6   2   3 217222. 9411.77   2
  -6  -2  -2 55934.6 4258.65   1
  -2  -6  -2 55633.8 4230.07   1
   8  -2  -2 65062.8 4279.10   1
   6   2   2 63181.1 4382.57   1
  -2   8  -2 56234.7 4199.43   1
   2   6   2 55480.1 4250.00   1
   6  -8   2 53557.2 4327.91   2
   2  -8   2 56001.6 4090.78   1
   8  -2  -2 67649.6 4281.00   2
  -8   2   2 59989.8 4199.84   1
  -6  -2  -1 106168. 6013.76   1
  -2  -6  -1 100143. 5953.67   1
   8  -2  -1 124774. 6103.31   1
   6   2   1 115704. 6069.24   1
   2  -8   1 110983. 5780.02   1
   2   6   1 121337. 6314.89   1
  -2   8  -1 93703.6 5484.24   1
   6  -8   1 110642. 6187.92   2
   8  -6  -1 106507. 5569.37   2
   8  -2  -1 99190.1 5501.56   2
  -8   2   1 99332.0 5598.98   1
   8  -2   0 14508.5 1917.28   1
  -2  -6   0 15987.7 2223.29   1
   6   2   0 17977.1 2390.42   1
  -8   2   0 12585.6 1839.64   1
   2  -8   0 13816.4 2043.83   1
  -2   8   0 17287.4 2113.29   1
   6  -8   0 16858.6 2257.72   2
   8  -6   0 12832.7 1953.17   2
   2   6   0 13355.4 2026.23   1
   8  -2   0 18032.9 2243.81   2
  -6  -2   0 16424.9 2225.42   1
  -6  -2   1-91.7837 324.818   1
  -8   2  -1 254.723 251.345   1
   2  -8  -1-156.526 438.577   1
   8  -2   1 897.107 850.551   1
  -2  -6   1 363.781 412.830   1
   6   2  -1-22.1404 398.220   1
   6  -8  -1 480.561 509.484   2
  -2   8   1 949.603 550.449   1
   2   6  -1 536.209 473.051   1
   8  -6   1 93.9716 369.956   2
   8  -2   1 366.108 495.714   2
  -6  -2   2 216597. 9370.26   1
   2  -8  -2 190975. 8365.82   1
   8  -2   2 250865. 9407.97   1
   6   2  -2 264888. 9822.43   1
  -2   8   2 243193. 9008.92   1
  -2  -6   2 230700. 9405.11   1
   2   6  -2 199248. 8861.69   1
   6  -8  -2 239609. 9467.23   2
   8  -6   2 271252. 9933.34   2
  -8   2  -2 269757. 9911.19   1
   8  -2   2 262503. 9824.21   2
  -2  -6   3 163.859 356.430   1
  -8   2  -3-296.750 627.256   1
  -6  -2   3 1206.08 710.910   1
   8  -2   3-162.243 431.627   1
  -2   8   3 849.611 355.268   1
   6  -8  -3 1272.50 739.580   2
   6   2  -3 504.298 668.669   1
   8  -6   3 413.625 480.062   2
   2   6  -3 900.907 519.324   1
   8  -2   3 1176.21 787.062   2
   2  -8  -3 646.289 406.869   1
   8  -6   4 188370. 8029.10   1
  -8   6  -4 220379. 8433.78   1
   8  -2   4 174702. 7982.61   1
  -6  -2   4 192535. 8545.38   1
  -2   8   4 185459. 7631.65   1
   8  -2   4 210269. 8849.31   2
   6   2  -4 147873. 7546.97   1
   2   6  -4 173781. 8113.41   1
  -8   2  -4 181554. 8159.66   1
   8  -6   4 196534. 8572.27   2
  -2  -6   4 177420. 8111.20   1
   8  -6   5 108974. 5949.56   1
  -8   6  -5 112001. 6037.89   1
   2   6  -5 94497.1 5788.78   1
  -6  -2   5 97205.0 5842.90   1
   6   2  -5 87091.1 5435.29   1
  -8   2  -5 94678.3 5731.57   1
   8  -6   5 100384. 5996.22   2
  -2  -6   5 94920.0 5752.69   1
   8  -2   5 98504.9 5987.69   2
   8  -6   6 329101. 11762.8   1
  -8   6  -6 326826. 11667.0   1
   8  -2   6 365509. 12389.5   1
  -6  -2   6 262204. 11026.4   1
   6   2  -6 317511. 11446.7   1
  -8   2  -6 319538. 11798.4   1
   8  -6   6 287262. 11359.5   2
   8  -2   6 330071. 11989.3   2
  -2  -6   6 332806. 11930.8   1
   2   6  -6 323211. 11949.6   1
   8  -6   7 154788. 7604.59   1
  -8   6  -7 129456. 7081.63   1
   8  -2   7 147758. 7573.40   1
  -6  -2   7 139124. 7284.27   1
  -8   2  -7 126486. 7049.25   1
   2   6  -7 139935. 7345.21   1
   8  -6   7 136865. 7282.86   2
   8  -2   7 130907. 7014.24   2
  -2  -6   7 136745. 7236.67   1
  -6  -2   8 944.800 704.431   1
   8  -6   8-52.5967 247.226   1
   8  -2   8-217.794 331.297   1
  -8   6  -8 190.531 511.606   1
   6   2  -8-144.049 490.722   1
   8  -6   8 202.398 439.797   2
  -2  -6   8 437.045 691.545   1
   2   6  -8 406.845 364.319   1
   8  -2   8 819.788 657.339   2
  -8   2  -8 195.287 262.084   1
  -2  -6   9 66771.7 5092.72   1
   8  -6   9 55256.2 4740.54   1
  -8   6  -9 60596.8 4840.05   1
   6   2  -9 58190.0 4695.49   1
   8  -2   9 69372.0 5120.00   1
  -6  -2   9 62051.4 4788.85   1
  -8   2  -9 57097.9 4624.47   1
   2   6  -9 60538.9 4839.50   1
   8  -6   9 61530.3 4974.54   2
   8  -2   9 56167.2 4750.67   2
   8  -6  10 44579.8 4246.95   1
  -2  -6  10 47169.7 4276.12   1
  -8   6 -10 44498.2 4252.49   1
   8  -2  10 34307.2 3596.54   1
   6   2 -10 38729.4 3926.52   1
   2   6 -10 49326.8 4470.35   1
  -8   2 -10 44328.2 4134.06   1
   8  -6  10 51361.1 4458.64   2
  -6  -2  10 42058.2 4027.89   1
   8  -2  10 44582.2 4236.75   2
   8  -6  11 35079.5 3776.29   1
  -8   6 -11 32871.8 3718.99   1
   8  -2  11 33515.7 3658.45   1
  -2  -6  11 34836.6 3759.39   1
  -8   2 -11 33829.7 3690.96   1
   6   2 -11 38933.1 3861.19   1
   8  -6  11 35955.9 3767.14   2
   2   6 -11 35827.7 3814.52   1
   8  -2  11 30295.8 3756.81   2
  -6  -2  11 31332.5 3504.73   1
  -2  -6  12 3659.69 974.992   1
   8  -6  12 4129.92 1376.85   1
   8  -2  12 5703.00 1610.60   1
  -8   6 -12 4060.49 1381.73   1
  -6  -2  12 4310.72 1296.76   1
  -8   2 -12 5553.12 1429.98   1
   8  -6  12 5826.25 1546.91   2
   6   2 -12 4214.22 1358.18   1
   8  -2  12 4582.17 1451.50   2
   2   6 -12 2937.78 1132.39   1
   8  -6  13 8588.53 2019.06   1
  -2  -6  13 12798.9 2271.79   1
   8  -2  13 11139.0 2140.19   1
  -8   6 -13 9214.04 1961.94   1
  -6  -2  13 9598.45 2067.66   1
  -8   2 -13 10271.9 2002.57   1
   8  -6  13 11226.0 2166.38   2
   6   2 -13 10187.5 2088.10   1
   8  -2  13 9966.72 2223.01   2
   2   6 -13 12109.0 2294.15   1
   8  -6  14 48425.2 4700.51   1
  -8   6 -14 50729.3 4779.25   1
   8  -2  14 50218.1 4657.97   1
  -2  -6  14 56616.7 4955.16   1
  -8   2 -14 52491.2 4657.65   1
   6   2 -14 55880.0 5027.76   1
   8  -6  14 49590.9 4680.20   2
   8  -2  14 57106.7 4976.50   2
  -6  -2  14 41753.9 4354.04   1
   2   6 -14 63198.6 5278.98   1
   8  -6  15 1383.49 861.781   1
  -2  -6  15 3063.74 1262.37   1
   8  -2  15 480.076 339.013   1
  -8   6 -15 2501.66 1220.61   1
  -8   2 -15 1084.16 795.015   1
  -6  -2  15 234.985 617.414   1
   8  -6  15 2231.94 916.689   2
   8  -2  15 612.307 817.334   2
   6   2 -15 1093.06 444.613   1
   2   6 -15-352.950 588.081   1
   8  -6  16 19645.2 3093.04   1
  -8   6 -16 22199.6 3225.44   1
   8  -2  16 20252.3 2988.53   1
  -8   2 -16 22049.8 2987.32   1
  -2  -6  16 21910.8 3080.25   1
   8  -6  16 21622.1 3096.98   2
   6   2 -16 22746.6 3228.24   1
   2   6 -16 23188.9 3211.07   1
   8  -2  16 18269.2 3084.36   2
  -6  -2  16 12650.3 2396.42   1
  -6  -2  17 5955.62 1703.67   1
   7  -8  16 59276.6 5415.70   1
  -7   8 -16 64552.8 5439.69   1
  -1   8 -15 1141.05 687.223   1
   7  -8  15 1129.94 746.932   1
  -7   8 -15 2028.01 981.862   1
   7   1  15 1924.12 1113.49   1
   7  -8  15 2510.67 1118.77   2
   1  -8  15 1824.39 951.092   1
   1  -8  15 3048.33 1490.84   2
  -7  -1 -15 1650.16 730.173   1
   7   1  15 1946.25 1088.85   2
  -1   8 -14 2002.84 1098.23   1
   7  -8  14 3133.82 1212.68   1
  -7   8 -14 3240.97 1169.30   1
   1  -8  14 1208.03 1007.23   2
   7   1  14 2712.19 1137.56   1
   1  -8  14 3838.01 1195.66   1
   7  -8  14 3626.98 1253.97   2
  -7  -1 -14 3355.32 1185.48   1
   7   1  14 3798.04 1102.11   2
  -1   8 -13 323.864 452.385   1
   7  -8  13 188.976 571.854   1
  -7   8 -13-901.404 826.317   1
   7   1  13 216.266 572.715   1
   1  -8  13 839.071 642.612   2
   1  -8  13 1061.65 678.571   1
   7  -8  13-995.419 705.087   2
  -7  -1 -13 696.583 684.628   1
   7   1  13 538.413 507.579   2
   1   7  13-65.4341 451.842   2
   7  -8  12 79333.4 6148.08   1
   7   1  12 99558.6 6451.58   1
  -7  -1 -12 96535.5 6348.18   1
   1  -8  12 94235.9 6334.48   1
   1  -8  12 87740.8 6476.55   2
  -1   8 -12 93665.3 6197.12   1
   7   1  12 93709.4 6342.08   2
   7  -8  12 92989.9 6245.42   2
  -7   8 -12 94220.9 6352.97   1
  -7  -1 -11 577.393 618.617   1
  -1   8 -11 1214.12 697.966   1
  -1  -7 -11 81.7745 273.592   1
   7  -8  11-637.505 763.900   1
  -7   8 -11 384.669 486.306   1
   7   1  11 688.328 696.677   1
   1   7  11 328.575 399.768   1
   1  -8  11 1131.14 697.996   1
   7  -8  11-378.392 447.329   2
   7   1  11 477.420 760.869   2
   1  -8  11 1637.69 1001.96   2
  -7  -1 -10 6062.25 1513.23   1
   7  -8  10 5577.70 1485.83   1
  -1  -7 -10 6212.81 1487.59   1
  -7   8 -10 7924.11 1872.26   1
   7   1  10 5196.12 1439.89   1
   1   7  10 6591.42 1574.77   1
   1  -8  10 5372.35 1458.54   1
   1  -8  10 5781.34 1507.82   2
   7  -8  10 5022.26 1344.58   2
   7   1  10 6616.73 1620.94   2
  -1   8 -10 6378.75 1739.80   1
  -7  -1  -9 2290.38 1097.20   1
   7  -8   9 2217.12 844.072   1
  -1  -7  -9 2024.02 743.360   1
  -7   8  -9 2697.17 1021.98   1
   1  -8   9 2310.44 999.826   1
   7   1   9 1494.68 850.153   1
   1   7   9 1671.70 729.482   1
  -8   1   9 2606.76 957.784   1
   1  -8   9 1266.30 772.004   2
   7  -8   9 1693.40 703.087   2
   7   1   9 3009.82 1009.75   2
  -1   8  -9 2000.20 630.197   1
   7  -8   8 237953. 10205.5   1
   1  -8   8 222521. 9777.98   1
   7   1   8 222724. 9803.05   1
   1   7   8 247861. 10239.2   1
  -8   1   8 206538. 9519.23   1
   1  -8   8 222352. 10422.3   2
   8  -1  -8 252121. 10089.3   1
  -7  -1  -8 212070. 9700.94   1
  -1   8  -8 238077. 10304.8   1
  -1  -7  -8 241739. 9932.97   1
   7   1   8 207739. 9431.86   2
  -7   8  -8 210504. 9561.42   1
   7  -8   8 220228. 9761.42   2
   7  -8   7 4946.31 1281.04   1
   1  -8   7 5323.46 1547.63   1
  -7  -1  -7 3767.92 1211.26   1
  -7   8  -7 5202.80 1321.27   1
  -8   1   7 4649.47 1317.73   1
  -1  -7  -7 4234.85 1137.04   1
   7   1   7 4139.36 1192.37   1
   1   7   7 4487.24 1116.85   1
   1  -8   7 5533.69 1606.79   2
   8  -1  -7 6068.76 1448.65   1
   7  -8   7 4019.11 1203.09   2
   7   1   7 4233.65 1182.87   2
  -1   8  -7 4600.66 1328.11   1
   1  -8   6 44259.8 4003.24   1
  -8   1   6 48182.1 4081.03   1
   7   1   6 42625.6 3856.15   1
   1   7   6 37646.9 3576.73   1
   8  -1  -6 50414.7 4050.43   1
   7  -8   6 34754.1 3577.33   2
  -1   8  -6 43185.1 4048.24   1
  -7  -1  -6 38583.5 3689.77   1
   7   1   6 47136.7 3897.53   2
  -1  -7  -6 36617.6 3484.63   1
  -7   8  -6 38867.0 3554.48   1
  -8   1   5 62.2999 304.859   1
  -7  -1  -5 597.554 616.163   1
  -1   8  -5 810.926 751.497   1
   7   1   5 1281.93 913.169   1
   1   7   5 1120.41 675.757   1
   8  -1  -5 1042.39 706.501   1
  -1  -7  -5 581.805 408.176   1
   7  -8   5 924.137 577.287   2
   1  -8   5 841.087 451.034   1
   7   1   5 177.611 523.919   2
  -1  -7  -4 550532. 15470.0   1
  -8   1   4 463814. 14521.9   1
   7   1   4 420896. 14339.9   1
   1   7   4 379055. 13601.8   1
   8  -1  -4 506024. 14860.3   1
   7  -8   4 408388. 14285.0   2
  -1   8  -4 488988. 15337.7   1
  -7  -1  -4 434036. 14357.2   1
   7   1   4 451615. 14501.2   2
   1  -8   4 412418. 14138.3   1
  -7  -1  -3 7343.56 1510.41   1
   1  -8   3 7529.88 1470.19   1
   7   1   3 7467.60 1490.00   1
   8  -1  -3 6750.21 1406.47   1
   1   7   3 7965.43 1465.50   1
   7  -8   3 5585.83 1242.98   2
  -1   8  -3 7313.44 1576.09   1
  -8   1   3 10521.4 1817.92   1
   8  -1  -3 5429.03 1348.03   2
  -1  -7  -3 8383.79 1618.07   1
   7   1   3 6451.14 1360.39   2
  -8   1   2 219715. 9059.88   1
  -1  -7  -2 199394. 8678.16   1
   7   1   2 202009. 8840.15   1
   1   7   2 218255. 9072.60   1
  -1   8  -2 206461. 8925.81   1
   7  -8   2 188065. 8601.54   2
   1  -8   2 211863. 8764.03   1
   8  -1  -2 180641. 8047.01   2
   7   1   2 201870. 9112.65   2
  -7  -1  -2 192087. 8492.63   1
  -1  -7  -1 413.399 367.408   1
   8  -1  -1-361.679 216.017   1
   7   1   1 125.211 457.243   1
  -8   1   1 246.051 253.788   1
  -7  -1  -1 151.438 200.916   1
   1   7   1 49.4440 374.364   1
   7  -8   1 108.579 378.951   2
   8  -7  -1-267.398 245.648   2
  -1   8  -1 906.713 687.207   1
   1  -8   1 421.395 417.677   1
   8  -1  -1 300.397 540.414   2
   7   1   1 106.245 404.557   2
  -7  -1   0 120106. 6506.25   1
   8  -1   0 128682. 6496.22   1
  -1  -7   0 117368. 6384.73   1
   7   1   0 153041. 7102.49   1
   1  -8   0 109146. 6102.82   1
   1   7   0 119016. 6560.43   1
  -1   8   0 126756. 6526.01   1
   7  -8   0 134630. 6806.22   2
   8  -7   0 118925. 6267.10   2
   8  -1   0 131261. 6566.79   2
   7   1   0 109735. 6574.20   2
  -8   1   0 101388. 5966.55   1
   1  -8  -1-455.527 605.216   1
   7   1  -1-209.800 364.328   1
  -8   1  -1 814.320 586.218   1
   8  -1   1 720.809 515.513   1
  -1  -7   1 8.17009 313.698   1
   7  -8  -1 599.504 239.037   2
  -1   8   1 94.3665 319.042   1
   8  -7   1-160.775 207.179   2
   1   7  -1 987.529 697.563   1
  -7  -1   1 236.429 281.429   1
   8  -1   1 516.375 581.951   2
   7   1  -1 487.960 318.661   2
  -7  -1   2 138814. 7134.29   1
   1  -8  -2 160178. 7390.07   1
   8  -1   2 154096. 7282.57   1
   7   1  -2 116463. 6653.71   1
  -1   8   2 140366. 6863.53   1
   1   7  -2 119335. 6606.52   1
  -1  -7   2 136590. 6986.85   1
   7  -8  -2 139163. 6809.64   2
   8  -7   2 133158. 6867.91   2
  -8   1  -2 144498. 7203.98   1
   8  -1   2 139428. 6872.08   2
  -1  -7   3 2428.98 888.104   1
  -7  -1   3 3729.77 1125.77   1
  -8   1  -3 3174.14 1027.33   1
   8  -1   3 2339.45 726.882   1
  -1   8   3 2585.41 932.089   1
   7   1  -3 3077.98 1108.28   1
   8  -7   3 4115.00 1161.65   2
   1   7  -3 3523.87 1137.26   1
   8  -1   3 3986.50 1153.79   2
   1  -8  -3 3058.07 792.837   1
   1  -8  -4 429734. 14971.0   1
   8  -1   4 469727. 15522.0   1
  -7  -1   4 505471. 16309.7   1
  -1   8   4 658392. 16928.0   1
   7   1  -4 546851. 16235.2   1
   1   7  -4 600004. 17170.2   1
   8  -7   4 590490. 16883.0   2
  -8   1  -4 556707. 16576.0   1
  -1  -7   4 564694. 16682.9   1
   8  -1   4 520501. 16151.0   2
  -8   1  -5 5079.73 1471.58   1
  -7  -1   5 3560.09 1184.73   1
   8  -1   5 4004.55 1232.29   1
   1  -8  -5 4815.28 1135.25   1
  -1   8   5 4174.75 1045.62   1
   7   1  -5 4833.30 1184.92   1
   8  -7   5 5033.72 1291.94   2
   1   7  -5 3655.17 1015.56   1
   8  -1   5 6098.67 1392.81   2
  -1  -7   5 4473.68 1200.89   1
  -8   1  -6 2451.84 1174.94   1
   8  -1   6 1320.52 899.072   1
  -8   7  -6 738.381 538.024   1
  -7  -1   6 931.097 517.985   1
  -1   8   6 1035.01 697.611   1
  -1  -7   6 1223.69 793.338   1
   8  -7   6 2241.89 933.090   2
   1   7  -6 394.720 518.884   1
   8  -1   6 959.139 552.552   2
   7   1  -6 1971.40 852.929   1
  -8   1  -7 875.853 381.291   1
   8  -7   7 278.833 261.742   1
   8  -1   7 867.406 810.337   1
  -8   7  -7 553.551 865.697   1
  -7  -1   7 166.152 408.064   1
   7   1  -7 729.648 634.225   1
   8  -7   7-62.8533 418.236   2
  -1  -7   7 126.646 427.074   1
   1   7  -7 1423.30 350.126   1
   8  -1   7 928.427 715.607   2
  -1  -7   8 180288. 8663.27   1
   8  -7   8 177686. 8685.55   1
  -8   7  -8 169404. 8595.63   1
   8  -1   8 155156. 8140.95   1
  -7  -1   8 177220. 8737.31   1
  -8   1  -8 192626. 8779.90   1
   7   1  -8 165186. 8105.14   1
   8  -7   8 162598. 8359.25   2
   1   7  -8 184914. 8898.23   1
   8  -1   8 176908. 8643.62   2
  -1  -7   9 5528.16 1267.84   1
   8  -7   9 4973.88 1108.58   1
   8  -1   9 7142.55 1575.28   1
  -8   7  -9 5676.96 1509.95   1
   8  -7   9 6272.75 1580.89   2
   7   1  -9 6459.39 1583.87   1
   8  -1   9 5856.75 1538.52   2
  -7  -1   9 5327.15 1393.43   1
   1   7  -9 5928.67 1584.32   1
  -8   1  -9 6981.04 1478.27   1
  -7  -1  10 5699.99 1546.53   1
  -1  -7  10 7250.75 1739.13   1
   8  -7  10 5755.22 1380.42   1
   8  -1  10 4663.55 1229.37   1
  -8   7 -10 7177.54 1646.79   1
   8  -7  10 3828.91 1193.28   2
   7   1 -10 8969.40 1762.14   1
   8  -1  10 4821.43 1411.88   2
   1   7 -10 5950.89 1605.13   1
  -8   1 -10 5482.21 1484.32   1
  -7  -1  11 467.978 634.560   1
   8  -7  11 328.982 314.015   1
  -1  -7  11 53.2539 859.273   1
   8  -1  11-1281.90 846.018   1
  -8   7 -11-204.094 308.927   1
   8  -7  11 699.152 374.976   2
   7   1 -11 704.247 600.046   1
  -8   1 -11 316.645 526.356   1
   8  -1  11 516.526 551.864   2
   1   7 -11-272.826 489.694   1
   8  -7  12 79709.6 6187.13   1
  -8   7 -12 98385.9 6687.55   1
   8  -1  12 102916. 6657.72   1
  -1  -7  12 108252. 6759.04   1
  -8   1 -12 100380. 6578.89   1
   7   1 -12 101174. 6660.57   1
   8  -7  12 94858.3 6479.33   2
  -7  -1  12 97602.3 6527.10   1
   1   7 -12 112117. 7074.80   1
   8  -1  12 97412.2 6703.37   2
   8  -7  13 451.114 633.366   1
  -1  -7  13-552.466 553.731   1
   8  -1  13 1267.10 982.152   1
  -7  -1  13-272.044 388.106   1
  -8   7 -13-976.378 813.695   1
   8  -7  13-978.109 795.414   2
  -8   1 -13 531.896 734.479   1
   7   1 -13-812.485 448.107   1
   8  -1  13-198.694 662.700   2
   1   7 -13-396.872 585.694   1
   8  -7  14 992.672 589.765   1
  -1  -7  14 2636.67 1024.61   1
   8  -1  14 2271.65 728.437   1
  -8   7 -14 1188.31 743.699   1
  -7  -1  14 2452.90 1102.92   1
   8  -7  14 1885.59 1074.01   2
  -8   1 -14 2544.99 1074.91   1
   8  -1  14 1485.29 798.637   2
   1   7 -14 1254.65 414.165   1
   8  -7  15-187.209 346.628   1
   8  -1  15 818.038 490.000   1
  -8   7 -15-318.472 419.501   1
  -1  -7  15 525.431 482.649   1
  -8   1 -15-233.020 188.396   1
   8  -7  15 532.641 506.641   2
   8  -1  15 449.358 528.220   2
   1   7 -15 1229.76 710.053   1
  -8   7 -16 59133.3 5304.22   1
   8  -7  16 57282.3 5453.31   1
   0  -8   0 2199.44 682.489   1
   8   0   0 1109.35 457.731   1
  -8   0   0 3253.13 1216.19   1
   8  -8   0 2290.70 848.273   2
   0   8   0 2667.50 967.920   1
   8   0   0 1548.48 847.641   2
  -8   0   1 107124. 6268.32   1
   0  -8  -1 113823. 6308.69   1
   8   0   1 119966. 6589.81   1
   8   0  -1 86528.9 5617.26   1
   8  -8  -1 110667. 6186.39   2
   0  -8   1 108679. 6292.11   1
   0   8   1 90745.8 5809.04   1
   0   8  -1 116196. 6310.91   1
   8  -8   1 112197. 6331.76   2
   8   0   1 107448. 6152.41   2
   8   0  -1 98007.6 5867.78   2
  -8   0  -1 93089.6 5768.85   1
  -8   0   2 175333. 8214.61   1
   0  -8  -2 182000. 8144.76   1
   8   0   2 171836. 8019.69   1
   8   0  -2 153189. 7489.59   1
   0   8   2 156067. 7791.24   1
   0  -8   2 164575. 7892.74   1
   8  -8   2 172940. 8117.14   2
   8   0   2 168678. 7949.23   2
  -8   0  -2 163928. 7891.65   1
  -8   0   3 16348.1 2349.26   1
   0  -8  -3 17328.3 2406.42   1
   0  -8   3 11409.5 1876.30   1
   8   0  -3 12450.2 1968.80   1
   8   0   3 17212.1 2456.82   1
   0   8   3 20451.1 2650.00   1
   0   8  -3 17467.1 2555.64   1
   8  -8   3 14639.1 2266.37   2
  -8   0  -3 17429.6 2429.13   1
   8   0   3 16544.9 2348.69   2
   8   0  -3 7038.48 1535.38   2
   0  -8  -4 25184.8 2898.62   1
  -8   0   4 22474.0 2867.73   1
   8   0   4 23364.8 2783.57   1
   0   8   4 25180.7 2924.53   1
   8   0  -4 35732.6 3414.42   1
   0   8  -4 26349.0 3054.16   1
   8  -8   4 23636.9 2908.31   2
   0  -8   4 24799.3 2966.63   1
  -8   0  -4 24679.4 2935.44   1
   8   0   4 24186.9 2821.49   2
  -8   0   5 43749.3 4021.07   1
   8   0   5 41926.9 3724.52   1
   0   8   5 44534.8 3994.46   1
   8   0  -5 48680.9 4074.96   1
   0   8  -5 38434.0 3833.37   1
   8  -8   5 40074.2 3916.68   2
  -8   0  -5 43424.5 3873.38   1
   0  -8   5 42398.8 3984.26   1
   8   0   5 43625.2 3877.56   2
   0  -8  -5 44510.8 3883.89   1
   8   0   6 163654. 8197.51   1
  -8   0   6 179747. 8667.27   1
   0   8   6 169451. 8273.64   1
   8   0  -6 182962. 8460.51   1
   8  -8   6 180168. 8670.87   2
   0   8  -6 165955. 8464.30   1
  -8   0  -6 181984. 8464.67   1
   8   0   6 170314. 8242.66   2
   0  -8   6 174054. 8460.29   1
   0  -8  -6 174696. 8217.59   1
   8   0   7 34713.5 3646.43   1
   0   8   7 30333.0 3368.80   1
  -8   0   7 42270.0 4046.27   1
   8   0  -7 32670.2 3465.90   1
  -8   0  -7 35228.1 3637.65   1
   8  -8   7 37680.7 3843.00   2
   0   8  -7 36665.3 3843.37   1
   0  -8  -7 41112.7 3773.39   1
   8   0   7 38399.7 3729.45   2
   0  -8   7 34318.4 3654.25   1
   0  -8   8 26476.6 3286.19   1
   8   0   8 30438.4 3501.25   1
  -8   0   8 25765.6 3210.96   1
   8   0  -8 25163.2 3176.28   1
  -8   0  -8 27698.5 3231.02   1
   8  -8   8 27906.7 3160.05   2
   0   8  -8 30737.6 3537.87   1
   8   0   8 30726.9 3334.50   2
   0  -8   9 3634.38 1354.71   1
  -8   0  -9 5350.37 1481.94   1
  -8   8  -9 4144.39 1303.19   1
   8   0   9 5481.53 1446.93   1
  -8   0   9 5802.74 1524.75   1
   8   0  -9 5117.86 1311.86   1
   8  -8   9 5156.48 1373.09   2
   8   0   9 3563.01 1319.10   2
   0   8  -9 3222.46 1089.06   1
   8  -8  10 61827.2 5286.25   1
   0  -8  10 65679.7 5132.30   1
   8   0  10 61906.1 5082.10   1
  -8   0  10 64986.7 5243.73   1
  -8   0 -10 64857.0 5080.13   1
   8   0 -10 69173.0 5187.33   1
   8  -8  10 57967.1 4919.69   2
   0   8 -10 60702.8 5204.04   1
   8   0  10 60032.1 5111.23   2
  -8   8 -10 56963.0 4905.92   1
   8  -8  11 33445.6 3959.70   1
   8   0  11 39919.7 4069.09   1
   0  -8  11 36357.9 3823.42   1
  -8   0 -11 40722.8 4085.06   1
  -8   0  11 44181.8 4379.33   1
   8  -8  11 36115.9 3859.87   2
   0   8 -11 35002.0 3881.79   1
   8   0  11 35879.6 4023.64   2
  -8   8 -11 29235.4 3612.59   1
   8  -8  12 2921.77 1205.95   1
   0  -8  12 3711.22 1430.43   1
  -8   8 -12 2983.27 1192.68   1
   8   0  12 2628.31 914.087   1
   8  -8  12 2901.14 1227.13   2
   8   0  12 2303.57 997.499   2
  -8   0 -12 2988.99 1006.30   1
   0   8 -12 2757.38 1260.37   1
   0   8  12 545.792 417.673   2
   8  -8  13 27310.7 3712.55   1
   8   0  13 37367.8 4042.15   1
   0  -8  13 36374.7 3834.87   1
  -8   0 -13 33415.1 3742.47   1
   8  -8  13 31414.7 3673.50   2
   0   8 -13 39333.0 4195.26   1
   8   0  13 38039.8 4082.65   2
  -8   8 -13 28191.5 3618.84   1
   8  -8  14 40263.3 4383.31   1
   8   0  14 47502.7 4606.58   1
   0  -8  14 51915.5 4740.95   1
  -8   0 -14 54863.0 4899.76   1
   8  -8  14 56860.0 4983.49   2
   0   8 -14 50515.5 4712.26   1
   8   0  14 45893.2 4789.15   2
  -8   8 -14 44546.7 4570.38   1
   8  -8  15 4704.38 1477.97   1
  -8   8 -15 6584.40 1762.14   1
   4   5  16 6287.88 1721.24   1
  -4  -5 -16 5668.26 1723.48   1
   4   5  16 3917.66 1184.83   2
   4  -9  15 3924.59 1370.25   1
  -4   9 -15 6305.16 1739.57   1
  -5   9 -15 4151.54 1451.35   1
   5   4  15 3663.91 1256.31   1
   4   5  15 4459.15 1393.80   1
   4  -9  15 3506.41 1159.66   2
   5  -9  15 3286.57 1309.22   2
  -5  -4 -15 4186.22 1289.56   1
  -4  -5 -15 4419.44 1439.04   1
   5   4  15 4189.08 1384.68   2
   4   5  15 2477.34 824.336   2
   5  -9  15 4025.00 1327.06   1
   4  -9  14 68721.2 5636.66   1
   5   4  14 81313.3 6129.55   1
   4   5  14 76132.7 5871.14   1
   5  -9  14 73176.0 5739.62   1
  -5  -4 -14 77167.2 5927.15   1
  -4  -5 -14 68371.1 5647.51   1
   4  -9  14 72534.7 5842.86   2
   5  -9  14 80469.5 6097.19   2
  -4   9 -14 83058.9 6232.39   1
   5   4  14 78902.3 5729.86   2
  -5   9 -14 71492.5 5709.67   1
   4   5  14 56110.1 5013.64   2
   4  -9  13 56930.5 5026.37   1
   5   4  13 62304.4 5084.30   1
   4   5  13 56041.5 5018.50   1
   5  -9  13 48481.1 4705.79   1
  -5  -4 -13 66136.9 5293.18   1
  -4  -5 -13 59019.3 4996.94   1
   4  -9  13 59080.4 5153.91   2
   5  -9  13 67165.9 5473.90   2
  -4   9 -13 59907.6 5069.52   1
  -5   9 -13 55232.2 5089.11   1
   5   4  13 45122.0 4314.27   2
   4   5  13 46139.7 4468.91   2
  -5  -4 -12 12235.0 2224.21   1
  -4  -5 -12 13993.5 2354.35   1
  -4   9 -12 14096.5 2462.79   1
  -5   9 -12 12781.9 2338.81   1
   5   4  12 12782.2 2255.80   1
   4   5  12 15259.1 2505.87   1
   5  -9  12 12836.0 2334.24   1
   4  -9  12 11789.7 2339.66   2
   5  -9  12 14012.6 2409.01   2
   4  -9  12 11389.2 2160.44   1
   5   4  12 14486.8 2376.75   2
   4   5  12 12167.5 2210.22   2
   5   4  11 65659.5 5334.28   1
   4   5  11 58209.6 5053.00   1
   5  -9  11 63653.6 5204.01   1
  -4  -5 -11 64420.9 5092.12   1
  -5  -4 -11 64624.3 5173.83   1
   4  -9  11 65336.9 5336.36   2
   5  -9  11 66087.3 5352.83   2
  -4   9 -11 73859.1 5586.49   1
  -5   9 -11 62261.3 5207.72   1
   5   4  11 69050.1 5194.00   2
   4   5  11 47093.8 4501.34   2
   4  -9  11 64171.2 5280.48   1
   5   4  10 106749. 6658.72   1
   4   5  10 105482. 6632.38   1
   5  -9  10 109106. 6889.85   1
   5  -9  10 105855. 6889.03   2
   4  -9  10 99002.2 6486.58   2
  -5  -4 -10 125196. 7024.42   1
  -4  -5 -10 110027. 6689.50   1
  -4   9 -10 120305. 7146.50   1
  -5   9 -10 115667. 7064.35   1
   5   4  10 121369. 6947.97   2
   4  -9  10 106157. 6879.49   1
   4   5  10 86144.2 6218.54   2
  -5   9  -9 15558.7 2475.73   1
   5  -9   9 15226.0 2411.14   1
  -4  -5  -9 12991.3 2228.72   1
   4  -9   9 13735.8 2344.66   1
   5   4   9 12555.6 2142.34   1
   4   5   9 12652.5 2253.37   1
   5  -9   9 15552.2 2515.51   2
  -5  -4  -9 15198.7 2362.44   1
   4  -9   9 12993.9 2159.55   2
  -4   9  -9 15204.3 2447.60   1
   5   4   9 15511.0 2566.25   2
   4   5   9 15175.1 2308.35   2
   4  -9   8 4180.60 1239.71   1
  -4   9  -8 5098.31 1455.63   1
  -5   9  -8 4597.01 1245.66   1
  -5  -4  -8 3247.72 1059.69   1
  -4  -5  -8 2991.48 948.559   1
   5   4   8 3261.44 987.415   1
   4   5   8 3002.88 1027.37   1
   4  -9   8 4772.63 1437.14   2
   5  -9   8 3685.40 1322.22   2
   5  -9   8 2976.28 908.094   1
   5   4   8 4821.79 1400.54   2
  -4   9  -7 1073.13 497.796   1
  -5   9  -7 1655.84 582.810   1
  -5  -4  -7 2150.28 1009.86   1
  -4  -5  -7 2254.70 737.405   1
   5   4   7 2607.28 1101.90   1
   4   5   7 2114.75 1036.92   1
   5  -9   7 1631.28 724.329   1
   4  -9   7 2927.40 1168.01   2
   5  -9   7 2408.07 1221.60   2
   4  -9   7 2034.43 715.303   1
   5   4   7 2039.14 801.264   2
   5   4   6 50143.3 4290.62   1
   4   5   6 46426.6 4136.86   1
   4  -9   6 52226.2 4227.91   1
   4  -9   6 48176.1 4290.40   2
   5  -9   6 46541.7 4271.46   2
  -4   9  -6 46379.2 4094.33   1
   5  -9   6 53438.3 4351.23   1
  -5   9  -6 52800.5 4356.57   1
  -5  -4  -6 49990.9 4230.51   1
  -4  -5  -6 55108.1 4427.12   1
  -5   9  -5 4656.55 1286.40   1
   4  -9   5 5250.72 1314.41   1
  -5  -4  -5 7396.46 1543.11   1
   5   4   5 4926.48 1222.33   1
   4   5   5 6232.84 1484.86   1
  -4  -5  -5 7332.54 1447.41   1
   4  -9   5 5391.79 1425.10   2
   5  -9   5 4476.45 1213.44   2
  -4   9  -5 7266.35 1604.16   1
   4  -9   4 34532.0 3302.92   1
   5   4   4 33725.8 3380.59   1
   4   5   4 33240.5 3336.87   1
   4  -9   4 27306.1 3310.46   2
   5  -9   4 32839.9 3380.53   2
  -4   9  -4 38609.2 3638.07   1
  -5  -4  -4 32933.9 3213.90   1
  -4  -5  -4 31132.0 3280.81   1
  -5  -4  -3 86759.2 5538.01   1
  -4  -5  -3 95397.9 5703.86   1
   5   4   3 82280.3 5411.34   1
   4   5   3 78041.4 5198.07   1
   4  -9   3 76087.0 5477.53   2
   5  -9   3 66092.6 5131.49   2
  -4   9  -3 87050.2 5566.15   1
  -5  -4  -2 233399. 9538.20   1
  -4  -5  -2 195069. 8875.16   1
   5   4   2 209420. 9057.80   1
   4   5   2 242929. 9661.63   1
   4  -9   2 214704. 9777.91   2
   5  -9   2 216810. 9573.36   2
  -5  -4  -1 160434. 7714.28   1
  -4  -5  -1 181078. 8154.35   1
   5   4   1 165203. 7780.30   1
   4   5   1 164083. 7967.78   1
   4  -9   1 155814. 8187.72   2
   5  -9   1 152971. 7817.94   2
  -4  -5   0 18153.4 2300.78   1
  -5  -4   0 16133.4 2356.10   1
   4   5   0 18189.8 2469.13   1
   5   4   0 15096.8 2204.62   1
   5  -9   0 19882.1 2569.18   2
   9  -5   0 18285.6 2334.78   2
   9  -4   0 14058.7 2183.10   2
   9  -4   1 70750.8 4652.45   1
  -5  -4   1 57251.9 4359.46   1
  -4  -5   1 54648.0 4340.26   1
  -9   4  -1 51949.7 4087.36   1
   5   4  -1 58904.8 4391.26   1
   4   5  -1 48945.4 4119.33   1
   5  -9  -1 50851.3 4570.77   2
   9  -5   1 51006.8 4105.81   2
   9  -4   1 59404.3 4397.54   2
   9  -4   2 376126. 12471.6   1
  -5  -4   2 387472. 12829.4   1
  -4  -5   2 365372. 12680.8   1
   5   4  -2 347256. 12303.7   1
   4   5  -2 338151. 12448.4   1
  -9   4  -2 379507. 12508.0   1
   9  -4   2 365568. 12553.9   2
   9  -4   3 34672.2 3412.00   1
  -9   5  -3 45908.5 3825.09   1
  -5  -4   3 41425.0 3815.66   1
  -4  -5   3 47385.9 3880.00   1
  -9   4  -3 46543.6 3928.31   1
   5   4  -3 37686.6 3556.38   1
   4   5  -3 43750.6 3723.85   1
   9  -5   3 42317.9 3870.17   2
   9  -4   3 35692.4 3497.71   2
   9  -5   4 27872.2 3177.10   2
   9  -5   4 26163.5 2887.31   1
   9  -4   4 32508.3 3286.68   1
  -9   5  -4 28223.1 3104.31   1
  -5  -4   4 29784.4 3200.02   1
  -9   4  -4 33416.2 3320.10   1
  -4  -5   4 28387.5 3002.63   1
   5   4  -4 27947.3 3000.51   1
   4   5  -4 26266.2 2897.72   1
   9  -4   4 31644.7 3295.46   2
   9  -5   5 29591.3 3159.84   1
   9  -4   5 32664.4 3369.46   1
  -9   5  -5 40844.1 3838.23   1
  -9   4  -5 35780.2 3575.79   1
  -5  -4   5 34054.1 3477.00   1
   5   4  -5 37711.2 3481.57   1
   4   5  -5 36966.3 3487.34   1
  -4  -5   5 40155.2 3670.02   1
   9  -5   5 37961.1 3778.86   2
   9  -4   5 37700.3 3679.99   2
   9  -5   6 43197.0 3949.05   1
   9  -4   6 39731.1 3829.22   1
  -9   5  -6 41652.8 3893.38   1
  -9   4  -6 45589.6 4016.45   1
   5   4  -6 42243.5 3854.67   1
  -5  -4   6 38576.8 3797.10   1
   4   5  -6 39808.1 3748.95   1
  -4  -5   6 35693.8 3585.73   1
   9  -5   6 40841.8 3908.38   2
   9  -4   6 42694.0 4077.07   2
  -5  -4   7 1184.86 738.970   1
  -4  -5   7 347.028 287.872   1
   9  -5   7 379.658 427.810   1
   9  -4   7 1579.79 848.893   1
  -9   5  -7 563.893 507.269   1
   5   4  -7-316.618 545.071   1
   4   5  -7 1159.50 630.969   1
  -9   4  -7 914.939 506.229   1
   9  -5   7 1819.17 1012.18   2
   9  -4   7 461.734 384.406   2
  -5  -4   8 6712.04 1419.59   1
   9  -5   8 6868.21 1588.93   1
   9  -4   8 7824.03 1696.91   1
  -4  -5   8 6022.51 1421.29   1
  -9   5  -8 6446.53 1477.16   1
  -9   4  -8 4385.77 1305.95   1
   5   4  -8 5595.63 1411.74   1
   4   5  -8 4069.41 1184.65   1
   9  -5   8 8351.06 1807.44   2
   9  -4   8 4816.70 1455.02   2
   9  -4   9 15826.4 2540.89   1
  -9   5  -9 15635.7 2573.96   1
   9  -5   9 16826.6 2441.94   1
  -5  -4   9 15835.8 2343.70   1
  -4  -5   9 15407.0 2354.00   1
   5   4  -9 17188.0 2560.24   1
   4   5  -9 16397.5 2558.73   1
   9  -5   9 16368.0 2557.80   2
  -9   4  -9 16341.1 2451.90   1
   9  -4   9 17153.4 2530.21   2
   9  -5  10 82590.1 6089.13   1
   9  -4  10 63441.4 5268.66   1
  -9   5 -10 87543.8 6076.03   1
  -9   4 -10 77947.3 5600.73   1
   4   5 -10 86223.1 5855.50   1
   5   4 -10 81473.7 5787.38   1
   9  -5  10 89763.2 6058.53   2
   9  -4  10 94702.9 6229.56   2
  -5  -4  10 87360.7 5973.75   1
  -4  -5  10 96551.1 6249.68   1
   9  -5  11 87043.4 6287.66   1
   9  -4  11 81402.6 6023.87   1
  -9   5 -11 84547.3 6060.84   1
  -9   4 -11 73435.9 5527.63   1
   5   4 -11 85765.4 5948.38   1
   4   5 -11 83274.6 5900.52   1
   9  -5  11 79841.3 5711.11   2
   9  -4  11 75242.5 5602.89   2
  -5  -4  11 87910.7 6107.30   1
  -4  -5  11 80988.8 5854.26   1
  -9   5 -12 17383.6 2705.67   1
   9  -5  12 14417.1 2613.09   1
  -9   4 -12 17783.9 2658.62   1
   9  -4  12 14950.3 2460.07   1
  -5  -4  12 14532.2 2479.60   1
  -4  -5  12 16938.5 2542.07   1
   9  -5  12 16493.0 2595.63   2
   9  -4  12 16004.4 2628.24   2
   5   4 -12 14364.3 2410.08   1
   4   5 -12 17355.6 2687.28   1
   9  -5  13 28114.2 3621.69   1
   9  -4  13 36175.4 3939.52   1
  -9   5 -13 37761.2 3943.25   1
  -9   4 -13 32758.4 3758.34   1
   5   4 -13 44139.6 4299.64   1
   4   5 -13 31965.8 3780.85   1
   9  -5  13 36461.5 3770.36   2
   9  -4  13 34491.9 3994.13   2
  -5  -4  13 33508.4 3857.47   1
  -4  -5  13 33424.9 3740.28   1
  -4  -5  14 122224. 7394.83   1
   9  -5  14 116674. 7516.99   1
   9  -4  14 104542. 7094.66   1
  -9   5 -14 110777. 7236.94   1
  -9   4 -14 108069. 7073.66   1
   4   5 -14 123550. 7718.76   1
   5   4 -14 93165.1 6716.39   1
   9  -5  14 109911. 7147.50   2
   9  -4  14 113490. 7317.68   2
  -5  -4  14 108112. 7113.07   1
   9  -5  15 3552.64 1238.65   1
   9  -4  15 6359.64 1767.64   1
  -9   5 -15 7231.50 1771.32   1
  -9   4 -15 7000.66 1711.38   1
  -5  -4  15 6134.11 1551.77   1
   9  -5  15 5589.69 1556.17   2
   9  -4  15 6717.36 1750.44   2
  -4  -5  15 6202.60 1648.91   1
   5   4 -15 7236.41 1806.02   1
   4   5 -15 9728.99 2079.53   1
  -3   9 -15 3773.10 1341.04   1
   6  -9  15 3061.17 1130.88   1
  -6   9 -15 3647.09 1191.53   1
   3  -9  15 2242.59 807.327   1
   6   3  15 5122.13 1485.77   1
   3   6  15 3663.49 1336.47   1
   3  -9  15 2044.76 999.436   2
   6  -9  15 4216.18 1520.00   2
  -6  -3 -15 4419.49 1459.52   1
  -3  -6 -15 3622.67 1320.46   1
   6   3  15 3150.68 1185.48   2
   3   6  15 1302.57 993.970   2
  -3   9 -14 5753.15 1551.60   1
   6  -9  14 3893.63 1513.10   1
  -6   9 -14 4069.22 1436.74   1
   3  -9  14 4669.79 1449.09   1
   6   3  14 7629.48 1868.11   1
   3   6  14 3965.06 1362.93   1
   3  -9  14 2891.56 1213.18   2
   6  -9  14 3888.21 1332.84   2
  -6  -3 -14 5272.58 1565.44   1
   6   3  14 5415.78 1574.12   2
   3   6  14 1588.39 869.024   2
  -3  -6 -14 5475.68 1624.06   1
  -3   9 -13 4340.92 1314.88   1
   6  -9  13 1789.01 883.287   1
   3  -9  13 2140.43 1005.65   1
  -6   9 -13 1809.29 856.344   1
   6   3  13 3163.81 1079.29   1
   3   6  13 2135.79 956.470   1
   3  -9  13 1492.19 892.745   2
   6  -9  13 3537.03 1349.09   2
   6   3  13 685.936 491.121   2
   3   6  13 188.561 632.781   2
  -6  -3 -13 2296.04 980.529   1
  -3  -6 -13 1314.22 283.285   1
   6   3  12 169678. 8685.34   1
   3   6  12 157404. 8634.62   1
  -6  -3 -12 175802. 8741.66   1
  -3  -6 -12 154211. 8378.07   1
   3  -9  12 153874. 8632.84   2
   6  -9  12 142389. 8079.05   2
   3  -9  12 140758. 8261.80   1
  -3   9 -12 141964. 8170.83   1
   6   3  12 155386. 8179.62   2
  -6   9 -12 147002. 8392.62   1
   6  -9  12 143007. 8685.10   1
  -3   9 -11 1400.50 896.589   1
   6  -9  11 1697.82 993.331   1
  -6  -3 -11 1090.70 727.805   1
  -3  -6 -11 1969.99 858.911   1
  -6   9 -11 1500.70 844.834   1
   6   3  11 1564.22 622.229   1
   3   6  11 3332.40 1291.72   1
   3  -9  11 2017.15 944.391   2
   6  -9  11 1575.76 772.489   2
   6   3  11 865.077 825.734   2
   3   6  11 1447.32 810.457   2
   3  -9  11 1965.57 969.034   1
  -3   9 -10 10619.2 2068.77   1
   6  -9  10 10138.6 2108.13   1
  -6  -3 -10 10509.9 1957.88   1
  -6   9 -10 8368.87 1907.02   1
  -3  -6 -10 8401.07 1850.39   1
   6   3  10 8497.27 1865.78   1
   3   6  10 12905.5 2209.00   1
   3  -9  10 10186.3 2018.92   2
   6  -9  10 8246.29 1840.10   2
   3  -9  10 9425.59 1894.08   1
   6   3  10 9705.67 1819.93   2
   3   6  10 5007.96 1319.53   2
  -3   9  -9 873.009 459.397   1
  -6   9  -9 1240.52 712.005   1
  -6  -3  -9 1178.51 592.069   1
  -3  -6  -9 943.240 752.112   1
   6   3   9 505.737 397.226   1
   3   6   9 1176.62 661.828   1
   3  -9   9 1042.21 716.049   2
   3  -9   9 796.867 396.603   1
   6  -9   9 1049.10 394.410   2
   6   3   9 1203.99 774.113   2
   6   3   8 221405. 9546.24   1
   3  -9   8 200692. 9423.20   1
   6  -9   8 217122. 9647.55   1
   3  -9   8 215043. 9996.54   2
   6  -9   8 207206. 9641.29   2
  -6  -3  -8 203306. 9364.61   1
  -3   9  -8 214551. 9966.63   1
  -3  -6  -8 206401. 9483.51   1
  -6   9  -8 230329. 10051.1   1
   6   3   8 224007. 9893.69   2
   6   3   7 13731.2 2233.75   1
   3   6   7 16276.4 2457.64   1
   3  -9   7 17923.9 2538.21   1
   6  -9   7 14465.8 2444.88   2
  -3   9  -7 16476.8 2528.65   1
  -6  -3  -7 18385.0 2579.16   1
   3  -9   7 15645.7 2533.45   2
  -3  -6  -7 18930.7 2572.57   1
  -6   9  -7 16076.7 2503.49   1
   6   3   7 17078.5 2587.88   2
   3  -9   6 232.677 434.407   1
  -6  -3  -6-219.654 514.869   1
   6   3   6 595.895 745.180   1
  -3  -6  -6 43.6393 358.496   1
   3   6   6 224.971 286.844   1
   3  -9   6 355.950 658.403   2
   6  -9   6-459.173 672.762   2
   6   3   6 1080.89 903.887   2
  -3   9  -6 542.757 913.687   1
   3  -9   5 1379.92 720.760   1
  -6  -3  -5 561.001 303.040   1
   6   3   5 933.412 664.042   1
   3   6   5 2509.91 1065.95   1
  -3  -6  -5 1172.94 628.709   1
   3  -9   5 592.411 715.447   2
   6  -9   5 610.313 399.598   2
  -3   9  -5 1940.70 1063.67   1
   6   3   5 1977.23 1052.58   2
  -3  -6  -4 167250. 8139.21   1
   3  -9   4 179849. 8312.47   1
   6   3   4 167044. 8162.72   1
   3   6   4 183048. 8401.07   1
   3  -9   4 153673. 8474.68   2
   6  -9   4 174934. 8640.86   2
  -6  -3  -4 160906. 7889.86   1
   6   3   4 173214. 8719.90   2
   6   3   3 10147.8 1898.16   1
   3   6   3 10607.2 1742.95   1
   3  -9   3 7531.31 1650.81   2
  -6  -3  -3 10152.8 1965.60   1
   6  -9   3 9143.26 1935.04   2
   3  -9   3 10936.0 1881.26   1
  -3  -6  -3 12851.8 2089.18   1
  -3   9  -3 13316.0 2093.06   1
  -9   3   2 4235.76 1090.00   1
   3  -9   2 3370.07 963.120   1
   6   3   2 4331.47 1120.96   1
   3   6   2 5415.27 1267.72   1
   6  -9   2 6702.55 1551.19   2
  -6  -3  -2 3443.74 1303.74   1
  -3   9  -2 4442.21 1170.36   1
  -3  -6  -2 7488.63 1616.18   1
  -3  -6  -1 4440.46 1161.97   1
  -9   3   1 8195.03 1492.16   1
   9  -3  -1 4510.34 1103.65   1
   6   3   1 7106.94 1596.04   1
   6  -9   1 5681.74 1450.50   2
   3   6   1 5335.43 1426.51   1
  -3   9  -1 5830.64 1284.64   1
  -6  -3  -1 5548.08 1446.93   1
   9  -3  -1 6790.99 1443.66   2
  -6  -3   0 375612. 12876.6   1
  -3  -6   0 414492. 13438.5   1
   9  -3   0 385788. 12562.1   1
   6   3   0 335595. 12516.3   1
   3   6   0 356926. 12657.3   1
   6  -9   0 375380. 13397.7   2
   9  -6   0 358873. 12331.7   2
  -9   3   0 427927. 13225.1   1
   9  -3   0 302587. 11894.2   2
  -6  -3   1 781.334 500.671   1
  -9   3  -1 690.873 404.535   1
  -3  -6   1 1201.21 451.021   1
   9  -3   1 507.010 459.799   1
   6   3  -1-143.093 480.821   1
   3   6  -1 794.901 340.761   1
   6  -9  -1 1287.36 662.915   2
   9  -6   1 808.790 490.369   2
   9  -3   1 517.899 629.277   2
   6  -9  -2 4155.93 1271.68   2
  -9   3  -2 7408.44 1614.26   1
  -6  -3   2 4241.31 1160.72   1
   9  -3   2 5281.11 1380.95   1
  -3  -6   2 7060.85 1402.32   1
   6   3  -2 5030.09 1354.19   1
   3   6  -2 5801.46 1485.40   1
   9  -6   2 6385.75 1502.66   2
   9  -3   2 7453.30 1586.38   2
  -9   3  -3-12.7901 202.008   1
  -6  -3   3 238.632 556.971   1
   9  -3   3-400.648 250.485   1
  -3  -6   3-473.288 384.143   1
   6   3  -3 464.404 486.554   1
   3   6  -3 423.859 443.204   1
   9  -6   3 179.867 250.709   2
   9  -3   3 1124.99 729.446   2
  -6  -3   4 327188. 12447.0   1
   6   3  -4 389898. 13052.2   1
  -9   3  -4 366643. 12977.7   1
   3   6  -4 346148. 12543.7   1
  -3  -6   4 323344. 12322.3   1
   9  -6   4 345757. 12723.3   2
   9  -3   4 300470. 12062.8   2
  -3  -6   5 14649.1 2246.57   1
   9  -3   5 16430.2 2390.12   1
  -6  -3   5 20499.0 2725.96   1
   6   3  -5 19956.8 2515.93   1
  -9   3  -5 18945.6 2578.92   1
   3   6  -5 21329.1 2640.06   1
   9  -6   5 23212.9 2850.59   2
   9  -3   5 22511.9 2736.77   2
  -3  -6   6 1971.01 1003.31   1
   9  -3   6 1057.19 595.287   1
  -9   6  -6 1120.45 532.560   1
  -6  -3   6 1803.23 892.574   1
   6   3  -6 1621.12 825.456   1
   9  -6   6-211.643 449.150   2
   3   6  -6 1521.07 659.730   1
   9  -3   6 1124.16 350.528   2
  -9   3  -6 402.156 418.174   1
   9  -6   7 2317.45 946.565   1
   9  -3   7 2937.86 1063.39   1
  -3  -6   7 3963.75 1427.74   1
  -9   6  -7 2525.16 920.460   1
   6   3  -7 2653.91 974.781   1
  -6  -3   7 3134.34 1171.07   1
   9  -6   7 2793.19 987.819   2
   3   6  -7 5099.56 1474.77   1
   9  -3   7 1946.81 836.348   2
  -9   3  -7 3672.58 1392.37   1
   9  -6   8 174826. 8781.07   1
   9  -3   8 165232. 8366.80   1
  -9   6  -8 165630. 8404.23   1
  -9   3  -8 163609. 8317.38   1
   6   3  -8 133419. 7420.07   1
  -6  -3   8 145239. 7930.47   1
   3   6  -8 169403. 8354.59   1
   9  -6   8 158735. 8148.07   2
   9  -3   8 133500. 7748.54   2
  -3  -6   8 179467. 8530.46   1
  -6  -3   9 8169.54 1775.11   1
   9  -6   9 11118.7 2139.71   1
   9  -3   9 8516.14 1904.62   1
  -3  -6   9 8250.96 1766.14   1
  -9   6  -9 10350.4 2086.03   1
   6   3  -9 10530.3 1966.84   1
   9  -6   9 10802.7 2066.60   2
  -9   3  -9 9833.88 2013.92   1
   3   6  -9 9650.77 1867.06   1
   9  -3   9 9799.81 1983.54   2
  -6  -3  10 10957.4 2093.27   1
   9  -6  10 10880.5 2055.69   1
   9  -3  10 8239.54 1901.01   1
  -9   6 -10 7698.12 1717.32   1
  -3  -6  10 11363.9 2106.54   1
   9  -6  10 9747.28 1974.38   2
   6   3 -10 9297.73 1805.72   1
  -9   3 -10 9096.64 1897.57   1
   3   6 -10 9600.64 2007.53   1
   9  -3  10 6702.59 1859.59   2
   9  -6  11 1741.14 969.016   1
   9  -3  11 1742.33 872.411   1
  -6  -3  11 2186.89 1020.97   1
  -9   6 -11 2032.25 959.676   1
  -9   3 -11 487.422 302.090   1
  -3  -6  11 1748.15 787.900   1
   9  -6  11 1428.64 713.314   2
   6   3 -11 926.848 558.045   1
   9  -3  11 1307.73 930.428   2
   3   6 -11 2493.33 1157.92   1
  -3  -6  12 107522. 6736.63   1
   9  -6  12 83057.3 6236.49   1
   9  -3  12 95337.5 6520.71   1
  -9   6 -12 102892. 6948.00   1
  -9   3 -12 88085.4 6152.56   1
   6   3 -12 97040.1 6596.64   1
   3   6 -12 106258. 6906.76   1
   9  -6  12 105835. 6678.61   2
   9  -3  12 87778.9 6534.08   2
  -6  -3  12 86764.0 6259.26   1
   9  -6  13 1452.51 893.059   1
   9  -3  13 309.526 518.477   1
  -9   6 -13-145.853 911.536   1
  -6  -3  13-211.422 414.647   1
  -9   3 -13 39.7523 531.563   1
   9  -6  13-215.851 468.722   2
   6   3 -13-474.629 558.506   1
   9  -3  13 700.597 609.621   2
  -3  -6  13-14.4949 247.472   1
   3   6 -13 1024.90 904.706   1
   9  -6  14 9927.28 2207.70   1
   9  -3  14 11879.4 2210.23   1
  -9   6 -14 11351.4 2378.04   1
  -6  -3  14 13117.5 2553.95   1
  -9   3 -14 13740.1 2375.79   1
   9  -6  14 12725.2 2360.21   2
   6   3 -14 12099.4 2393.62   1
   9  -3  14 13129.4 2440.24   2
   3   6 -14 12979.4 2431.46   1
  -3  -6  14 13946.1 2525.03   1
   9  -6  15 772.338 864.524   1
   9  -3  15 851.020 714.560   1
  -9   6 -15 1092.22 906.951   1
  -6  -3  15 220.330 415.360   1
  -9   3 -15-224.532 583.437   1
   6   3 -15 499.857 589.091   1
   3   6 -15-81.4027 640.764   1
  -3  -6  15-7.75216 759.762   1
   6   3 -16 73631.9 6069.80   1
  -6  -3  16 71893.0 5973.14   1
   7  -9  15 6018.23 1761.09   1
  -7   9 -15 4745.92 1503.55   1
   2  -9  15 5703.16 1815.53   2
   7   2  14 27570.2 3450.87   1
  -7  -2 -14 25328.0 3234.52   1
   2  -9  14 26880.6 3505.27   1
   2  -9  14 19121.5 3051.14   2
   7  -9  14 27281.3 3377.43   2
  -2   9 -14 26664.5 3405.04   1
   7   2  14 24656.4 3318.73   2
  -7   9 -14 19893.0 3060.67   1
   7  -9  14 17152.0 2941.83   1
  -2   9 -13 17602.4 2633.90   1
   7  -9  13 12189.3 2523.24   1
  -7   9 -13 15985.8 2600.28   1
   7   2  13 18504.6 2782.31   1
  -7  -2 -13 19125.9 2745.23   1
   2  -9  13 14055.2 2659.72   2
   2  -9  13 17598.2 2733.61   1
   7  -9  13 16263.5 2630.46   2
   7   2  13 16616.1 2629.14   2
  -2   9 -12 6092.54 1697.25   1
  -2  -7 -12 3405.14 1196.56   1
   7  -9  12 4911.77 1597.18   1
  -7   9 -12 6063.73 1457.24   1
   7   2  12 5813.28 1300.21   1
   2   7  12 4096.76 1302.58   1
   2  -9  12 6830.96 1517.41   1
   7  -9  12 5340.10 1539.54   2
   2  -9  12 4927.38 1433.64   2
   7   2  12 6277.44 1474.36   2
   2   7  12 3039.95 1295.02   2
  -7  -2 -12 7029.21 1549.27   1
   7   2  11 43753.8 4227.91   1
   2   7  11 41948.8 4258.34   1
   2  -9  11 38422.7 3933.30   1
  -7  -2 -11 43583.6 4136.62   1
   2  -9  11 33856.7 4125.85   2
  -2  -7 -11 38466.9 3948.67   1
   7  -9  11 42775.4 4205.76   2
  -2   9 -11 36871.4 3948.57   1
   7   2  11 41070.7 4040.89   2
  -7   9 -11 38062.3 4067.92   1
   7  -9  11 38707.3 4190.25   1
   7   2  10 111605. 6919.62   1
   2   7  10 120917. 7201.40   1
   2  -9  10 101323. 6634.81   1
   2  -9  10 111084. 7218.16   2
   7  -9  10 93895.6 6556.92   2
  -7  -2 -10 116076. 6919.65   1
  -2  -7 -10 97785.2 6499.15   1
  -2   9 -10 109881. 6917.89   1
   7   2  10 110254. 6751.78   2
  -7   9 -10 111389. 7006.89   1
   7   2   9 17787.0 2656.89   1
   2   7   9 16241.2 2453.33   1
   2  -9   9 13439.6 2389.29   1
  -7  -2  -9 18511.9 2642.79   1
   2  -9   9 15119.0 2583.67   2
  -2  -7  -9 13410.6 2301.44   1
   7  -9   9 11990.5 2153.54   2
   7   2   9 15354.5 2425.40   2
  -2   9  -9 15129.7 2498.64   1
   2  -9   8 34103.3 3757.29   1
   7   2   8 35309.5 3666.28   1
   2   7   8 28080.6 3352.28   1
   2  -9   8 36462.8 3977.54   2
  -7  -2  -8 34868.6 3658.87   1
  -2   9  -8 40292.3 4008.66   1
  -2  -7  -8 37599.3 3824.95   1
   7  -9   8 25518.5 3287.32   2
   7   2   8 38314.6 3745.92   2
   2  -9   7 7100.96 1632.94   1
  -7  -2  -7 7751.05 1621.65   1
  -2  -7  -7 8461.77 1769.15   1
   7   2   7 6403.46 1535.55   1
   2   7   7 5289.45 1218.10   1
   2  -9   7 7264.30 1759.66   2
   7  -9   7 6147.68 1633.52   2
  -2   9  -7 5901.46 1434.50   1
   7   2   7 9431.19 1831.17   2
   2  -9   6 164240. 8408.95   1
   7   2   6 172442. 8462.46   1
   2   7   6 197421. 9077.39   1
   2  -9   6 152458. 8756.00   2
   7  -9   6 177863. 8690.51   2
  -2   9  -6 160945. 8636.02   1
  -7  -2  -6 167285. 8221.31   1
   7   2   6 185272. 8617.36   2
  -2  -7  -6 166992. 8217.77   1
   7   2   5 77660.8 5485.19   1
   2   7   5 84019.7 5656.71   1
   7  -9   5 78873.8 5398.38   2
  -2   9  -5 81326.7 5828.50   1
  -7  -2  -5 81990.2 5561.28   1
   7   2   5 73604.3 5226.24   2
  -2  -7  -5 98983.4 5985.82   1
   2  -9   5 95271.9 5920.13   1
  -2  -7  -4 12106.1 2103.19   1
  -7  -2  -4 12844.5 2146.23   1
   7   2   4 11542.2 2018.62   1
   2   7   4 14620.5 2238.55   1
  -2   9  -4 14548.4 2322.88   1
   2  -9   4 13957.4 2238.39   1
   7  -9   4 9336.87 1886.66   2
  -9   2   4 10447.7 1802.23   1
   7   2   4 9571.69 1874.24   2
  -2  -7  -3 133998. 7155.84   1
   7   2   3 119847. 6880.13   1
   9  -2  -3 121246. 6654.90   1
   2   7   3 137830. 7301.90   1
   7  -9   3 128786. 7340.61   2
  -2   9  -3 139229. 7382.32   1
   2  -9   3 147686. 7419.98   1
   7   2   3 113975. 6907.86   2
  -7  -2  -3 130141. 6867.75   1
  -9   2   3 134137. 7061.25   1
  -2  -7  -2 42374.1 3880.56   1
   9  -2  -2 46725.7 3977.58   1
   7   2   2 45488.7 4017.71   1
   2   7   2 50099.7 4168.80   1
  -2   9  -2 49298.8 4165.51   1
   7  -9   2 46499.8 4131.79   2
   2  -9   2 53289.0 4217.75   1
   7   2   2 39063.2 4036.43   2
  -9   2   2 57075.8 4323.50   1
  -7  -2  -2 42650.9 3899.56   1
  -2  -7  -1 4301.73 1265.59   1
  -9   2   1 4873.48 1436.64   1
   9  -2  -1 4400.60 1238.17   1
   7   2   1 4114.73 1346.92   1
   7  -9   1 4789.17 1375.11   2
   2   7   1 5120.04 1351.92   1
  -7  -2  -1 4059.99 1202.43   1
  -2   9  -1 4521.49 1313.76   1
   2  -9   1 4980.84 1259.92   1
   9  -2  -1 5725.97 1487.56   2
   7   2   1 2128.71 953.655   2
  -2  -7   0 950.134 501.088   1
  -9   2   0 532.875 488.236   1
   9  -2   0-388.173 305.651   1
   2  -9   0-245.703 290.217   1
   7   2   0 747.526 425.922   1
   7  -9   0 566.255 467.452   2
   2   7   0 27.5965 519.185   1
  -2   9   0 640.469 258.228   1
  -7  -2   0 274.185 462.634   1
   9  -2   0 370.671 225.071   2
  -9   2  -1 1417.53 784.677   1
  -2  -7   1 1269.13 810.606   1
   9  -2   1 1212.31 798.023   1
   7   2  -1 1419.21 787.284   1
   7  -9  -1 1308.83 711.563   2
  -2   9   1 1021.83 404.804   1
   2   7  -1 1467.65 947.727   1
   9  -7   1 1097.04 824.118   2
   9  -2   1-5.85789 219.465   2
  -7  -2   1 1074.21 596.451   1
  -7  -2   2 238583. 9935.43   1
   9  -2   2 268156. 10165.5   1
   7   2  -2 210229. 9449.42   1
  -2  -7   2 275350. 10591.1   1
   2   7  -2 231500. 9653.58   1
   7  -9  -2 192577. 9199.95   2
   9  -7   2 243950. 10003.2   2
  -9   2  -2 214176. 9480.72   1
   9  -2   2 205174. 9393.66   2
  -7  -2   3 86139.9 5738.02   1
   9  -2   3 68575.9 5017.62   1
   7   2  -3 102088. 6047.68   1
  -2  -7   3 76778.7 5390.01   1
   2   7  -3 66970.3 5040.00   1
   9  -7   3 83735.6 5569.36   2
  -9   2  -3 90217.2 5697.91   1
   9  -2   3 89671.5 5809.92   2
   9  -2   4 107297. 6469.54   1
  -7  -2   4 112773. 6645.27   1
  -9   2  -4 113718. 6565.42   1
   7   2  -4 113010. 6498.15   1
   2   7  -4 88629.9 5859.75   1
  -2  -7   4 109215. 6467.66   1
   9  -7   4 116306. 6694.97   2
   9  -2   4 110918. 6650.06   2
   9  -2   5 102338. 6270.06   1
  -7  -2   5 83246.1 5662.49   1
   7   2  -5 80560.6 5469.61   1
   2   7  -5 100367. 6130.93   1
  -9   2  -5 83121.0 5616.22   1
  -2  -7   5 75470.6 5355.78   1
   9  -7   5 74728.0 5352.71   2
   9  -2   5 95199.2 6069.00   2
  -7  -2   6 171625. 8678.53   1
   7   2  -6 186009. 8869.03   1
   2   7  -6 187382. 9008.22   1
  -9   2  -6 193123. 9140.56   1
   9  -7   6 184380. 9025.11   2
  -2  -7   6 192473. 9066.78   1
   9  -2   6 211582. 9521.20   2
   9  -2   7 27723.8 3264.56   1
  -7  -2   7 34416.0 3625.59   1
  -9   2  -7 28199.6 3314.56   1
   7   2  -7 27134.6 3237.98   1
   2   7  -7 32982.4 3657.88   1
   9  -7   7 28832.4 3213.30   2
  -2  -7   7 29642.2 3336.90   1
   9  -2   7 29674.3 3427.09   2
   9  -2   8 564.606 316.732   1
  -9   7  -8-54.8637 767.559   1
  -2  -7   8 420.473 359.795   1
  -7  -2   8-819.494 476.154   1
   7   2  -8 1832.28 941.007   1
   9  -7   8 575.076 543.976   2
   2   7  -8 1645.30 851.353   1
   9  -2   8-1084.05 819.377   2
  -9   2  -8 610.243 558.328   1
   9  -7   9 27850.3 3397.24   1
  -9   7  -9 26475.6 3388.69   1
   9  -2   9 24318.8 3195.17   1
  -9   2  -9 22922.0 2948.58   1
  -7  -2   9 34114.0 3624.31   1
   7   2  -9 22314.4 2948.73   1
   2   7  -9 27148.2 3260.70   1
   9  -7   9 28948.2 3446.99   2
   9  -2   9 26602.4 3384.05   2
  -2  -7   9 27361.0 3175.13   1
   9  -7  10 20825.3 2913.36   1
  -9   7 -10 22387.9 3146.31   1
   9  -2  10 15722.2 2538.24   1
  -9   2 -10 24358.1 3148.76   1
   7   2 -10 27030.7 3284.76   1
  -7  -2  10 22755.7 2994.15   1
   2   7 -10 26572.2 3411.46   1
   9  -7  10 25410.9 3294.60   2
   9  -2  10 20634.0 3106.09   2
  -2  -7  10 21128.7 2908.74   1
  -2  -7  11 20472.5 2999.78   1
   9  -7  11 18989.6 2888.52   1
  -9   7 -11 25671.1 3355.44   1
   9  -2  11 20296.1 2964.62   1
  -9   2 -11 27050.9 3358.28   1
   7   2 -11 22938.4 3052.22   1
  -7  -2  11 22654.1 3128.70   1
   2   7 -11 26741.3 3456.91   1
   9  -7  11 24866.0 3207.63   2
   9  -2  11 19940.2 3142.48   2
  -7  -2  12 7519.22 1735.74   1
   9  -7  12 8088.62 1855.23   1
   9  -2  12 10247.6 2089.02   1
  -9   7 -12 8379.51 1999.64   1
   9  -7  12 10460.8 2229.90   2
   7   2 -12 9712.23 2039.15   1
  -9   2 -12 8956.75 1982.65   1
   9  -2  12 9794.83 2220.59   2
   2   7 -12 9211.72 1803.79   1
  -2  -7  12 13334.8 2184.00   1
   9  -7  13 3727.47 1191.93   1
  -7  -2  13 5339.09 1514.84   1
   9  -2  13 4597.23 1424.74   1
  -9   7 -13 3909.61 1258.18   1
  -9   2 -13 6046.74 1668.68   1
   9  -7  13 6646.21 1792.18   2
   7   2 -13 4142.66 1416.84   1
   9  -2  13 3800.02 1520.89   2
   2   7 -13 6086.27 1550.42   1
  -2  -7  13 5855.98 1501.38   1
   9  -7  14 42962.5 4636.16   1
   7   2 -14 46744.3 4736.48   1
  -9   7 -14 53322.8 5135.73   1
  -2  -7  14 72473.1 5663.32   1
   9  -2  14 59640.6 5193.98   1
  -9   2 -14 70657.6 5471.17   1
   9  -7  14 62123.9 5269.35   2
   2   7 -14 72995.2 5719.66   1
  -7  -2  14 41082.0 4400.34   1
   9  -2  14 55724.9 5231.57   2
   9  -7  15 3071.23 1342.96   1
  -7  -2  15 2623.29 1105.71   1
  -9   7 -15 1839.40 930.657   1
   1  -9  14 39395.8 4670.01   2
  -8   9 -14 39363.5 4321.60   1
  -8   9 -13 5524.09 1630.69   1
   1  -9  13 6452.70 1658.12   1
   8   1  13 5558.93 1533.76   1
   1  -9  13 4365.76 1599.09   2
   8  -9  13 5506.23 1572.64   2
   8   1  13 6898.86 1720.80   2
  -8  -1 -13 7040.24 1751.90   1
   1   8  13 182.120 526.767   2
  -1   9 -13 6688.38 1606.78   1
   1  -9  12 1865.80 917.522   1
   8   1  12 1009.51 614.513   1
   8  -9  12 1405.33 938.590   2
   8   1  12 1206.84 899.030   2
  -1   9 -12 244.554 411.535   1
  -8  -1 -12 417.174 465.707   1
   1   8  12 906.782 1030.15   2
   1  -9  11 31609.4 3691.54   1
   8   1  11 30902.3 3571.79   1
  -8  -1 -11 33435.4 3725.23   1
   8  -9  11 25508.7 3284.46   2
  -1   9 -11 28270.0 3504.52   1
   8   1  11 31519.1 3704.45   2
   1  -9  10 65309.5 5512.96   1
   8   1  10 64717.0 5247.91   1
  -8  -1 -10 76184.3 5645.67   1
  -1   9 -10 71659.3 5674.77   1
   8   1  10 77880.3 5620.61   2
   8  -9  10 67658.1 5441.42   2
   1  -9   9 47717.8 4465.37   1
   8   1   9 56797.0 4919.44   1
   1   8   9 54289.9 4709.10   1
   8  -9   9 56658.0 4908.36   2
  -1   9  -9 62092.6 5308.93   1
  -8  -1  -9 55945.1 4788.72   1
   8   1   9 53517.3 4548.61   2
   1  -9   8 43905.4 4355.60   1
   8   1   8 57233.3 4799.09   1
   1   8   8 59175.0 4953.57   1
  -1  -8  -8 59957.1 4933.38   1
   8  -9   8 43538.8 4187.28   2
  -8  -1  -8 54527.8 4663.27   1
  -1   9  -8 56189.7 4969.79   1
   8   1   8 49423.8 4393.42   2
  -8  -1  -7 6154.67 1484.14   1
  -1  -8  -7 7593.16 1691.21   1
   8   1   7 5096.31 1443.75   1
   1   8   7 4307.57 1290.12   1
   8  -9   7 4532.42 1373.68   2
   1  -9   7 4306.15 1467.43   1
  -1   9  -7 6506.56 1668.09   1
   8   1   7 6150.90 1396.64   2
  -1   9  -6 109812. 6822.35   1
  -9   1   6 101621. 6428.17   1
   8   1   6 100259. 6275.46   1
   1   8   6 91788.4 6138.28   1
   9  -1  -6 91630.4 6056.24   1
   8  -9   6 85018.5 5980.88   2
  -8  -1  -6 89502.7 6014.56   1
   8   1   6 93385.3 6076.34   2
   1  -9   6 96378.6 6247.36   1
  -1  -8  -6 104993. 6356.24   1
  -8  -1  -5 11276.5 2035.27   1
   8   1   5 12496.4 2172.06   1
   1   8   5 15062.4 2327.78   1
   1  -9   5 14477.0 2300.45   1
   9  -1  -5 11776.8 2031.98   1
  -1  -8  -5 14116.1 2207.58   1
   8  -9   5 11873.5 2123.27   2
  -1   9  -5 12542.9 2259.57   1
  -9   1   5 12758.1 2163.96   1
   8   1   5 13706.7 2236.39   2
   1  -9   4 2568.66 912.764   1
  -8  -1  -4 3815.33 1139.68   1
   8   1   4 3792.08 1231.61   1
   1   8   4 2837.00 911.117   1
   9  -1  -4 2568.33 1017.55   1
   8  -9   4 3315.89 1200.48   2
  -1  -8  -4 3404.11 1110.94   1
  -9   1   4 4450.94 1341.66   1
  -1   9  -4 2143.77 984.867   1
   8   1   4 4105.80 1272.02   2
  -9   1   3 62933.7 4880.74   1
  -1  -8  -3 44570.7 4147.91   1
   8   1   3 53700.8 4428.22   1
   9  -1  -3 54501.5 4486.49   1
   1   8   3 56301.7 4662.67   1
  -1   9  -3 64145.9 4947.38   1
   8  -9   3 53520.7 4576.17   2
   1  -9   3 57226.8 4568.31   1
  -8  -1  -3 54169.1 4359.22   1
   8   1   3 58627.1 4617.07   2
  -1  -8  -2 93315.4 5939.66   1
   8   1   2 89238.4 5876.02   1
   1   8   2 94253.6 6106.67   1
  -1   9  -2 96976.2 6060.13   1
   1  -9   2 100490. 6214.03   1
   8  -9   2 97615.7 6273.08   2
   8   1   2 78770.9 5618.75   2
  -8  -1  -2 102253. 6224.31   1
  -9   1   2 107243. 6392.96   1
  -1  -8  -1 63833.8 4823.51   1
   9  -1  -1 50446.5 4300.43   1
   8   1   1 58116.1 4592.38   1
   1  -9   1 50501.6 4296.83   1
   1   8   1 54458.9 4527.60   1
  -1   9  -1 46600.3 4058.99   1
   8  -9   1 38458.0 4105.10   2
   9  -1  -1 34067.5 3464.71   2
   8   1   1 38092.5 3778.40   2
  -9   1   1 46724.6 4010.50   1
  -8  -1  -1 47422.0 4135.40   1
  -1  -8   0 8990.23 1738.25   1
   1  -9   0 7449.01 1657.33   1
  -9   1   0 11276.9 1922.58   1
   9  -1   0 9020.79 1771.55   1
   8   1   0 8493.03 1808.71   1
   8  -9   0 6210.51 1817.88   2
   1   8   0 11168.2 1947.09   1
  -8  -1   0 9567.21 1925.46   1
  -1   9   0 9693.91 1912.36   1
   9  -1   0 8545.23 1623.85   2
   8   1   0 5769.06 1335.13   2
  -8  -1   1 54362.7 4560.99   1
   1  -9  -1 64853.2 4862.93   1
   9  -1   1 63882.7 4883.77   1
  -1  -8   1 76727.3 5273.16   1
   8   1  -1 58260.3 4615.58   1
  -1   9   1 58989.9 4612.30   1
   1   8  -1 71945.6 5171.22   1
   9  -8   1 55145.4 4511.04   2
  -9   1  -1 63857.4 4837.19   1
   9  -1   1 64688.4 4843.89   2
   8   1  -1 57245.1 4827.75   2
  -8  -1   2 192892. 8936.51   1
   9  -1   2 193157. 8918.92   1
   8   1  -2 201477. 9040.01   1
  -1   9   2 193671. 8913.61   1
  -1  -8   2 183173. 8886.11   1
   1   8  -2 172634. 8365.90   1
   9  -8   2 200839. 9123.16   2
  -9   1  -2 187657. 8738.32   1
   9  -1   2 176539. 8512.76   2
  -8  -1   3 29154.8 3244.92   1
   9  -1   3 38177.5 3616.33   1
  -1   9   3 37212.4 3679.41   1
   8   1  -3 41914.8 3879.40   1
  -1  -8   3 31316.4 3476.41   1
   1   8  -3 38063.1 3658.71   1
   9  -8   3 37325.1 3750.50   2
  -9   1  -3 28681.4 3223.24   1
   9  -1   3 34999.0 3540.67   2
  -8  -1   4 43927.1 4164.22   1
   9  -1   4 69068.0 4927.42   1
   8   1  -4 60111.5 4864.28   1
   1   8  -4 56317.2 4513.53   1
  -1  -8   4 45465.0 4261.25   1
   9  -8   4 55951.0 4532.49   2
  -9   1  -4 59935.4 4729.97   1
   9  -1   4 55705.7 4591.59   2
  -8  -1   5 15402.5 2487.14   1
   9  -1   5 13388.7 2182.64   1
   8   1  -5 18981.6 2664.83   1
   1   8  -5 16144.2 2413.45   1
  -9   1  -5 17026.0 2525.94   1
  -1  -8   5 15305.6 2479.92   1
   9  -8   5 16042.2 2447.70   2
   9  -1   5 18320.4 2460.48   2
   9  -1   6 80159.4 5801.51   1
  -8  -1   6 93071.7 6192.63   1
   8   1  -6 70151.1 5193.91   1
   1   8  -6 75205.6 5474.66   1
  -9   1  -6 71213.0 5316.71   1
   9  -8   6 79442.2 5596.24   2
  -1  -8   6 90363.8 5993.76   1
   9  -1   6 69023.3 5263.87   2
   9  -1   7 33712.0 3747.11   1
  -8  -1   7 35028.8 3682.68   1
   8   1  -7 29443.7 3402.15   1
  -9   1  -7 35820.9 3744.41   1
   1   8  -7 36871.0 3846.93   1
   9  -8   7 31514.2 3607.78   2
  -1  -8   7 41219.1 3964.48   1
   9  -1   7 36378.7 3882.04   2
  -9   1  -8 1504.47 709.828   1
   9  -1   8 2475.55 999.689   1
  -8  -1   8 4446.20 1356.18   1
  -1  -8   8 3386.03 1235.69   1
   8   1  -8 3118.43 1142.29   1
   9  -8   8 1204.75 512.281   2
   1   8  -8 2882.01 1082.64   1
   9  -1   8 2083.04 1144.52   2
   9  -1   9 20153.1 2802.52   1
  -8  -1   9 18227.6 2703.64   1
  -9   1  -9 17542.9 2615.94   1
   8   1  -9 19869.0 2850.98   1
   1   8  -9 19121.3 2869.83   1
   9  -8   9 22848.1 2961.86   2
   9  -1   9 16123.5 2761.70   2
  -1  -8   9 20728.9 2812.37   1
   9  -1  10 76686.1 5724.18   1
  -8  -1  10 59776.9 5155.62   1
  -9   1 -10 78016.4 5742.69   1
   8   1 -10 58450.5 5042.12   1
   9  -8  10 69429.5 5359.23   2
   1   8 -10 68148.1 5608.41   1
   9  -1  10 76609.8 5885.23   2
  -1  -8  10 73194.2 5586.50   1
   9  -1  11 6966.58 1766.39   1
  -8  -1  11 5740.67 1634.64   1
   8   1 -11 3559.16 1159.67   1
   9  -8  11 3695.66 1366.59   2
  -1  -8  11 4840.49 1391.36   1
   9  -1  11 4940.77 1655.24   2
   1   8 -11 4315.93 1343.87   1
  -9   1 -11 4461.50 1400.96   1
   9  -1  12 4267.19 1354.65   1
  -9   8 -12 5200.05 1486.43   1
   9  -8  12 5872.20 1510.88   2
  -8  -1  12 4013.46 1346.59   1
  -9   1 -12 5831.72 1587.46   1
   9  -1  12 4460.88 1632.45   2
   1   8 -12 5808.20 1605.66   1
  -1  -8  12 5022.01 1436.06   1
  -9   8 -13 26177.4 3521.08   1
  -1  -8  13 40865.8 4273.79   1
   9  -1  13 30873.2 3599.69   1
  -9   1 -13 33399.7 3843.88   1
   9  -8  13 34706.1 3957.53   2
   1   8 -13 36674.9 4084.31   1
   9  -1  13 30847.8 3802.09   2
  -9   8 -14 30832.4 3887.49   1
   9  -8  14 26928.9 3826.28   1
  -9   8 -15-564.724 514.196   1
   0  -9   0 700825. 20425.1   1
   9   0   0 551570. 18978.4   1
   0   9   0 842650. 21729.3   1
   9   0   0 614667. 19678.7   2
  -9   0   0 838614. 21400.6   1
   0  -9  -1 103.179 358.270   1
   0  -9   1 282.756 350.356   1
  -9   0  -1-30.1161 488.703   1
   9   0   1 956.172 691.404   1
   9   0  -1 668.288 536.807   1
  -9   0   1 468.690 409.265   1
   0   9   1 1228.87 891.691   1
   9  -9   1 707.190 535.895   2
   0   9  -1 558.917 704.086   1
   9   0   1 451.807 224.986   2
   9   0  -1 1385.53 876.560   2
   0  -9  -2 423.042 323.254   1
  -9   0  -2 575.078 614.958   1
   9   0   2 706.515 609.806   1
   0  -9   2 278.111 262.100   1
   0   9   2-96.7903 604.652   1
   9  -9   2-88.6630 323.752   2
  -9   0   2 1049.36 594.173   1
   0   9  -2-198.848 466.029   1
   9   0  -2 154.481 368.595   1
   9   0   2 943.479 620.323   2
  -9   0  -3 740.887 495.657   1
   9   0   3 617.917 504.664   1
   9   0  -3 566.330 589.526   1
   0   9   3 434.954 420.880   1
   9  -9   3 494.681 549.034   2
   0   9  -3 1426.69 956.228   1
  -9   0   3 54.3036 350.209   1
   0  -9   3 747.275 764.162   1
   0  -9  -3-16.1803 258.598   1
   9   0   3 595.663 304.047   2
   0  -9  -4 23760.9 3066.52   1
  -9   0   4 26891.5 3351.28   1
   9   0   4 29699.7 3423.24   1
   0   9   4 29150.3 3390.85   1
   9   0  -4 36730.2 3708.38   1
   0   9  -4 25243.8 3078.89   1
   9  -9   4 28224.8 3301.94   2
   0  -9   4 25252.1 3211.54   1
  -9   0  -4 26056.5 3133.79   1
   9   0   4 28540.2 3166.62   2
   0  -9   5 66.8433 238.161   1
  -9   0  -5-402.784 364.343   1
   9   0   5-4.79187 362.329   1
   0   9   5-283.088 386.496   1
   9   0  -5 207.591 353.902   1
   9  -9   5 709.234 612.000   2
   0   9  -5 770.783 612.138   1
   9   0   5 611.576 628.258   2
  -9   0   5 566.852 249.175   1
  -9   0   6 2658.46 1004.05   1
  -9   0  -6 2848.46 1145.04   1
   0  -9   6 3654.79 1179.79   1
   9   0   6 2669.52 947.751   1
   9   0  -6 2638.83 1066.12   1
   9  -9   6 3454.34 1216.40   2
   0   9  -6 3126.88 1156.29   1
   9   0   6 3761.28 1230.35   2
  -9   0   7 1234.60 911.056   1
  -9   0  -7 1604.03 624.710   1
   9   0   7 311.391 300.224   1
   0  -9   7 827.552 779.811   1
   9   0  -7 472.965 348.929   1
   9  -9   7 518.752 337.926   2
   0   9  -7 985.572 597.368   1
   9   0   7 1486.63 771.726   2
   9   0   8 123121. 7392.47   1
  -9   0   8 112160. 7291.07   1
  -9   0  -8 109427. 6940.37   1
   9  -9   8 97093.8 6672.70   2
   0   9  -8 129914. 7666.29   1
   9   0   8 111139. 7095.61   2
   0  -9   8 102476. 6867.40   1
  -9   0  -9 208.847 790.602   1
   9   0   9-166.762 525.895   1
   9  -9   9 1398.12 788.067   2
   0  -9   9 428.359 429.551   1
   0   9  -9 474.185 435.256   1
   9   0   9 743.034 1030.72   2
  -9   0 -10 452.262 512.519   1
   9   0  10-35.7438 273.246   1
   9  -9  10-72.0957 446.832   2
   0  -9  10 1017.06 696.613   1
   0   9 -10 36.7182 429.278   1
   9   0  10 353.577 416.167   2
   9   0  11 298.598 342.697   1
   9  -9  11-111.398 204.695   2
   0  -9  11 695.877 706.849   1
   0   9 -11 164.509 421.699   1
   9   0  11 687.492 941.881   2
  -9   0 -11 1232.94 847.567   1
   0  -9  12 127583. 7800.96   1
   9   0  12 125626. 7589.88   1
  -9   0 -12 128364. 7606.16   1
   9  -9  12 99663.2 6940.04   2
   0   9 -12 122718. 7718.65   1
   9   0  12 117380. 7511.46   2
   5   5  14 20419.1 3039.04   1
  -5  -5 -14 18766.9 2955.08   1
  -5  10 -14 17955.0 2980.61   1
   5 -10  14 17834.2 2979.05   1
  -5  -5 -13 341.125 556.157   1
  -5  10 -13 107.550 425.737   1
   5   5  13 329.342 280.822   1
   5 -10  13-160.570 479.295   1
   5 -10  13-232.422 427.868   2
   5   5  13-202.645 493.549   2
   5   5  12 220993. 10421.2   1
  -5  -5 -12 212113. 10100.5   1
   5 -10  12 193202. 9762.30   2
  -5  10 -12 194024. 10061.8   1
   5   5  12 161769. 8933.92   2
   5 -10  12 154797. 9053.84   1
  -5  10 -11 310.462 415.981   1
  -5  -5 -11 144.376 458.051   1
   5 -10  11 958.303 843.468   1
   5   5  11 99.3583 285.119   1
   5 -10  11-495.056 552.367   2
   5   5  11 21.4842 1093.05   2
  -5  10 -10 11247.3 2198.36   1
   5 -10  10 11522.5 2254.91   1
  -5  -5 -10 10876.7 2174.55   1
   5   5  10 12043.5 2202.34   1
   5 -10  10 13519.3 2331.91   2
   5   5  10 10541.6 1992.49   2
   5 -10   9-294.886 567.549   1
  -5  10  -9-219.101 425.754   1
  -5  -5  -9-603.626 374.414   1
   5   5   9 145.453 357.772   1
   5 -10   9-755.829 855.914   2
   5   5   9-179.055 320.644   2
   5   5   8 67143.5 5123.30   1
   5 -10   8 60053.1 5085.04   2
  -5  -5  -8 68971.8 5175.14   1
  -5  10  -8 62267.4 5114.60   1
   5   5   8 65347.7 5361.73   2
  -5  -5  -7 68.2583 389.227   1
   5   5   7-828.626 594.258   1
   5 -10   7-330.574 678.970   2
   5   5   7-181.456 340.531   2
  -5  -5  -6 5581.38 1438.17   1
   5   5   6 5086.21 1373.09   1
   5 -10   6 3972.41 1284.56   2
  -5  -5  -5 499.875 529.677   1
   5   5   5-1017.61 517.986   1
   5 -10   5 528.187 574.990   2
   5   5   4 108453. 6711.30   1
   5 -10   4 117779. 7071.44   2
   5   5   3 232.351 211.294   1
   5 -10   3 290.955 625.981   2
  -5  -5  -3 446.963 605.550   1
   5   5   2 6550.39 1382.09   1
   5 -10   2 6477.48 1561.30   2
  -5  -5  -2 6031.02 1370.91   1
   5   5   1 712.006 267.675   1
   5 -10   1 235.974 421.594   2
  -5  -5  -1 821.118 740.019   1
  -5  -5   0 567710. 17464.1   1
   5   5   0 573919. 17749.4   1
  -5  -5   1-56.2497 419.708   1
   5   5  -1 276.649 344.383   1
  -5  -5   2 24494.2 2973.42   1
   5   5  -2 19611.6 2616.27   1
  10  -5   2 23535.5 2929.70   2
  -5  -5   3-1012.86 595.558   1
   5   5  -3-126.164 547.868   1
  10  -5   3 870.596 776.185   2
  -5  -5   4 143112. 7647.75   1
  10  -5   4 151843. 8219.97   2
  -5  -5   5 664.786 701.807   1
   5   5  -5 844.191 829.644   1
 -10   5  -5 185.397 310.850   1
  10  -5   5 876.985 626.198   2
  10  -5   6 19659.9 2792.60   1
 -10   5  -6 16002.6 2495.78   1
   5   5  -6 19214.4 2609.26   1
  10  -5   6 24843.7 3147.64   2
  -5  -5   6 16940.2 2588.35   1
  10  -5   7 130.030 371.504   1
 -10   5  -7 238.503 204.625   1
   5   5  -7-15.9282 519.284   1
  10  -5   7-115.262 340.516   2
  -5  -5   7-737.991 737.141   1
  10  -5   8 38248.7 4051.38   1
 -10   5  -8 40750.6 3987.12   1
   5   5  -8 43303.0 4058.52   1
  -5  -5   8 38206.7 3887.88   1
  10  -5   8 39570.9 3997.20   2
  -5  -5   9 302.258 517.870   1
  10  -5   9-312.514 477.055   1
 -10   5  -9 18.9042 332.554   1
   5   5  -9-97.0719 470.928   1
  10  -5   9-270.200 422.555   2
  -5  -5  10 4438.29 1440.97   1
  10  -5  10 4842.08 1466.64   1
 -10   5 -10 3835.74 1335.78   1
   5   5 -10 4354.94 1361.02   1
  10  -5  10 5065.90 1603.42   2
  10  -5  11-563.068 614.809   1
  -5  -5  11 206.808 466.079   1
 -10   5 -11-140.031 531.793   1
   5   5 -11 28.4376 367.266   1
  10  -5  11 766.661 672.047   2
  10  -5  12 265088. 12405.4   1
 -10   5 -12 272006. 12231.4   1
   5   5 -12 330261. 13168.8   1
  10  -5  12 291000. 12333.9   2
  -5  -5  12 350888. 13234.0   1
  10  -5  13-45.8871 411.205   1
  -5  -5  13 1014.93 820.391   1
 -10   5 -13 84.8460 421.029   1
  10  -5  13 620.402 720.266   2
   5   5 -13-98.1824 419.324   1
  10  -5  14-75.0829 259.899   1
 -10   5 -14-160.740 537.716   1
   4   6  14 45951.8 4579.16   1
   6 -10  14 44351.2 4804.48   1
  -4  -6 -14 56131.0 5100.65   1
   4 -10  14 47755.0 4676.70   1
  -4  10 -14 51450.3 4877.80   1
  -6  10 -14 47577.9 4776.66   1
  -4  -6 -13 561.633 649.256   1
  -4  10 -13 307.397 577.434   1
  -6  10 -13-69.9211 349.899   1
   6   4  13-673.643 631.340   1
   6 -10  13-356.860 543.376   1
   4   6  13 601.251 798.857   1
   4 -10  13 493.621 290.506   2
   6 -10  13 314.211 379.440   2
   6   4  13 291.185 899.329   2
   4   6  13 64.5380 312.544   2
   4 -10  13-150.649 428.128   1
  -6  -4 -13-388.880 653.036   1
  -4  10 -12 7155.35 1800.38   1
  -6  -4 -12 11661.2 2125.37   1
  -4  -6 -12 7275.15 1838.52   1
  -6  10 -12 7524.50 1792.49   1
   6   4  12 9283.76 1966.07   1
   4   6  12 8368.86 1809.02   1
   4 -10  12 7597.58 1904.78   2
   6 -10  12 9882.01 1994.50   2
   4 -10  12 5618.44 1640.28   1
   6   4  12 9004.55 1954.22   2
   4   6  12 4585.18 1344.32   2
   6   4  11 57233.7 5053.88   1
   4   6  11 52732.5 4859.74   1
   4 -10  11 47247.2 4746.03   1
   4 -10  11 51017.0 4839.26   2
  -6  -4 -11 58674.6 5012.79   1
   6 -10  11 57197.6 4985.76   2
  -4  -6 -11 54473.6 4861.06   1
  -4  10 -11 47246.1 4591.38   1
  -6  10 -11 46859.4 4705.52   1
   6   4  11 62348.3 4965.09   2
   4   6  11 41821.3 4198.71   2
   6   4  10 78378.3 5735.46   1
   4   6  10 75365.1 5595.85   1
   4 -10  10 61784.6 5397.38   1
   4 -10  10 62888.3 5258.52   2
   6 -10  10 64347.7 5354.92   2
  -6  -4 -10 76679.6 5653.02   1
  -4  -6 -10 69240.6 5403.37   1
  -4  10 -10 73903.0 5654.91   1
   6   4  10 71633.9 5445.42   2
   4   6  10 50574.5 4789.08   2
   4 -10   9 66512.1 5315.95   2
   6   4   9 73462.0 5349.58   1
   4   6   9 76323.3 5617.36   1
   4 -10   9 79528.3 5795.41   1
   6 -10   9 80444.0 5960.44   2
  -6  -4  -9 79592.6 5658.74   1
  -4  -6  -9 66952.1 5331.65   1
  -4  10  -9 68909.9 5591.42   1
   6   4   9 75653.8 5466.21   2
  -6  -4  -8 9407.37 1911.55   1
  -4  -6  -8 6085.37 1629.90   1
   4 -10   8 8713.34 1926.16   1
   6   4   8 9187.17 1784.43   1
   4   6   8 8767.87 1836.37   1
   4 -10   8 11053.4 2175.31   2
   6 -10   8 8254.05 1898.04   2
   6   4   8 10488.3 2071.76   2
  -4  10  -8 7732.61 1834.53   1
   4 -10   7 4592.94 1210.64   1
  -6  -4  -7 5300.32 1298.49   1
  -4  -6  -7 4790.03 1409.26   1
   6   4   7 5921.05 1549.76   1
   4   6   7 3710.44 1092.59   1
   4 -10   7 5296.80 1547.11   2
   6 -10   7 2848.66 1009.79   2
   6   4   7 6155.46 1658.12   2
  -4  10  -7 6493.22 1603.57   1
   6   4   6 55468.9 4727.01   1
   4   6   6 59994.7 4912.06   1
   4 -10   6 52305.3 4635.57   2
   6 -10   6 58588.5 4846.49   2
  -4  10  -6 58062.4 5150.05   1
  -6  -4  -6 64711.8 4944.07   1
  -4  -6  -6 68566.7 5130.64   1
   6   4   6 50984.2 4615.72   2
  -6  -4  -5 8527.45 1739.36   1
   6   4   5 9427.33 1899.24   1
   4   6   5 8610.87 1869.52   1
  -4  -6  -5 6595.83 1579.51   1
   4 -10   5 6703.88 1694.41   2
   6 -10   5 8151.28 1838.35   2
   6   4   5 6548.80 1476.62   2
   6   4   4 1959.98 771.099   1
  -6  -4  -4 2668.69 959.844   1
   4   6   4 3561.24 1147.91   1
   4 -10   4 1342.50 822.648   2
   6 -10   4 2548.87 1022.13   2
  -4  -6  -4 4197.88 1239.89   1
  -4  -6  -3 21861.7 2838.62   1
   6   4   3 23456.4 2910.74   1
   4   6   3 20045.2 2708.70   1
   4 -10   3 19695.7 2996.66   2
   6 -10   3 19418.9 2835.98   2
  -6  -4  -3 21647.7 2745.85   1
  -6  -4  -2 155945. 7834.85   1
  -4  -6  -2 127962. 7211.81   1
   6   4   2 151239. 7750.55   1
   4   6   2 145300. 7520.83   1
   6 -10   2 134120. 7679.52   2
  -6  -4  -1 26881.3 3146.74   1
  -4  -6  -1 32284.3 3292.48   1
   6   4   1 26367.2 3135.84   1
   4   6   1 26151.0 3143.61   1
   6 -10   1 23169.1 3042.36   2
  -6  -4   0 48553.3 4291.46   1
  -4  -6   0 46280.8 4174.23   1
   6   4   0 56157.8 4606.07   1
   4   6   0 49320.0 4315.52   1
   6 -10   0 52714.0 4550.67   2
  -6  -4   1 66888.3 5023.13   1
  -4  -6   1 73694.9 5322.64   1
   6   4  -1 72461.3 5313.15   1
   4   6  -1 69223.6 5074.34   1
   6 -10  -1 66805.2 5340.55   2
  10  -4   1 60698.6 4937.01   2
  -6  -4   2 198771. 9238.25   1
  -4  -6   2 191462. 9000.94   1
   6   4  -2 195395. 9068.48   1
   4   6  -2 179537. 8786.20   1
  10  -6   2 198497. 9262.99   2
  10  -4   2 216235. 9570.65   2
  -6  -4   3 25684.6 3077.96   1
  -4  -6   3 25000.0 3054.39   1
   6   4  -3 22481.5 2859.87   1
 -10   4  -3 28705.2 3263.71   1
   4   6  -3 26452.8 3162.03   1
  10  -6   3 30482.5 3418.50   2
  10  -4   3 26729.6 3286.87   2
  -6  -4   4 6123.96 1591.66   1
  10  -4   4 6159.70 1500.93   1
  -4  -6   4 4439.86 1209.52   1
   6   4  -4 6266.60 1487.49   1
   4   6  -4 5216.36 1612.76   1
  10  -6   4 6829.35 1611.03   2
  10  -4   4 5872.62 1613.01   2
 -10   4  -4 4268.61 1271.41   1
  10  -4   5 22328.6 2888.66   1
  -6  -4   5 15924.9 2529.60   1
 -10   4  -5 17143.7 2611.09   1
  -4  -6   5 18643.4 2692.07   1
   6   4  -5 17190.3 2541.66   1
  10  -6   5 16702.0 2547.61   2
  10  -4   5 16853.9 2551.17   2
   4   6  -5 12151.2 2113.85   1
  10  -4   6 47999.3 4382.04   1
 -10   4  -6 39888.1 3928.63   1
  -6  -4   6 32691.7 3513.43   1
   6   4  -6 34940.7 3658.11   1
   4   6  -6 43079.9 3975.17   1
  -4  -6   6 43744.9 3990.48   1
  10  -6   6 36127.4 3730.46   2
  10  -4   6 38460.8 4005.91   2
  10  -4   7 52426.2 4658.00   1
 -10   4  -7 40702.7 4085.15   1
  -6  -4   7 42784.2 4209.47   1
   6   4  -7 34394.4 3568.47   1
   4   6  -7 42970.9 4140.67   1
  -4  -6   7 46097.6 4266.92   1
  10  -6   7 42158.4 4075.05   2
  10  -4   7 37928.5 4046.72   2
  -4  -6   8-31.4846 617.394   1
  10  -4   8 744.721 683.277   1
 -10   6  -8 687.357 649.861   1
   6   4  -8 767.841 279.916   1
  -6  -4   8-246.744 813.027   1
   4   6  -8 240.814 303.266   1
  10  -6   8 981.676 718.254   2
 -10   4  -8 714.074 609.004   1
  10  -4   8 969.412 849.408   2
  10  -6   9 6149.08 1628.68   1
  -4  -6   9 7265.49 1683.78   1
  10  -4   9 6917.09 1843.43   1
 -10   6  -9 7853.56 1801.14   1
 -10   4  -9 6788.61 1766.26   1
   6   4  -9 4886.50 1361.81   1
  10  -6   9 6615.62 1633.51   2
   4   6  -9 5046.63 1343.76   1
  10  -4   9 5049.40 1658.04   2
  -6  -4   9 7281.94 1764.24   1
  10  -6  10 89697.5 6608.18   1
  10  -4  10 106304. 7012.93   1
 -10   6 -10 108553. 7159.55   1
 -10   4 -10 104629. 6829.90   1
   6   4 -10 128146. 7352.68   1
   4   6 -10 113686. 7200.02   1
  -6  -4  10 109079. 6972.48   1
  10  -6  10 110624. 6975.34   2
  -4  -6  10 117483. 7192.33   1
  10  -4  10 111865. 7273.80   2
 -10   6 -11 5478.34 1511.21   1
  -6  -4  11 6074.45 1510.15   1
  10  -6  11 4925.12 1519.92   1
  10  -4  11 6231.23 1690.26   1
  -4  -6  11 7510.37 1683.39   1
 -10   4 -11 4929.56 1501.10   1
   6   4 -11 6660.98 1646.87   1
  10  -6  11 4136.16 1196.51   2
   4   6 -11 5685.04 1624.00   1
  10  -4  11 5416.01 1541.49   2
  10  -6  12 28675.3 3660.32   1
  10  -4  12 27896.8 3607.19   1
 -10   6 -12 32699.7 3925.76   1
 -10   4 -12 36635.6 3825.58   1
   6   4 -12 37167.6 3991.62   1
   4   6 -12 31392.7 3731.49   1
  -6  -4  12 36782.5 3938.14   1
  10  -6  12 34929.3 3944.62   2
  10  -4  12 36261.9 4067.34   2
  -4  -6  12 39119.3 4122.25   1
  10  -6  13 35985.9 4284.96   1
  10  -4  13 41682.7 4469.20   1
 -10   6 -13 51354.0 5027.71   1
 -10   4 -13 49921.8 4775.76   1
   6   4 -13 50945.8 4750.66   1
   4   6 -13 55986.7 4984.22   1
  10  -6  13 54348.9 4963.48   2
  -6  -4  13 51512.5 4731.56   1
  10  -4  13 54353.2 4875.74   2
  -4  -6  13 53138.0 4930.81   1
  10  -6  14 26320.4 3639.63   1
 -10   6 -14 27928.5 3723.56   1
   3   7  14 489.749 727.682   2
   3   7  13 20621.2 3155.71   1
   3 -10  13 22544.8 3250.57   1
  -3  -7 -13 21931.3 3194.64   1
   3 -10  13 17678.8 2842.21   2
  -3  10 -13 21158.8 3053.70   1
  -7  -3 -12 4266.69 1377.21   1
  -3  -7 -12 2527.35 1096.15   1
   7   3  12 4303.13 1371.89   1
   3   7  12 4788.10 1632.18   1
   3 -10  12 4035.63 1278.26   1
   3 -10  12 2971.46 1360.95   2
   7 -10  12 3349.03 1327.94   2
   7   3  12 4622.77 1408.34   2
   3   7  12 460.534 725.218   2
  -3  10 -12 3925.25 1320.30   1
  -7  -3 -11 5615.39 1674.85   1
  -3  -7 -11 5242.78 1460.75   1
   7   3  11 6262.81 1766.99   1
   3 -10  11 4379.94 1492.58   1
   3   7  11 3007.62 1204.94   1
   3 -10  11 4391.55 1497.19   2
   7 -10  11 4712.51 1535.17   2
   7   3  11 3792.79 1158.04   2
   3   7  11 1713.38 907.923   2
  -3  10 -11 4289.94 1352.86   1
   7   3  10 117125. 7083.38   1
   3   7  10 92916.5 6425.87   1
   3 -10  10 84796.9 6361.76   1
   3 -10  10 109167. 7259.34   2
   7 -10  10 111112. 7084.17   2
  -7  -3 -10 116689. 6964.06   1
  -3  -7 -10 75016.7 5885.31   1
  -3  10 -10 98123.1 6841.64   1
   7   3  10 116199. 7017.26   2
   3 -10   9 25753.7 3348.82   1
   7   3   9 23906.3 3237.39   1
   3   7   9 26117.6 3169.89   1
   7 -10   9 27144.8 3433.87   2
   3 -10   9 24250.4 3092.28   2
  -7  -3  -9 28694.5 3339.76   1
  -3  10  -9 26084.8 3414.92   1
  -3  -7  -9 26078.6 3344.77   1
   7   3   9 33289.5 3582.71   2
   3 -10   8 6399.31 1494.68   1
  -7  -3  -8 8216.46 1758.70   1
  -3  -7  -8 6806.59 1651.26   1
   7   3   8 6503.52 1292.89   1
   3   7   8 8217.35 1779.20   1
   3 -10   8 6813.18 1762.66   2
   7 -10   8 6512.61 1784.57   2
   7   3   8 7470.25 1691.50   2
  -3  10  -8 6730.99 1688.13   1
   3 -10   7 107776. 7057.18   1
   7   3   7 108355. 6729.09   1
   3   7   7 109386. 6926.02   1
   3 -10   7 87346.2 6465.24   2
   7 -10   7 107253. 6998.36   2
  -3  10  -7 129979. 7756.92   1
  -7  -3  -7 114742. 6821.57   1
  -3  -7  -7 98860.7 6539.05   1
   7   3   7 110981. 6837.81   2
   3 -10   6 87389.5 6044.61   1
   7   3   6 85616.3 5923.32   1
   3   7   6 85897.7 5954.73   1
   7 -10   6 76889.3 5816.79   2
  -3  10  -6 87437.8 6208.45   1
  -7  -3  -6 83834.1 5785.89   1
  -3  -7  -6 68213.5 5152.50   1
   7   3   6 87849.9 6075.71   2
   7   3   5 29202.5 3386.80   1
   3   7   5 25005.1 3151.22   1
   7 -10   5 22571.9 2972.97   2
  -3  10  -5 28763.8 3571.41   1
  -7  -3  -5 25683.1 3128.58   1
   7   3   5 26872.4 3279.31   2
   3 -10   5 36750.4 3837.03   1
  -3  -7  -5 29812.6 3316.30   1
  -3  -7  -4 17306.9 2587.66   1
   7   3   4 19791.6 2722.27   1
   3   7   4 17432.0 2601.02   1
   7 -10   4 18404.7 2720.57   2
  -3  10  -4 18245.6 2682.80   1
  -7  -3  -4 18743.5 2538.63   1
   7   3   4 14367.4 2406.92   2
   7   3   3 980.470 689.469   1
  -7  -3  -3 985.743 671.531   1
   3   7   3 659.552 863.203   1
   7 -10   3 488.440 529.722   2
  -3  -7  -3 358.632 318.992   1
   7   3   3 1165.11 814.819   2
  -3  -7  -2 76724.5 5573.09   1
   7   3   2 101181. 6135.65   1
   3   7   2 93368.4 6134.78   1
   7 -10   2 86925.3 6060.36   2
  -7  -3  -2 98416.5 6087.82   1
  -3  -7  -1 9220.05 1859.70   1
   7   3   1 7992.41 1576.71   1
   7 -10   1 9831.31 2032.13   2
   3   7   1 11141.8 1956.25   1
  -7  -3  -1 11611.3 2127.90   1
  -7  -3   0 22562.8 2946.05   1
  -3  -7   0 26884.5 3205.37   1
   7   3   0 24094.4 2866.04   1
   3   7   0 27086.7 3166.12   1
   7 -10   0 25567.5 3139.92   2
 -10   3   0 22569.5 2857.19   1
  -7  -3   1 42017.6 3951.45   1
  10  -3   1 45856.4 4074.88   1
  -3  -7   1 40764.2 3903.50   1
   7   3  -1 52298.6 4383.43   1
   3   7  -1 44335.6 4094.93   1
   7 -10  -1 40386.7 4166.57   2
 -10   3  -1 42279.9 4069.58   1
  10  -3   1 42046.1 4172.16   2
  -7  -3   2 108877. 6432.30   1
  10  -3   2 118578. 6828.13   1
  -3  -7   2 96701.8 6256.13   1
   7   3  -2 105081. 6612.86   1
   3   7  -2 93636.3 6140.53   1
 -10   3  -2 114058. 6783.46   1
  10  -7   2 101270. 6464.80   2
  10  -3   2 111198. 6838.65   2
  -7  -3   3 62135.7 4793.81   1
  10  -3   3 55939.7 4714.46   1
  -3  -7   3 57811.6 4658.57   1
   7   3  -3 53174.6 4547.04   1
   3   7  -3 54036.0 4520.77   1
 -10   3  -3 65358.2 5066.41   1
  10  -7   3 54180.4 4653.94   2
  10  -3   3 43720.2 4325.57   2
 -10   3  -4 1120.56 800.703   1
  -7  -3   4 1282.03 797.787   1
  10  -3   4 1977.42 836.666   1
   7   3  -4 525.541 232.831   1
  -3  -7   4 1266.98 789.792   1
   3   7  -4 253.627 535.118   1
  10  -7   4 1032.04 497.892   2
  10  -3   4 1043.84 594.872   2
  10  -3   5 49640.5 4364.80   1
  -7  -3   5 39834.4 4005.77   1
   7   3  -5 43950.3 4120.92   1
 -10   3  -5 38821.5 4013.42   1
  -3  -7   5 47960.8 4381.90   1
   3   7  -5 42881.1 4052.24   1
  10  -7   5 48762.1 4409.13   2
  10  -3   5 45957.6 4428.52   2
  10  -3   6 123051. 7412.73   1
  -7  -3   6 131533. 7464.43   1
 -10   3  -6 121099. 7269.04   1
   7   3  -6 130303. 7392.62   1
   3   7  -6 129534. 7255.01   1
  -3  -7   6 135786. 7496.11   1
  10  -7   6 132681. 7720.63   2
  10  -3   6 121820. 7324.32   2
  10  -3   7 21696.3 2936.65   1
   3   7  -7 20273.1 2896.59   1
  -7  -3   7 21129.8 2912.57   1
 -10   3  -7 20121.7 2896.08   1
   7   3  -7 22672.7 2950.09   1
  -3  -7   7 24796.0 3091.84   1
  10  -7   7 25873.4 3178.77   2
  10  -3   7 24456.2 3205.84   2
  10  -3   8 22868.4 3175.82   1
 -10   3  -8 28196.4 3362.88   1
  -7  -3   8 25749.5 3317.61   1
   7   3  -8 22990.4 2882.85   1
   3   7  -8 21756.0 2982.99   1
  10  -7   8 24353.5 3209.17   2
  -3  -7   8 26398.0 3155.62   1
  10  -3   8 22394.4 3210.25   2
  10  -3   9 27457.8 3528.71   1
 -10   3  -9 31195.4 3703.57   1
  -7  -3   9 22589.4 3082.99   1
   7   3  -9 23148.9 3047.87   1
   3   7  -9 26555.1 3362.76   1
  10  -7   9 30313.6 3625.46   2
  -3  -7   9 26276.2 3272.27   1
  10  -3   9 27071.0 3494.74   2
  10  -3  10 33208.5 3797.02   1
 -10   3 -10 36250.5 3926.05   1
  -7  -3  10 39087.9 4005.45   1
   7   3 -10 32830.6 3733.38   1
   3   7 -10 33114.4 3785.11   1
  10  -7  10 35242.6 3989.09   2
  10  -3  10 37527.0 4122.85   2
  -3  -7  10 42373.1 4195.91   1
  10  -3  11 6139.85 1690.98   1
  -3  -7  11 7484.83 1830.60   1
   7   3 -11 7674.07 1815.38   1
  10  -7  11 5708.86 1560.70   2
 -10   3 -11 7908.37 1807.86   1
   3   7 -11 4737.95 1493.63   1
  -7  -3  11 5625.99 1616.17   1
  10  -3  11 5543.14 1629.92   2
  10  -3  12 7515.50 1926.02   1
 -10   7 -12 5419.93 1562.44   1
  -3  -7  12 5787.81 1512.08   1
 -10   3 -12 7254.71 1783.18   1
   7   3 -12 6829.95 1705.28   1
  10  -7  12 6135.15 1655.53   2
   3   7 -12 7919.87 1802.08   1
  10  -3  12 5538.32 1481.44   2
  -7  -3  12 5150.66 1580.73   1
  -7  -3  13 11.8081 611.388   1
  10  -3  13-617.521 601.904   1
 -10   7 -13 384.319 438.603   1
 -10   3 -13 113.880 494.442   1
   7   3 -13-385.993 377.035   1
 -10   7 -14 47070.3 4901.73   1
  -7  -3  14 36631.1 4131.02   1
   2   8  13-110.936 524.194   2
   2 -10  12 75836.1 6038.41   1
   8   2  12 80162.3 5967.06   1
  -8  -2 -12 84574.4 6052.98   1
   2 -10  12 74427.6 6366.37   2
   8 -10  12 79768.5 6121.25   2
  -2  10 -12 84503.2 6425.59   1
   8   2  12 90063.7 6156.26   2
  -8  -2 -11 1677.67 981.735   1
   2 -10  11 535.992 771.864   1
   8   2  11 879.102 544.631   1
   2 -10  11 71.7707 769.347   2
   8 -10  11-493.089 435.154   2
   8   2  11 1044.60 1009.47   2
  -2  10 -11-315.214 551.513   1
   2   8  11 226.321 456.319   2
   2 -10  10 117.251 715.500   1
  -8  -2 -10 628.660 379.355   1
   8   2  10 1264.95 908.084   1
   2   8  10 723.178 505.338   1
   8 -10  10 1129.00 909.237   2
   8   2  10 1588.20 860.626   2
  -2  10 -10 1336.68 934.938   1
  -8  -2  -9 1481.07 729.936   1
  -2  -8  -9 1814.63 908.191   1
   8   2   9 2046.97 923.686   1
   2   8   9 2630.59 1006.07   1
   8 -10   9 1769.49 686.011   2
  -2  10  -9 1699.02 855.510   1
   8   2   9 3310.45 1180.88   2
   2 -10   9 1390.00 574.092   1
   2 -10   8 126649. 7805.29   1
   8   2   8 135669. 7636.89   1
   2   8   8 147461. 8195.38   1
   8 -10   8 124754. 7625.22   2
  -8  -2  -8 143947. 7924.20   1
  -2  10  -8 148384. 8467.36   1
  -2  -8  -8 113411. 7306.92   1
   8   2   8 146468. 7917.97   2
  -8  -2  -7 3298.07 1190.83   1
  -2  -8  -7 1585.02 883.346   1
   8   2   7 1987.53 725.535   1
   2   8   7 3997.87 1355.03   1
   8 -10   7 3157.34 1130.47   2
   2 -10   7 1664.45 815.657   1
  -2  10  -7 2268.78 1033.80   1
   8   2   7 6177.00 1551.86   2
  -8  -2  -6-328.609 412.388   1
   8   2   6-1222.51 767.386   1
  -2  -8  -6 122.117 653.591   1
   2   8   6 211.776 570.966   1
   2 -10   6-540.585 282.139   1
   8 -10   6-328.556 390.438   2
  -2  10  -6-151.524 232.342   1
   8   2   6 122.590 489.130   2
  -8  -2  -5 6469.49 1581.79   1
   8   2   5 6190.51 1480.19   1
   2 -10   5 5708.13 1466.07   1
   2   8   5 5294.50 1443.53   1
  -2  -8  -5 6479.34 1624.31   1
   8 -10   5 6736.40 1724.02   2
  -2  10  -5 5999.81 1633.68   1
   8   2   5 4333.88 1137.69   2
  -2  -8  -4 125885. 7314.17   1
   8   2   4 127960. 7557.25   1
   2   8   4 154897. 8223.51   1
  -2  10  -4 149212. 8129.59   1
   8 -10   4 129436. 7826.03   2
   2 -10   4 187315. 8884.46   1
  -8  -2  -4 168337. 8377.31   1
   8   2   4 144777. 7925.48   2
   2 -10   3-82.1206 310.120   1
  -8  -2  -3 245.668 441.266   1
   8   2   3-220.865 635.503   1
   2   8   3-105.344 525.577   1
   8 -10   3-102.765 260.797   2
  -2  10  -3 188.742 312.041   1
  -2  -8  -3-212.698 477.694   1
   8   2   3-141.939 403.529   2
   2   8   2 21034.7 2856.63   1
  -2  10  -2 13723.5 2348.66   1
   8   2   2 14123.6 2317.29   1
   8 -10   2 15865.1 2532.01   2
 -10   2   2 16640.7 2512.17   1
  -8  -2  -2 20020.8 2734.55   1
  -2  -8  -2 12629.6 2181.93   1
   8   2   2 15432.5 2474.75   2
  -2  -8  -1 2563.14 953.365   1
 -10   2   1 2081.83 927.980   1
  10  -2  -1 1288.85 556.502   1
   8   2   1 931.463 716.047   1
  -8  -2  -1 1275.00 730.862   1
   2   8   1 599.734 623.808   1
   8 -10   1 476.697 429.802   2
   8   2   1 842.787 322.063   2
  -8  -2   0 136365. 7420.29   1
  10  -2   0 151316. 7840.75   1
   8   2   0 149960. 7724.63   1
   2   8   0 142082. 7505.30   1
   8 -10   0 131538. 7731.88   2
 -10   2   0 141961. 7639.10   1
 -10   2  -1 765.511 682.064   1
  -2  -8   1-143.227 579.578   1
  10  -2   1 562.624 270.356   1
   8   2  -1 245.746 321.988   1
   2   8  -1 1207.18 809.752   1
  -8  -2   1 1301.04 746.376   1
  10  -2   1-228.341 351.000   2
   8   2  -1-625.541 780.314   2
 -10   2  -2 13528.3 2231.64   1
  -2  -8   2 13372.3 2336.51   1
  10  -2   2 8382.64 1683.16   1
   8   2  -2 11516.3 2051.05   1
   2   8  -2 9512.50 1956.57   1
  10  -2   2 16635.3 2602.45   2
  -8  -2   2 12436.6 2148.39   1
 -10   2  -3 4042.16 1318.59   1
  10  -2   3 3355.14 1123.18   1
  -2  -8   3 3212.88 1140.78   1
   8   2  -3 5633.04 1503.86   1
   2   8  -3 4726.89 1249.29   1
  10  -8   3 3495.60 1139.83   2
  10  -2   3 6104.96 1603.34   2
   8   2  -3 522.421 624.948   2
  -8  -2   3 3039.14 1059.33   1
  -8  -2   4 226612. 10177.3   1
  10  -2   4 229651. 10372.4   1
   8   2  -4 216755. 10052.1   1
  -2  -8   4 216259. 10143.1   1
   2   8  -4 231999. 10077.6   1
 -10   2  -4 238856. 10312.8   1
  10  -8   4 201579. 9828.52   2
  10  -2   4 208351. 10029.4   2
 -10   2  -5 357.280 508.524   1
  -8  -2   5 325.817 223.992   1
  10  -2   5-242.914 468.901   1
   8   2  -5 724.154 643.006   1
  10  -8   5 840.060 657.660   2
   2   8  -5 497.865 612.123   1
  10  -2   5-523.327 485.801   2
  -2  -8   5-129.716 420.888   1
  -2  -8   6 1577.85 1077.11   1
 -10   2  -6 1012.85 518.784   1
  -8  -2   6 1870.27 999.066   1
  10  -2   6 1172.17 725.655   1
   8   2  -6 687.089 426.103   1
  10  -8   6 1832.08 987.044   2
   2   8  -6 755.931 358.460   1
  10  -2   6 1208.08 907.460   2
 -10   2  -7 9507.18 1943.90   1
  -2  -8   7 8747.64 1830.55   1
  -8  -2   7 7490.38 1750.91   1
  10  -2   7 8293.92 1896.30   1
   8   2  -7 7640.74 1652.92   1
  10  -8   7 8839.04 1875.28   2
   2   8  -7 9870.37 1943.43   1
  10  -2   7 7385.22 1838.23   2
  10  -2   8 94139.7 6506.34   1
  -8  -2   8 84806.0 6050.61   1
 -10   2  -8 80221.3 5987.47   1
   8   2  -8 93143.5 6364.77   1
   2   8  -8 70841.2 5753.24   1
  10  -8   8 84408.2 6117.36   2
  -2  -8   8 105213. 6586.10   1
  10  -2   8 83874.5 6424.80   2
  10  -2   9-531.686 445.170   1
  -8  -2   9 115.376 423.645   1
  -2  -8   9 1328.07 1021.10   1
   8   2  -9 36.5072 207.250   1
  10  -8   9 417.279 685.882   2
   2   8  -9 485.743 284.791   1
  10  -2   9-243.536 489.426   2
 -10   2  -9 306.824 545.150   1
  10  -2  10 2378.22 1323.55   1
  -8  -2  10 295.306 477.069   1
  -2  -8  10 1671.44 868.492   1
   8   2 -10 1110.57 791.181   1
  10  -8  10 1146.67 826.422   2
   2   8 -10 1413.59 670.351   1
 -10   2 -10 286.473 417.642   1
  10  -2  10 662.365 749.623   2
  10  -2  11 1968.04 829.238   1
  -8  -2  11 908.034 636.901   1
  -2  -8  11 2005.16 1024.11   1
   8   2 -11 1454.06 907.450   1
  10  -8  11 2424.09 1249.50   2
 -10   2 -11 2151.37 942.728   1
   2   8 -11 1955.21 964.957   1
  10  -2  11 870.195 317.809   2
  10  -2  12 62204.5 5502.98   1
 -10   2 -12 70368.9 5698.79   1
  -8  -2  12 56344.0 5308.53   1
   8   2 -12 64287.0 5418.97   1
   2   8 -12 72325.5 5812.92   1
  10  -8  12 68118.8 5584.40   2
  10  -2  12 68778.8 5852.30   2
  -2  -8  12 83409.2 6206.28   1
  -8  -2  13 719.874 819.731   1
   1   9  12 8.94017 653.825   2
   9 -10  11 1270.36 703.814   2
   1 -10  11 2776.37 1215.08   1
  -1  10 -11 1532.99 930.477   1
   9   1  10 88068.7 6310.77   1
  -9  -1 -10 91723.9 6327.64   1
   9 -10  10 67916.9 5708.78   2
  -1  10 -10 91336.7 6674.95   1
   9   1  10 82986.1 6214.52   2
   1 -10  10 83531.7 6288.17   1
   9   1   9 12333.0 2343.29   1
  -9  -1  -9 13212.3 2421.79   1
   1 -10   9 10996.5 2191.17   1
   9 -10   9 13606.9 2317.88   2
  -1  10  -9 11940.1 2267.62   1
   9   1   9 14080.4 2500.57   2
  -9  -1  -8 1357.74 576.121   1
   9   1   8 989.938 627.735   1
   1 -10   8 525.399 325.400   1
   9 -10   8 702.954 732.023   2
  -1  10  -8 866.287 795.794   1
   9   1   8 933.464 246.662   2
   9   1   7 48575.5 4433.82   1
   9 -10   7 39657.7 4236.71   2
  -1  10  -7 46096.0 4492.88   1
  -9  -1  -7 47574.7 4349.57   1
   1 -10   7 37109.6 4056.55   1
   9   1   7 44921.8 4299.64   2
   9   1   6 26787.9 3109.18   1
   1   9   6 26305.9 3384.29   1
  -1  10  -6 23860.0 3208.11   1
   9 -10   6 20285.0 3037.38   2
  -9  -1  -6 24959.2 3088.15   1
   1 -10   6 18218.0 2817.26   1
   9   1   6 20514.0 2861.66   2
   1 -10   5 4703.82 1307.83   1
  -9  -1  -5 4934.07 1405.49   1
   9   1   5 5401.11 1534.64   1
   1   9   5 3812.91 1281.71   1
  -1  -9  -5 4780.67 1459.30   1
   9 -10   5 3195.63 1149.17   2
  -1  10  -5 3266.27 1122.63   1
   9   1   5 4137.87 1384.61   2
  -1  -9  -4 17669.6 2589.82   1
   9   1   4 17023.2 2589.35   1
   1   9   4 16260.9 2600.87   1
  -1  10  -4 16617.2 2669.29   1
   9 -10   4 15801.3 2671.56   2
  -9  -1  -4 21992.9 2947.14   1
   9   1   4 13849.6 2476.23   2
   1 -10   4 15320.5 2463.02   1
 -10   1   4 17200.3 2658.22   1
  -1  -9  -3 18838.3 2688.06   1
   9   1   3 16918.8 2587.91   1
  10  -1  -3 16426.1 2542.28   1
   1   9   3 16512.6 2635.43   1
  -1  10  -3 13921.8 2371.60   1
 -10   1   3 14131.6 2334.15   1
   9 -10   3 11745.2 2226.62   2
  -9  -1  -3 17449.3 2603.70   1
   1 -10   3 13690.7 2371.45   1
   9   1   3 9297.85 1909.67   2
  -1  -9  -2 141522. 7826.90   1
   9   1   2 127968. 7371.55   1
  10  -1  -2 112329. 7025.51   1
   1   9   2 161432. 8361.97   1
   1 -10   2 150543. 8143.14   1
  -1  10  -2 107156. 6750.13   1
   9 -10   2 115182. 7392.56   2
  -9  -1  -2 106283. 6749.80   1
   9   1   2 86917.1 6220.98   2
 -10   1   2 119903. 7111.61   1
  -1  -9  -1 51359.2 4670.22   1
  10  -1  -1 54247.9 4787.15   1
   9   1   1 48331.5 4591.78   1
   1 -10   1 69035.0 5411.67   1
   1   9   1 63047.7 5037.49   1
  -1  10  -1 63925.1 5178.62   1
   9   1   1 35558.0 3812.49   2
 -10   1   1 57062.6 4873.52   1
  -9  -1  -1 48519.5 4380.48   1
  -1  -9   0 17426.5 2777.95   1
  10  -1   0 23819.9 3133.11   1
   1   9   0 16755.1 2603.03   1
  -1  10   0 25885.0 3227.14   1
   9   1   0 16166.0 2529.96   1
 -10   1   0 22479.5 3033.80   1
  -9  -1   0 20856.3 2811.50   1
   9   1   0 13527.4 2347.80   2
  10  -1   1 26088.0 3242.34   1
  -1  -9   1 22923.7 3050.09   1
   9   1  -1 25577.4 3235.59   1
   1   9  -1 22860.4 3005.94   1
 -10   1  -1 29958.5 3403.33   1
  10  -1   1 27231.2 3309.05   2
  -9  -1   1 33704.2 3564.27   1
  -9  -1   2 128570. 7489.12   1
  10  -1   2 149747. 7953.93   1
  -1  -9   2 115727. 7307.34   1
   9   1  -2 126225. 7370.00   1
   1   9  -2 127591. 7470.90   1
 -10   1  -2 142404. 7875.77   1
  10  -1   2 135718. 7954.25   2
  -9  -1   3 19543.6 2919.06   1
  10  -1   3 23487.4 3068.27   1
   9   1  -3 14465.3 2445.81   1
  -1  -9   3 24645.4 3224.07   1
   1   9  -3 29721.8 3328.79   1
  10  -9   3 26426.6 3299.73   2
 -10   1  -3 28277.7 3319.32   1
  10  -1   3 31963.8 3615.33   2
 -10   1  -4 2393.48 1042.51   1
  10  -1   4 766.147 576.340   1
   9   1  -4 1993.87 921.888   1
  10  -9   4 1120.46 836.321   2
  -1  -9   4 819.009 900.159   1
   1   9  -4 929.095 739.077   1
  -9  -1   4 1022.47 734.818   1
  10  -1   4 1304.01 571.035   2
 -10   1  -5 12575.3 2152.29   1
  10  -1   5 9382.99 1935.13   1
   9   1  -5 10720.3 2188.27   1
  10  -9   5 8673.42 1966.01   2
   1   9  -5 10747.0 2000.19   1
  10  -1   5 13240.5 2297.01   2
  -1  -9   5 10726.3 2114.36   1
  -9  -1   5 13288.8 2295.52   1
  -9  -1   6 26810.9 3392.53   1
  10  -1   6 23571.5 3111.10   1
   9   1  -6 24221.2 3257.68   1
   1   9  -6 23956.1 3128.67   1
 -10   1  -6 19370.5 2907.86   1
  10  -9   6 20043.2 2940.25   2
  -1  -9   6 17909.5 2791.43   1
  10  -1   6 16374.0 2966.83   2
 -10   1  -7 4391.17 1185.58   1
  -9  -1   7 4312.44 1254.28   1
  -1  -9   7 5641.80 1610.74   1
  10  -1   7 3292.38 1200.72   1
   9   1  -7 2707.75 1021.55   1
  10  -9   7 4925.64 1496.31   2
   1   9  -7 6049.28 1657.90   1
  10  -1   7 4655.66 1597.87   2
 -10   1  -8 18443.8 2674.87   1
  -9  -1   8 13126.0 2343.02   1
  -1  -9   8 16984.4 2633.63   1
  10  -1   8 18329.5 2678.58   1
   9   1  -8 15755.2 2637.75   1
   1   9  -8 20704.1 2982.51   1
  10  -9   8 16867.3 2752.21   2
  10  -1   8 13759.1 2584.35   2
  10  -1   9 30565.6 3752.22   1
  -9  -1   9 31813.2 3836.39   1
   9   1  -9 30595.9 3746.73   1
 -10   1  -9 41004.2 4185.45   1
   1   9  -9 42189.0 4278.07   1
  10  -9   9 35881.6 3889.48   2
  -1  -9   9 42102.0 4342.00   1
  10  -1   9 40290.9 4283.42   2
  10  -1  10 68635.4 5598.28   1
  -9  -1  10 46524.4 4783.57   1
 -10   1 -10 67032.9 5405.32   1
   1   9 -10 70423.7 5742.71   1
  10  -9  10 60816.0 5287.45   2
  10  -1  10 51203.5 5063.81   2
  -1  -9  10 63271.6 5429.73   1
  10  -1  11 29480.2 3548.46   1
 -10   1 -11 31032.6 3710.18   1
   1   9 -11 32154.6 3934.24   1
  10  -9  11 26529.5 3439.15   2
  10  -1  11 25027.3 3548.43   2
  -1  -9  11 26926.8 3467.73   1
   0 -10   0 36313.0 4068.09   1
  10   0   0 25266.2 3307.53   1
   0  10   0 30693.9 3715.71   1
 -10   0   0 34328.8 3741.16   1
   0 -10   1 41877.5 4260.67   1
  10   0   1 38954.4 3996.70   1
  10   0  -1 42979.5 4229.75   1
   0  10   1 34643.4 3920.46   1
   0  10  -1 38508.9 4040.66   1
 -10   0  -1 36110.8 3912.65   1
  10   0   1 30100.2 3473.06   2
 -10   0   1 43583.2 4222.65   1
  10   0   2 107715. 6984.70   1
  10   0  -2 94573.5 6578.46   1
   0 -10   2 105611. 6856.77   1
   0  10   2 111399. 7254.35   1
 -10   0  -2 101437. 6634.05   1
  10   0   2 117098. 7133.35   2
 -10   0   2 103319. 6760.66   1
 -10   0  -3 11797.7 2108.58   1
  10   0   3 12664.2 2171.21   1
  10   0  -3 11029.5 2087.23   1
   0 -10   3 15679.1 2473.60   1
 -10   0   3 12930.3 2363.51   1
   0  10  -3 10665.1 2170.74   1
  10   0   3 11254.2 2139.82   2
 -10   0  -4 2734.45 1011.37   1
  10   0   4 1782.84 775.266   1
  10   0  -4 2576.50 1046.21   1
  10 -10   4 4753.73 1347.03   2
 -10   0   4 3321.88 1253.39   1
   0 -10   4 3205.35 1169.93   1
   0  10  -4 3918.14 1417.40   1
  10   0   4 3590.33 1382.13   2
 -10   0  -5 9408.58 1905.70   1
  10   0   5 8390.76 1846.84   1
  10   0  -5 12593.7 2206.88   1
  10 -10   5 7383.98 1789.62   2
   0  10  -5 7827.96 1879.71   1
 -10   0   5 10066.4 2049.88   1
   0 -10   5 8382.15 1885.21   1
  10   0   5 9015.00 1870.77   2
   0 -10   6 6738.65 1749.75   1
 -10   0  -6 9804.85 2005.36   1
  10   0   6 10844.8 2163.36   1
  10 -10   6 7747.26 1907.34   2
   0  10  -6 11202.9 2201.13   1
 -10   0   6 9710.41 2110.96   1
  10   0   6 9125.04 1999.02   2
   0 -10   7 12746.3 2255.90   1
  10   0   7 19510.7 3031.26   1
   0  10  -7 14327.4 2497.47   1
 -10   0  -7 16516.2 2702.56   1
  10 -10   7 13163.2 2502.12   2
  10   0   7 15133.1 2653.81   2
 -10   0  -8 5218.70 1545.73   1
   0 -10   8 4628.12 1514.49   1
  10   0   8 2827.60 1173.51   1
  10 -10   8 2938.51 1256.73   2
   0  10  -8 3884.68 1375.22   1
  10   0   8 4778.50 1467.82   2
  10   0   9 19626.7 2857.30   1
 -10   0  -9 22339.4 3141.06   1
  10 -10   9 15170.1 2647.82   2
   0 -10   9 22659.7 3167.02   1
  10   0   9 19920.9 3121.46   2
   0  10  -9 19184.7 2896.74   1
   0  10 -10 64986.0 5552.05   1
   0 -10  10 62972.7 5511.60   1
  -6  -5 -11 2585.37 935.378   1
  -5  -6 -11 2841.80 1122.49   1
   6   5  11 2908.27 1145.48   1
   5   6  11 2240.77 1074.69   1
   6   5  11 2065.08 958.946   2
   5   6  11 2359.88 889.538   2
   6   5  10 58863.1 5075.34   1
   5   6  10 54168.1 4847.49   1
   5 -11  10 51789.9 5023.01   2
   6 -11  10 53780.0 5054.20   2
  -6  -5 -10 61110.5 5163.45   1
  -5  -6 -10 49648.4 4685.45   1
   6   5  10 43667.2 4245.41   2
   6   5   9 21047.9 2953.09   1
   5   6   9 17820.1 2768.61   1
   5 -11   9 19709.1 2926.90   2
   6 -11   9 19428.4 2978.46   2
  -6  -5  -9 20229.1 2880.03   1
  -5  -6  -9 21639.0 2959.84   1
   6   5   9 17156.2 2780.45   2
  -6  -5  -8 651.917 552.096   1
  -5  -6  -8 533.508 284.250   1
   6   5   8 220.435 367.266   1
   5   6   8 1016.87 772.073   1
   5 -11   8-64.1849 394.778   2
   6 -11   8 97.4058 680.605   2
   6   5   8-696.733 1045.10   2
   5   6   8 504.187 883.732   2
   6   5   7 28616.9 3348.99   1
   5   6   7 23857.1 3177.73   1
   5 -11   7 25983.4 3452.32   2
   6 -11   7 26262.8 3351.18   2
  -6  -5  -7 21759.4 2976.55   1
  -5  -6  -7 23128.4 3055.88   1
   6   5   6 46972.9 4382.47   1
   5   6   6 42395.1 4241.21   1
   5 -11   6 42202.1 4298.68   2
   6 -11   6 42166.9 4283.85   2
  -6  -5  -6 49155.0 4429.42   1
  -5  -6  -6 39830.0 4017.06   1
   6   5   6 42736.3 4304.37   2
   6   5   5 18922.4 2778.55   1
   5   6   5 23940.7 3150.73   1
   6 -11   5 22820.8 3199.49   2
   5 -11   5 17328.9 2883.81   2
  -6  -5  -5 22127.2 2962.71   1
  -5  -6  -5 22146.3 2939.77   1
   5   6   4 12728.2 2297.49   1
   6   5   4 12755.4 2262.27   1
  -5  -6  -4 13077.9 2306.97   1
   5 -11   4 7991.71 1883.47   2
   6 -11   4 8756.90 1959.10   2
  -6  -5  -4 14363.8 2357.79   1
  -5  -6  -3 52733.2 4590.26   1
   6   5   3 48152.4 4480.87   1
   5   6   3 51327.8 4557.10   1
   5 -11   3 39397.3 4385.58   2
   6 -11   3 35885.8 4052.97   2
  -6  -5  -3 52025.3 4503.28   1
  -6  -5  -2 133801. 7492.40   1
  -5  -6  -2 125921. 7338.46   1
   6   5   2 121926. 7232.16   1
   5   6   2 139109. 7459.75   1
   5   6   1 18573.2 2629.09   1
   6   5   1 13931.8 2325.56   1
   6 -11   1 8769.60 1941.03   2
  -6  -5  -1 16222.0 2489.86   1
  -5  -6  -1 14557.8 2364.15   1
  -6  -5   0 16207.2 2540.82   1
   6   5   0 16201.1 2495.90   1
   5   6   0 17374.4 2524.69   1
  -5  -6   0 15879.4 2401.08   1
  -6  -5   1 1692.32 1015.12   1
  -5  -6   1 1438.25 499.170   1
   6   5  -1 1327.68 718.390   1
   5   6  -1 779.306 527.873   1
  -6  -5   2 110354. 6729.50   1
  -5  -6   2 108626. 6906.50   1
   6   5  -2 111489. 6740.06   1
   5   6  -2 103039. 6688.90   1
  -6  -5   3 25812.1 3245.36   1
  -5  -6   3 25976.6 3262.08   1
   6   5  -3 25029.5 3255.29   1
   5   6  -3 23058.7 2940.33   1
  -6  -5   4 8020.36 1615.52   1
  -5  -6   4 10883.2 2055.20   1
   6   5  -4 9295.46 1885.01   1
   5   6  -4 8489.29 1854.33   1
  11  -6   4 8378.50 1826.83   2
  11  -5   4 9390.82 1996.18   2
  -6  -5   5 27621.3 3352.01   1
  -5  -6   5 30267.0 3407.68   1
   6   5  -5 21744.0 2977.03   1
   5   6  -5 29253.8 3522.65   1
  11  -6   5 22893.8 3231.93   2
  11  -5   5 27173.2 3585.70   2
  -6  -5   6 30122.0 3591.44   1
   6   5  -6 35433.8 3817.24   1
   5   6  -6 33848.9 3727.51   1
  11  -6   6 24615.0 3385.15   2
  11  -5   6 29868.8 3670.97   2
  -6  -5   7 10050.5 2022.93   1
  -5  -6   7 8924.05 1879.22   1
   6   5  -7 6219.20 1583.61   1
   5   6  -7 8824.53 1773.32   1
  11  -6   7 7958.48 1825.95   2
  11  -5   7 9112.13 2008.85   2
  -6  -5   8 5270.91 1449.49   1
   6   5  -8 5798.66 1487.31   1
   5   6  -8 4670.66 1339.26   1
  -5  -6   8 6470.73 1813.86   1
  11  -6   8 5780.69 1571.39   2
  11  -5   8 6009.68 1694.07   2
 -11   5  -9 27302.4 3499.63   1
  -6  -5   9 31082.0 3677.74   1
   6   5  -9 32570.9 3617.46   1
   5   6  -9 26906.3 3381.72   1
  -5  -6   9 36656.4 3974.88   1
  11  -6   9 26222.8 3434.01   2
  11  -5   9 30786.6 3802.14   2
  11  -5  10 89370.1 6656.18   1
 -11   5 -10 97497.5 6760.06   1
  -6  -5  10 102898. 6965.82   1
   6   5 -10 100320. 6745.27   1
   5   6 -10 91155.6 6414.63   1
  -5  -6  10 107315. 6894.61   1
  11  -6  10 87128.9 6443.99   2
  11  -5  10 92224.2 6697.61   2
  11  -5  11 16619.8 2856.94   1
 -11   5 -11 16065.2 2725.40   1
   6   5 -11 23241.6 3136.21   1
  -6  -5  11 25043.7 3233.10   1
  -5  -6  11 25482.4 3284.34   1
  11  -6  11 21965.2 3045.62   2
  11  -5  11 21522.8 3104.39   2
  11  -5  12 4533.07 1572.62   1
 -11   5 -12 6449.39 1712.92   1
   4   7  12 21755.4 3249.53   1
  -4  -7 -12 20400.2 3232.02   1
  -4  11 -12 23783.0 3471.80   1
  -4  -7 -11 3703.62 1319.50   1
   4   7  11 1481.10 983.908   1
   4   7  11-510.525 960.698   2
  -4  11 -11 1987.63 917.745   1
  -7  -4 -10 1724.03 1137.38   1
  -4  -7 -10 314.427 708.263   1
   7   4  10-495.255 605.822   1
   4   7  10 110.437 551.036   1
   4 -11  10-97.6053 582.108   2
   7 -11  10 143.104 452.789   2
   7   4  10 148.445 709.915   2
  -4  11 -10-87.7661 533.694   1
   4   7  10 444.795 439.638   2
  -7  -4  -9 4043.42 1348.97   1
  -4  -7  -9 2708.17 1022.54   1
   7   4   9 4330.02 1411.44   1
   4   7   9 4673.31 1306.31   1
   4 -11   9 3720.40 1491.78   2
   7 -11   9 3916.18 1526.69   2
   7   4   9 3075.23 1109.29   2
   4   7   9 877.463 321.353   2
   7   4   8 172138. 8839.20   1
   4   7   8 191361. 9392.74   1
   4 -11   8 162642. 9322.11   2
   7 -11   8 139092. 8551.81   2
  -7  -4  -8 171691. 8871.84   1
  -4  -7  -8 139074. 8099.99   1
   7   4   8 179228. 9057.86   2
  -7  -4  -7 1695.35 984.963   1
  -4  -7  -7 443.789 550.786   1
   7   4   7 1135.43 864.098   1
   4   7   7 30.9019 523.220   1
   4 -11   7 143.195 441.043   2
   7 -11   7 1255.07 887.161   2
   7   4   7-688.279 364.136   2
  -7  -4  -6 2928.69 1187.07   1
  -4  -7  -6 3337.05 1343.52   1
   7   4   6 3283.85 1195.19   1
   4   7   6 3371.71 1242.35   1
   4 -11   6 1409.68 961.436   2
   7 -11   6 2097.71 996.539   2
   7   4   6 2613.24 877.121   2
   4   7   5 14595.2 2447.82   1
  -7  -4  -5 12211.0 2171.68   1
   7   4   5 12350.5 2131.49   1
  -4  -7  -5 13892.5 2268.58   1
   7 -11   5 11960.6 2312.40   2
   7   4   5 14750.0 2556.71   2
   7   4   4 110579. 6699.02   1
   4   7   4 95161.2 6306.63   1
   7 -11   4 77383.4 5861.02   2
  -7  -4  -4 105316. 6512.87   1
   7   4   4 65912.4 5476.74   2
  -4  -7  -4 87979.0 6058.95   1
   7   4   3-297.376 244.882   1
  -7  -4  -3 187.315 310.042   1
   4   7   3 1287.17 1000.20   1
   7 -11   3 77.5772 425.210   2
  -4  -7  -3-204.091 577.384   1
   7   4   3 331.739 692.985   2
   4   7   2 16794.7 2656.80   1
   7   4   2 16509.9 2367.04   1
   7 -11   2 9569.71 1928.05   2
  -7  -4  -2 18593.6 2540.20   1
  -4  -7  -2 16597.8 2515.42   1
   7   4   1 1243.16 321.014   1
   7 -11   1 1825.90 773.437   2
   4   7   1 2951.10 1220.79   1
  -7  -4  -1 3539.69 1339.33   1
  -4  -7  -1 2667.65 1028.94   1
  -7  -4   0 208813. 9521.79   1
  -4  -7   0 210658. 9648.87   1
   7   4   0 192475. 9131.22   1
   4   7   0 203594. 9622.00   1
  -4  -7   1 663.386 396.262   1
   7   4  -1 1132.87 675.515   1
   4   7  -1 335.403 195.545   1
  -7  -4   1 632.036 495.604   1
  -7  -4   2 5733.51 1444.92   1
  -4  -7   2 6790.88 1583.63   1
   7   4  -2 6569.58 1416.37   1
   4   7  -2 5804.57 1624.70   1
  -7  -4   3 1957.34 667.237   1
  -4  -7   3 2983.16 965.279   1
   7   4  -3 2355.75 1007.95   1
   4   7  -3 3469.33 1075.27   1
  11  -4   3 2021.35 1128.51   2
  -7  -4   4 94337.1 6239.51   1
  -4  -7   4 84311.4 6041.50   1
   7   4  -4 86086.7 6114.89   1
   4   7  -4 93172.6 6293.37   1
  11  -7   4 93697.4 6466.74   2
  -7  -4   5-15.8905 361.403   1
  -4  -7   5 647.340 586.046   1
   7   4  -5-339.387 546.081   1
   4   7  -5 269.554 404.710   1
  11  -7   5-740.605 708.479   2
  11  -4   5-287.105 583.025   2
  -7  -4   6 3232.21 1176.90   1
  -4  -7   6 3837.52 1274.84   1
   7   4  -6 1942.21 1165.19   1
   4   7  -6 2810.18 1129.66   1
  11  -7   6 2321.38 907.514   2
  11  -4   6 2015.48 1087.63   2
 -11   4  -6 2284.58 1012.89   1
  11  -4   7 9144.65 2030.75   1
  -7  -4   7 7324.10 1804.03   1
   7   4  -7 8767.34 1920.11   1
   4   7  -7 11840.7 2106.27   1
  -4  -7   7 9467.90 2022.27   1
  11  -7   7 10914.2 2158.02   2
 -11   4  -7 7217.23 1730.42   1
  11  -4   7 8308.50 2033.34   2
  11  -4   8 151499. 8886.52   1
 -11   4  -8 119799. 7943.28   1
  -7  -4   8 165279. 8871.72   1
   7   4  -8 190721. 9354.11   1
   4   7  -8 207517. 9643.72   1
  -4  -7   8 190749. 9464.78   1
  11  -7   8 150026. 8729.36   2
  11  -4   8 178136. 9502.15   2
  -4  -7   9 950.832 248.371   1
  11  -4   9 1120.56 793.171   1
  -7  -4   9 360.627 316.788   1
   7   4  -9 559.928 265.713   1
 -11   4  -9 759.773 1031.18   1
   4   7  -9 1221.29 622.268   1
  11  -7   9 150.581 373.942   2
  11  -4   9 2424.61 1073.41   2
  11  -4  10 15194.4 2724.45   1
 -11   4 -10 15707.2 2646.04   1
  -7  -4  10 20582.7 3035.92   1
   7   4 -10 16121.0 2614.70   1
   4   7 -10 18281.5 2803.62   1
  -4  -7  10 20391.5 2893.70   1
  11  -7  10 16873.6 2814.19   2
  11  -4  10 13623.9 2571.72   2
  11  -4  11 1718.59 807.790   1
 -11   4 -11 2219.34 1057.21   1
  -7  -4  11 4695.18 1447.46   1
   7   4 -11 3400.05 1126.53   1
  11  -7  11 2736.55 1015.01   2
   3 -11  11 7158.73 1908.32   1
  -3  11 -11 8005.24 1912.07   1
   3 -11  10 18176.0 3019.89   1
   3   8  10 28325.9 3522.09   1
   8 -11  10 20673.4 3074.46   2
  -3  -8 -10 18628.2 2988.76   1
  -3  11 -10 20264.1 3225.53   1
   3 -11   9 24794.8 3424.83   1
   8   3   9 30493.8 3554.43   1
   3   8   9 27870.6 3487.99   1
   8 -11   9 32716.6 3967.87   2
  -8  -3  -9 32427.6 3624.74   1
  -3  11  -9 28417.2 3711.10   1
  -3  -8  -9 17860.9 2848.52   1
   8   3   9 29292.0 3532.53   2
  -8  -3  -8 965.470 593.185   1
  -3  -8  -8-225.813 222.144   1
   8   3   8 1032.48 427.611   1
   3   8   8 1236.34 716.477   1
   8 -11   8 2198.77 1257.66   2
  -3  11  -8 995.745 748.780   1
   8   3   8 702.465 544.568   2
   8   3   7 42166.2 4240.98   1
   3   8   7 41786.8 4400.99   1
   8 -11   7 40234.1 4282.91   2
  -3  11  -7 49757.5 4775.05   1
  -8  -3  -7 46034.2 4422.84   1
  -3  -8  -7 28049.0 3607.30   1
   8   3   7 43482.7 4271.79   2
   8   3   6 118509. 7162.97   1
   3   8   6 100282. 6806.82   1
   8 -11   6 83232.1 6520.94   2
  -8  -3  -6 115034. 7080.02   1
  -3  -8  -6 102249. 6736.19   1
   8   3   6 92275.5 6286.90   2
   3   8   5 18277.2 2703.18   1
   8   3   5 11651.1 2210.62   1
  -3  -8  -5 13198.9 2356.32   1
   8 -11   5 11651.5 2270.14   2
  -8  -3  -5 18403.8 2725.73   1
   8   3   5 11560.9 2142.86   2
   8   3   4 51134.2 4638.98   1
   3   8   4 42587.3 4289.88   1
   8 -11   4 34628.4 3897.53   2
  -8  -3  -4 46967.1 4315.24   1
   8   3   4 34647.0 3758.69   2
  -3  -8  -4 30600.7 3605.92   1
  -8  -3  -3 4325.75 1350.97   1
   8   3   3 4380.11 1225.14   1
   3   8   3 3246.55 1267.31   1
   8 -11   3 3681.46 1219.13   2
  -3  -8  -3 3742.14 1292.66   1
   8   3   3 4822.73 1473.44   2
  -3  -8  -2 54088.6 4847.08   1
   8   3   2 80467.2 5651.20   1
   3   8   2 72244.4 5520.30   1
   8 -11   2 56393.5 5120.07   2
  -8  -3  -2 81176.4 5614.69   1
   8   3   1 2275.17 1044.79   1
   3   8   1 2256.45 932.089   1
   8 -11   1 1039.65 484.921   2
  -8  -3  -1 1367.33 783.472   1
   8   3   1 536.834 335.563   2
  -3  -8  -1 1823.56 992.747   1
  -3  -8   0 4907.64 1394.53   1
   8   3   0 6799.55 1647.89   1
   3   8   0 6118.45 1576.78   1
  -8  -3   0 6849.87 1653.85   1
   8   3   0 1415.84 958.589   2
  -3  -8   1 14535.1 2481.08   1
   8   3  -1 12872.3 2174.72   1
   3   8  -1 13487.5 2256.24   1
  -8  -3   1 14326.5 2338.63   1
  -8  -3   2 51438.4 4508.64   1
  -3  -8   2 45379.1 4346.97   1
   8   3  -2 39998.4 4083.55   1
   3   8  -2 42032.0 4179.82   1
  -8  -3   3 43050.0 4201.75   1
  -3  -8   3 47851.8 4417.43   1
   8   3  -3 51149.4 4569.81   1
   3   8  -3 48941.6 4406.70   1
 -11   3  -3 49639.5 4644.50   1
  11  -3   3 52832.7 4960.41   2
 -11   3  -4-97.6675 348.837   1
  -8  -3   4 1654.90 931.588   1
  11  -3   4 179.838 544.726   1
  -3  -8   4 1317.00 776.401   1
   8   3  -4 1237.10 732.554   1
   3   8  -4 700.530 504.458   1
  11  -3   4 987.851 677.002   2
  11  -3   5 39627.9 4238.26   1
  -8  -3   5 59458.7 4914.49   1
   8   3  -5 52490.4 4742.79   1
  -3  -8   5 60424.4 4974.51   1
 -11   3  -5 46625.3 4562.64   1
   3   8  -5 43622.2 4300.33   1
  11  -8   5 41487.8 4332.27   2
  11  -3   5 40467.9 4369.84   2
  11  -3   6 89561.0 6469.15   1
  -8  -3   6 96973.6 6597.06   1
   8   3  -6 89614.2 6352.11   1
 -11   3  -6 89005.2 6410.81   1
  -3  -8   6 91471.9 6512.01   1
   3   8  -6 96721.0 6324.58   1
  11  -8   6 77041.8 6102.60   2
  11  -3   6 75211.7 6083.11   2
  11  -3   7 17677.7 2797.70   1
  -8  -3   7 20780.1 2964.23   1
 -11   3  -7 21398.1 3051.07   1
   8   3  -7 19019.9 2830.94   1
   3   8  -7 21490.5 2864.40   1
  -3  -8   7 19859.1 2953.01   1
  11  -8   7 17598.2 2829.44   2
  11  -3   7 18676.8 2932.93   2
  11  -3   8 33063.3 4032.77   1
  -8  -3   8 44308.5 4427.28   1
 -11   3  -8 40732.0 4150.49   1
   8   3  -8 41693.8 4252.70   1
   3   8  -8 41704.8 4210.00   1
  -3  -8   8 43017.1 4293.48   1
  11  -8   8 33282.5 3932.64   2
  11  -3   8 37529.5 4347.32   2
  -3  -8   9 4404.73 1363.63   1
  11  -3   9 3861.40 1352.11   1
  -8  -3   9 3975.15 1311.83   1
   8   3  -9 3552.58 1290.26   1
  11  -8   9 3862.28 1301.09   2
   3   8  -9 5396.20 1448.37   1
 -11   3  -9 3443.54 1199.38   1
  11  -3   9 2776.93 1291.86   2
  11  -3  10 46139.4 4638.84   1
 -11   3 -10 44153.8 4529.91   1
  -8  -3  10 49269.4 4677.54   1
   8   3 -10 40433.8 4350.16   1
  11  -8  10 50279.0 4793.80   2
  11  -3  10 46528.9 4912.52   2
  11  -3  11 1051.13 608.767   1
  -8  -3  11 841.538 631.529   1
   8   3 -11 938.063 581.357   1
 -11   3 -11 516.246 329.911   1
   2 -11  10 11624.5 2387.74   1
  -2  11 -10 15010.5 2761.81   1
   2 -11   9 4636.21 1581.50   1
   9 -11   9 6642.83 1799.87   2
  -2  11  -9 5839.14 1618.28   1
  -9  -2  -8-10.6044 348.369   1
   9   2   8 330.620 602.317   1
   2 -11   8-156.743 549.534   1
   9 -11   8-680.950 413.778   2
  -2  11  -8-420.121 525.177   1
   9   2   8 410.698 595.349   2
  -9  -2  -7 3876.50 1184.74   1
   2 -11   7 3399.64 1308.77   1
   9   2   7 4754.73 1448.64   1
   2   9   7 2299.63 966.671   1
   9 -11   7 3485.16 1238.59   2
  -2  11  -7 4016.05 1369.64   1
   9   2   7 4255.08 1388.34   2
   9   2   6 89342.9 6108.60   1
   2   9   6 75022.7 5973.30   1
  -2  11  -6 72385.2 5850.21   1
   9 -11   6 58774.4 5470.42   2
  -9  -2  -6 96735.3 6482.90   1
   9   2   6 67827.4 5443.82   2
  -2  -9  -6 63038.5 5405.32   1
   9   2   5 94491.7 6298.87   1
   2   9   5 79129.3 5944.41   1
  -2  11  -5 75807.0 5845.18   1
   9 -11   5 55099.9 5154.45   2
  -9  -2  -5 87696.0 6133.72   1
   9   2   5 68008.5 5491.86   2
  -2  -9  -5 67366.4 5491.40   1
   9   2   4 29745.7 3493.36   1
   2   9   4 25429.7 3327.83   1
   9 -11   4 22246.4 3208.26   2
  -9  -2  -4 33305.0 3650.51   1
   9   2   4 26707.2 3210.58   2
  -2  -9  -4 29868.9 3570.36   1
  -2  -9  -3 17685.2 2662.72   1
   9   2   3 20470.0 2937.04   1
   2   9   3 23705.9 3173.72   1
   9 -11   3 14405.7 2612.69   2
  -9  -2  -3 20660.6 2795.33   1
   9   2   3 10204.4 2049.15   2
   9   2   2 106060. 6741.52   1
   2   9   2 92325.0 6388.65   1
  -9  -2  -2 104876. 6642.28   1
   9   2   1 57.6411 410.638   1
  -9  -2  -1-195.055 558.365   1
   2   9   1 925.775 797.296   1
  -2  -9  -1-80.4183 446.020   1
  -2  -9   0 4105.12 1309.10   1
   9   2   0 4804.31 1490.50   1
  -9  -2   0 4660.94 1282.23   1
   2   9   0 3668.89 1056.87   1
   9   2   0 664.162 720.462   2
  -2  -9   1 22397.0 3187.14   1
   9   2  -1 21323.3 2863.74   1
   2   9  -1 23343.9 3087.02   1
 -11   2  -1 22721.7 3057.12   1
  -9  -2   1 20989.3 2922.16   1
  -9  -2   2 28079.1 3331.75   1
  11  -2   2 24348.0 3176.89   1
  -2  -9   2 24901.8 3143.89   1
   9   2  -2 23945.0 3202.78   1
   2   9  -2 25121.1 3163.11   1
 -11   2  -2 32848.7 3778.93   1
  -9  -2   3 33334.2 3760.32   1
  11  -2   3 35217.5 3988.66   1
  -2  -9   3 34882.1 3899.77   1
   9   2  -3 36067.2 3832.80   1
   2   9  -3 36998.6 3890.41   1
 -11   2  -3 40818.6 4165.31   1
  11  -2   3 38116.5 4094.70   2
 -11   2  -4 5647.22 1480.37   1
  11  -2   4 8116.80 1847.74   1
  -2  -9   4 7695.75 1731.26   1
   9   2  -4 5800.63 1555.85   1
   2   9  -4 5621.78 1524.81   1
  11  -2   4 4326.02 1244.55   2
  -9  -2   4 5074.49 1455.55   1
  -9  -2   5 20223.1 3046.35   1
  11  -2   5 23768.0 3302.04   1
   9   2  -5 22943.6 3189.20   1
  -2  -9   5 21994.7 3111.93   1
   2   9  -5 23627.4 3157.35   1
 -11   2  -5 26062.7 3339.99   1
  11  -9   5 17522.9 2816.68   2
  11  -2   5 21207.4 3170.56   2
  -9  -2   6 67324.7 5561.93   1
  11  -2   6 69969.7 5765.28   1
   9   2  -6 61357.1 5388.09   1
 -11   2  -6 62984.7 5373.75   1
   2   9  -6 72485.4 5489.46   1
  11  -9   6 56534.3 5265.00   2
  11  -2   6 69127.3 5914.78   2
 -11   2  -7 9839.53 2014.24   1
  -9  -2   7 12122.3 2334.31   1
  11  -2   7 10853.7 2167.73   1
  -2  -9   7 14214.4 2547.56   1
   9   2  -7 8519.38 1985.10   1
  11  -9   7 8199.24 1909.58   2
  11  -2   7 12805.0 2671.01   2
   2   9  -7 14382.6 2452.03   1
  -2  -9   8 3946.60 1273.68   1
  -9  -2   8 5229.57 1613.07   1
  11  -2   8 2834.45 1119.36   1
   9   2  -8 4474.99 1516.34   1
  11  -9   8 3982.74 1408.64   2
   2   9  -8 5863.16 1603.22   1
  11  -2   8 4348.40 1618.48   2
 -11   2  -8 4261.44 1306.67   1
  -9  -2   9 2123.15 1058.20   1
  11  -2   9 2843.90 1159.24   1
   9   2  -9 1894.86 857.223   1
  11  -9   9 1880.04 1050.92   2
  11  -2   9 1165.42 941.595   2
 -11   2  -9 1795.97 956.472   1
  -9  -2  10 37504.7 4297.96   1
  -1  11  -8 31392.6 3861.33   1
  10 -11   8 27566.2 3675.45   2
   1 -11   8 34778.5 4098.77   1
   1 -11   7 2576.28 1174.08   1
 -10  -1  -7 5731.98 1726.26   1
  10   1   7 4668.05 1492.51   1
  10 -11   7 3501.09 1216.48   2
  -1  11  -7 3362.28 1199.92   1
  10   1   7 3657.25 1409.92   2
 -10  -1  -6 3748.93 1173.89   1
  10   1   6 2805.43 1169.57   1
  10 -11   6 1700.89 1236.21   2
  -1  11  -6 1909.70 999.440   1
  10   1   6 2322.42 1039.84   2
   1 -11   6 1964.07 1062.98   1
 -10  -1  -5 2605.54 1095.11   1
  10   1   5 1663.14 911.170   1
  10 -11   5 1295.41 752.677   2
  -1  11  -5 1916.67 881.840   1
   1 -11   5 809.197 467.287   1
  10   1   5 974.417 616.152   2
  10   1   4 111258. 6919.03   1
  -1  11  -4 99680.9 6823.90   1
 -10  -1  -4 123155. 7459.96   1
 -10  -1  -3-175.048 670.017   1
  10   1   3 950.247 806.712   1
   1  10   3 163.172 554.483   1
  10   1   3 399.596 451.205   2
 -10  -1  -2 180.790 287.580   1
  10   1   2 1221.43 695.701   1
   1  10   2 981.506 671.373   1
  -1 -10  -2 1749.12 931.544   1
  10   1   2 234.054 318.055   2
 -11   1   1 665.518 565.818   1
 -10  -1  -1 1595.88 1250.36   1
  10   1   1 528.140 751.423   1
   1  10   1 1232.18 830.031   1
  10   1   1-11.5060 491.458   2
  -1 -10  -1 1009.27 629.480   1
  11  -1   0 112462. 7253.16   1
  10   1   0 96628.5 6626.55   1
   1  10   0 125298. 7697.53   1
 -11   1   0 114400. 7296.24   1
 -10  -1   0 111752. 7142.11   1
  -1 -10   1 1349.42 880.266   1
 -11   1  -1 1283.74 862.879   1
  11  -1   1 1854.92 1037.03   1
  10   1  -1 1289.10 698.396   1
 -10  -1   1 1066.42 885.209   1
   1  10  -1 1359.92 774.426   1
 -11   1  -2 3668.67 1446.14   1
  -1 -10   2 2052.46 983.535   1
  11  -1   2 3142.12 1211.17   1
  10   1  -2 2345.49 932.837   1
 -10  -1   2 2509.26 1103.29   1
   1  10  -2 3587.71 1324.69   1
 -11   1  -3 2322.03 803.343   1
  -1 -10   3 1944.31 968.350   1
  11  -1   3 3610.23 1328.09   1
  10   1  -3 2856.88 1177.20   1
 -10  -1   3 1945.36 957.818   1
   1  10  -3 3658.11 1282.84   1
  11  -1   3 1150.18 616.537   2
 -10  -1   4 45868.1 4527.63   1
  11  -1   4 46061.2 4628.00   1
  10   1  -4 48314.3 4711.86   1
  -1 -10   4 47761.3 4660.22   1
   1  10  -4 51333.3 4823.28   1
 -11   1  -4 53772.4 4809.26   1
  11  -1   4 41549.0 4510.21   2
 -11   1  -5 1785.23 1052.48   1
  11  -1   5 2379.89 1061.68   1
  10   1  -5 1509.78 807.574   1
  -1 -10   5 1120.44 720.310   1
   1  10  -5 1574.77 875.050   1
 -10  -1   5 1937.52 928.348   1
  11  -1   5 818.337 652.059   2
 -11   1  -6 111.224 241.851   1
  11  -1   6-308.567 501.764   1
  10   1  -6 650.007 603.619   1
  11 -10   6 741.883 734.217   2
   1  10  -6 329.257 616.464   1
  -1 -10   6 726.965 300.812   1
 -10  -1   6 383.141 427.444   1
  11  -1   6-796.450 614.480   2
 -11   1  -7 3853.59 1425.04   1
  11  -1   7 3281.86 1153.62   1
  11 -10   7 2881.79 1284.62   2
   1  10  -7 3048.82 1271.52   1
  11  -1   7 3230.33 1182.72   2
  -1 -10   7 3993.83 1444.98   1
 -10  -1   7 2257.03 1036.72   1
  11  -1   8 61639.7 5410.45   1
 -11   1  -8 69854.4 5628.22   1
 -11   0   0 11446.8 2241.67   1
  11   0   0 11154.3 2237.01   1
 -11   0  -1 3029.49 1105.79   1
 -11   0   1 1981.24 922.361   1
  11   0   1 2644.64 1118.90   1
  11   0  -1 530.689 336.362   1
  11   0   2 36873.8 4109.43   1
  11   0  -2 31124.7 3845.95   1
   0  11  -2 38629.8 4349.16   1
 -11   0  -2 40819.5 4225.84   1
 -11   0   2 35598.4 4013.02   1
  11   0   3 21760.2 3128.19   1
   0  11  -3 22850.7 3275.55   1
 -11   0  -3 22731.7 3149.93   1
  11   0   3 18446.4 2857.13   2
 -11   0   3 14410.2 2618.23   1
 -11   0  -4 8912.99 1867.96   1
  11   0   4 8695.78 1978.53   1
   0 -11   4 5262.42 1584.97   1
   0  11  -4 5732.05 1608.49   1
  11   0   4 5306.55 1448.33   2
  11   0   5 28297.6 3578.99   1
   0 -11   5 22768.2 3296.31   1
   0  11  -5 26185.5 3476.65   1
 -11   0  -5 21941.5 3168.30   1
  11   0   5 18039.4 2956.53   2
   0 -11   6 34363.9 4082.15   1
   0  11  -6 37546.9 4187.95   1
  -6  -6  -7 639.498 912.225   1
   6   6   7-619.046 634.530   1
   6 -12   7 767.907 605.378   2
   6   6   7 75.4900 368.715   2
  -6  -6  -6 16895.8 2548.95   1
   6   6   6 12133.1 2355.03   1
   6 -12   6 10866.3 2158.37   2
  -6  -6  -5 699.571 824.850   1
   6   6   5-7.20425 644.218   1
   6 -12   5 34.6751 409.575   2
   6   6   4 210075. 10037.3   1
  -6  -6  -4 220148. 9950.22   1
   6   6   3-169.344 574.959   1
  -6  -6  -3-748.938 838.236   1
   6   6   2-342.876 426.867   1
  -6  -6  -2-77.7297 217.960   1
   6   6   1 267.058 405.993   1
  -6  -6  -1 150.059 292.874   1
  -6  -6   0 72430.6 5501.13   1
   6   6   0 70315.3 5467.94   1
   6   6  -1-238.119 609.860   1
  -6  -6   1-33.4170 738.012   1
  -6  -6   2 987.118 874.283   1
   6   6  -2 709.578 523.468   1
  -6  -6   3 47.7747 253.233   1
   6   6  -3-424.672 624.381   1
  -6  -6   4 113660. 7079.68   1
   6   6  -4 92317.3 6365.34   1
  -6  -6   5 1344.44 825.238   1
   6   6  -5 891.426 916.888   1
  -6  -6   6 7658.67 1812.14   1
   6   6  -6 5444.94 1517.70   1
  12  -6   6 5372.57 1577.09   2
  -6  -6   7-568.922 622.594   1
   6   6  -7-154.051 332.517   1
  12  -6   7 21.5453 415.618   2
  12  -6   8 108705. 7347.28   2
  -5  -7  -8 6793.61 1769.19   1
   5   7   8 7938.95 1806.66   1
   7   5   7 24823.7 3237.64   1
   5   7   7 29007.0 3441.67   1
   5 -12   7 18076.1 2774.85   2
   7 -12   7 18868.7 2931.20   2
  -7  -5  -7 26962.8 3363.91   1
  -5  -7  -7 32908.6 3697.22   1
   7   5   7 13573.7 2364.91   2
   7   5   6 89391.7 6294.20   1
   5   7   6 75595.1 5761.82   1
   7 -12   6 73302.0 5823.30   2
  -7  -5  -6 78750.2 5744.27   1
  -5  -7  -6 68039.2 5511.25   1
   5   7   5 47691.6 4572.01   1
   7 -12   5 34698.7 4143.63   2
  -7  -5  -5 52413.5 4586.86   1
  -5  -7  -5 43418.8 4222.99   1
  -7  -5  -4 3758.03 1398.87   1
   7   5   4 1345.90 893.793   1
   5   7   4 2492.25 807.981   1
  -5  -7  -4 2873.87 1183.93   1
   7 -12   4 2007.83 1209.10   2
   7   5   4 239.987 633.561   2
   7   5   3 1307.89 626.136   1
   5   7   3 1316.14 816.582   1
  -7  -5  -3 1427.65 878.248   1
   7 -12   3-93.5190 458.251   2
  -5  -7  -3 1088.29 816.614   1
  -5  -7  -2 73891.8 5597.11   1
   7   5   2 66942.5 5411.43   1
   5   7   2 78287.2 5840.77   1
  -7  -5  -2 71350.4 5508.74   1
  -7  -5  -1 16899.8 2713.61   1
   7   5   1 12001.8 2283.86   1
   5   7   1 11547.7 2224.34   1
  -5  -7  -1 15466.6 2498.48   1
   7   5   0 12741.0 2187.30   1
   5   7   0 11864.2 2270.90   1
  -7  -5   0 15188.6 2481.68   1
  -5  -7   0 11811.9 2136.96   1
  -7  -5   1 41811.9 4229.40   1
  -5  -7   1 42603.4 4268.38   1
   7   5  -1 38811.3 4051.35   1
   5   7  -1 45215.6 4452.03   1
  -7  -5   2 30647.7 3513.75   1
  -5  -7   2 30532.5 3518.48   1
   7   5  -2 28184.5 3409.94   1
   5   7  -2 29416.1 3466.58   1
  -7  -5   3 3067.54 1111.33   1
  -5  -7   3 1813.74 782.490   1
   7   5  -3 2813.48 1151.82   1
   5   7  -3 2240.59 844.582   1
  -7  -5   4 3783.43 1273.35   1
  -5  -7   4 4182.04 1468.56   1
   7   5  -4 4293.50 1359.32   1
   5   7  -4 3965.36 1397.50   1
  -7  -5   5 3688.60 1174.38   1
  -5  -7   5 6108.84 1545.10   1
   7   5  -5 3952.21 1316.83   1
   5   7  -5 4500.63 1331.87   1
  -7  -5   6 120499. 7538.32   1
  -5  -7   6 125297. 7568.28   1
   7   5  -6 95227.2 6714.65   1
   5   7  -6 107953. 7026.42   1
  12  -7   6 93989.9 6971.75   2
  12  -5   6 97400.9 7178.21   2
  -7  -5   7 29051.5 3560.68   1
  -5  -7   7 30047.3 3521.80   1
   7   5  -7 28478.0 3497.95   1
   5   7  -7 25705.1 3251.09   1
  12  -7   7 21258.1 3217.12   2
  12  -5   7 20225.6 3202.56   2
  12  -7   8 12209.8 2451.04   2
  12  -5   8 10306.7 2245.69   2
  -4  -8  -8 6018.53 1623.74   1
   4   8   8 6585.69 1684.69   1
   4   8   7 13461.6 2426.71   1
   8 -12   7 13752.8 2669.29   2
  -4  -8  -7 12752.5 2435.70   1
   8   4   6 84789.7 6220.93   1
   4   8   6 89706.4 6491.37   1
  -8  -4  -6 90095.6 6354.21   1
  -4  -8  -6 72599.0 5779.50   1
   8   4   6 83367.3 6060.11   2
  -8  -4  -5 1704.69 1045.73   1
   8   4   5 1838.53 843.457   1
  -4  -8  -5 1521.24 1077.87   1
   4   8   5 2664.10 1062.40   1
   8 -12   5 606.270 297.637   2
   8   4   5 281.760 579.085   2
   8   4   4 21922.5 3151.52   1
   4   8   4 22609.7 3144.46   1
   8 -12   4 12417.0 2431.00   2
  -8  -4  -4 23870.5 3165.78   1
  -4  -8  -4 21182.7 2931.34   1
   8   4   4 13234.6 2422.57   2
   8   4   3 30736.7 3562.86   1
   4   8   3 32774.4 3751.70   1
   8 -12   3 9489.48 2133.38   2
  -8  -4  -3 26262.8 3229.52   1
   8   4   3 9963.73 2238.53   2
  -4  -8  -3 30790.6 3575.22   1
  -4  -8  -2 48173.4 4526.46   1
   8   4   2 51790.2 4574.09   1
   4   8   2 51182.8 4640.60   1
  -8  -4  -2 54981.4 4625.43   1
  -4  -8  -1 23950.3 3143.61   1
   8   4   1 20485.5 2938.32   1
   4   8   1 21214.4 3018.56   1
  -8  -4  -1 21282.7 2941.43   1
   8   4   0 605.513 590.143   1
   4   8   0-343.221 471.875   1
  -8  -4   0-146.667 476.039   1
  -4  -8   0 239.258 523.643   1
   8   4   0-383.397 699.346   2
  -4  -8   1 2644.51 1010.40   1
   8   4  -1 3301.56 1150.58   1
   4   8  -1 4502.52 1445.93   1
  -8  -4   1 5251.68 1628.79   1
  -8  -4   2 50916.3 4716.57   1
  -4  -8   2 52005.9 4803.51   1
   8   4  -2 40563.7 4167.84   1
   4   8  -2 54009.1 4895.10   1
  -8  -4   3 21855.8 3073.05   1
  -4  -8   3 23004.4 3176.34   1
   8   4  -3 29286.8 3467.48   1
   4   8  -3 23570.1 3118.11   1
  -8  -4   4 1765.61 769.031   1
  -4  -8   4 4456.36 1464.72   1
   8   4  -4 2015.39 820.345   1
   4   8  -4 2438.76 996.778   1
  -8  -4   5 32341.8 3778.60   1
  -4  -8   5 40389.1 4194.73   1
   8   4  -5 33765.4 3891.42   1
   4   8  -5 29716.9 3632.57   1
  -8  -4   6 57425.0 5124.76   1
  -4  -8   6 47559.3 4589.27   1
   8   4  -6 37412.6 4135.75   1
   4   8  -6 49572.3 4677.82   1
  12  -4   6 35527.3 4324.21   2
  -8  -4   7 16229.5 2709.76   1
   8   4  -7 11878.6 2285.62   1
  12  -8   7 9517.20 2193.17   2
  12  -4   7 8954.36 2147.76   2
  12  -8   8 29050.0 3759.38   2
  12  -4   8 25265.2 3647.94   2
   3   9   7 707.358 768.506   1
  -3  -9  -6 5057.64 1474.82   1
   3   9   6 5151.29 1481.27   1
   9 -12   6 3760.80 1412.53   2
  -3  -9  -5 1215.44 524.901   1
   3   9   5 1801.84 860.078   1
   9 -12   5 589.681 222.649   2
   9   3   5 1693.03 927.212   2
   9   3   4 165658. 8743.81   1
   3   9   4 158350. 8755.30   1
   9 -12   4 77428.3 6522.67   2
  -9  -3  -4 159768. 8410.72   1
   9   3   4 102490. 6906.15   2
  -3  -9  -4 125230. 7717.13   1
  -9  -3  -3 3531.79 1224.99   1
   9   3   3 3922.79 1278.04   1
   3   9   3 4085.63 1287.79   1
   9 -12   3 2302.65 1045.51   2
  -3  -9  -3 1600.65 646.909   1
   9   3   3 1066.09 544.031   2
  -9  -3  -2-23.1813 395.215   1
   9   3   2-737.613 673.378   1
   3   9   2-24.1593 405.809   1
  -3  -9  -2-937.882 660.600   1
   9   3   2-246.523 376.530   2
   9   3   1 425.165 624.161   1
  -9  -3  -1 460.047 406.606   1
  -3  -9  -1 703.218 682.470   1
   9   3   1-812.952 955.585   2
  -3  -9   0 45734.1 4495.89   1
   9   3   0 56885.9 4961.80   1
   3   9   0 44264.1 4426.64   1
  -9  -3   0 60550.2 4934.81   1
  -3  -9   1-172.666 267.093   1
   9   3  -1-355.834 373.152   1
   3   9  -1 492.104 849.802   1
  -9  -3   1 257.144 347.107   1
   9   3  -1-33.2938 444.804   2
  -3  -9   2 2166.74 888.505   1
   9   3  -2 1622.13 811.036   1
   3   9  -2 1474.57 1007.17   1
  -9  -3   2 1836.25 854.322   1
  -3  -9   3 278.614 243.508   1
   9   3  -3-555.033 512.985   1
   3   9  -3 83.0906 276.676   1
  -9  -3   3 113.545 281.349   1
  -9  -3   4 97860.3 6644.81   1
  -3  -9   4 87251.0 6328.37   1
   9   3  -4 77507.4 6019.39   1
   3   9  -4 95619.8 6563.73   1
  -3  -9   5 1725.39 788.274   1
   9   3  -5 455.556 474.700   1
   3   9  -5 49.0653 427.460   1
  12  -3   5 1173.81 772.884   2
  -9  -3   5 1013.37 925.486   1
  -9  -3   6 299.647 565.121   1
   9   3  -6 140.307 227.635   1
  12  -3   6 984.304 630.701   2
  12  -3   7 603.133 726.109   2
   2  10   4 3853.00 1465.65   1
  10   2   4 2342.57 962.156   2
   2  10   3 35362.4 4029.23   1
  -2 -10  -3 36037.2 4190.38   1
  -2 -10  -2 45171.1 4700.26   1
  10   2   2 59053.8 4991.71   1
   2  10   2 47549.4 4727.34   1
 -10  -2  -2 54787.0 4864.04   1
  10   2   1 16233.9 2659.24   1
   2  10   1 13305.0 2465.78   1
 -10  -2  -1 21571.6 3094.58   1
  -2 -10  -1 13090.8 2471.46   1
 -10  -2   0 6256.76 1689.67   1
  10   2   0 5314.66 1410.64   1
   2  10   0 4010.63 1393.51   1
  -2 -10   0 2273.72 947.225   1
  -2 -10   1 1.96912 246.719   1
  10   2  -1 366.844 588.083   1
 -10  -2   1-364.525 395.251   1
   2  10  -1-186.763 338.729   1
  -2 -10   2 26476.3 3519.43   1
  10   2  -2 28673.6 3586.27   1
   2  10  -2 33242.2 3902.80   1
 -10  -2   2 34242.8 3941.19   1
  -2 -10   3 4314.04 1479.94   1
  10   2  -3 5067.42 1479.12   1
   2  10  -3 6114.48 1498.37   1
 -10  -2   3 5506.46 1566.88   1
  10   2  -4 12635.9 2389.81   1
   2  10  -4 10184.8 2068.73   1
 -10  -2   4 9977.12 2122.18   1
  10   2  -5 12547.0 2388.94   1
 -10  -2   5 14903.6 2568.05   1
   0   0   0    0.00    0.00   0


;
_shelx_hkl_checksum              32366
loop_
_space_group_symop_operation_xyz
'x, y, z'
'-y, x-y, z'
'-x+y, -x, z'
'-y, -x, -z+1/2'
'-x+y, y, -z+1/2'
'x, x-y, -z+1/2'
'-x, -y, -z'
'y, -x+y, -z'
'x-y, x, -z'
'y, x, z-1/2'
'x-y, -y, z-1/2'
'-x, -x+y, z-1/2'
loop_
_atom_site_label
_atom_site_type_symbol
_atom_site_fract_x
_atom_site_fract_y
_atom_site_fract_z
_atom_site_U_iso_or_equiv
_atom_site_adp_type
_atom_site_occupancy
_atom_site_site_symmetry_order
_atom_site_calc_flag
_atom_site_refinement_flags_posn
_atom_site_refinement_flags_adp
_atom_site_refinement_flags_occupancy
Mn2 Mn 0.6667 0.3333 0.2500 0.01866(17) Uani 1 6 d S T P
Fe1 Fe 1.0000 0.0000 0.0000 0.01847(17) Uani 1 6 d S T P
O1 O 0.8891(2) 0.3421(2) 0.16601(12) 0.0360(4) Uani 1 1 d . . .
O2 O 1.01562(18) 0.20818(19) 0.08185(10) 0.0287(3) Uani 1 1 d . . .
C1 C 0.8788(3) 0.2113(3) 0.11862(13) 0.0283(3) Uani 1 1 d . . .
H1 H 0.7612 0.1075 0.1095 0.061(11) Uiso 1 1 calc R . .
C2 C 1.3333 0.6667 0.158(2) 0.34(3) Uani 1 3 d S T P
N1 N 1.2805(8) 0.5609(15) 0.2500 0.204(17) Uani 0.3333 2 d S T P
loop_
_atom_site_aniso_label
_atom_site_aniso_U_11
_atom_site_aniso_U_22
_atom_site_aniso_U_33
_atom_site_aniso_U_23
_atom_site_aniso_U_13
_atom_site_aniso_U_12
Mn2 0.0169(2) 0.0169(2) 0.0221(3) 0.000 0.000 0.00846(10)
Fe1 0.0164(2) 0.0164(2) 0.0226(3) 0.000 0.000 0.00820(10)
O1 0.0291(7) 0.0288(7) 0.0482(8) -0.0089(6) 0.0095(6) 0.0131(5)
O2 0.0258(6) 0.0264(6) 0.0358(7) -0.0051(5) 0.0026(5) 0.0145(5)
C1 0.0254(7) 0.0274(8) 0.0337(8) -0.0058(6) 0.0008(6) 0.0144(6)
C2 0.037(2) 0.037(2) 0.95(8) 0.000 0.000 0.0187(11)
N1 0.051(6) 0.019(4) 0.53(5) 0.000 -0.117(16) 0.009(2)
loop_
_atom_type_symbol
_atom_type_description
_atom_type_scat_dispersion_real
_atom_type_scat_dispersion_imag
_atom_type_scat_source
C C 0.0030 0.0010 'International Tables Vol C Tables 4.2.6.8 and 6.1.1.4'
H H 0.0000 0.0000 'International Tables Vol C Tables 4.2.6.8 and 6.1.1.4'
N N 0.0050 0.0030 'International Tables Vol C Tables 4.2.6.8 and 6.1.1.4'
O O 0.0090 0.0050 'International Tables Vol C Tables 4.2.6.8 and 6.1.1.4'
Fe Fe 0.3380 0.7620 'International Tables Vol C Tables 4.2.6.8 and 6.1.1.4'
Mn Mn 0.3240 0.6570 'International Tables Vol C Tables 4.2.6.8 and 6.1.1.4'
loop_
_geom_angle_atom_site_label_1
_geom_angle_atom_site_label_2
_geom_angle_atom_site_label_3
_geom_angle
_geom_angle_site_symmetry_1
_geom_angle_site_symmetry_3
O1 Mn2 O1 89.17(9) . 4_665
O1 Mn2 O1 84.28(8) . 6
O1 Mn2 O1 93.32(6) 4_665 6
O1 Mn2 O1 93.32(6) . 3_665
O1 Mn2 O1 84.28(8) 4_665 3_665
O1 Mn2 O1 176.64(8) 6 3_665
O1 Mn2 O1 93.32(6) . 2_655
O1 Mn2 O1 176.64(8) 4_665 2_655
O1 Mn2 O1 89.17(9) 6 2_655
O1 Mn2 O1 93.32(6) 3_665 2_655
O1 Mn2 O1 176.64(8) . 5_655
O1 Mn2 O1 93.32(6) 4_665 5_655
O1 Mn2 O1 93.32(6) 6 5_655
O1 Mn2 O1 89.17(9) 3_665 5_655
O1 Mn2 O1 84.28(8) 2_655 5_655
O2 Fe1 O2 180.0 . 7_755
O2 Fe1 O2 88.76(6) . 9_545
O2 Fe1 O2 91.24(6) 7_755 9_545
O2 Fe1 O2 91.24(6) . 3_765
O2 Fe1 O2 88.76(6) 7_755 3_765
O2 Fe1 O2 180.00(9) 9_545 3_765
O2 Fe1 O2 91.24(6) . 2_645
O2 Fe1 O2 88.76(6) 7_755 2_645
O2 Fe1 O2 88.76(6) 9_545 2_645
O2 Fe1 O2 91.24(6) 3_765 2_645
O2 Fe1 O2 88.76(6) . 8_665
O2 Fe1 O2 91.24(6) 7_755 8_665
O2 Fe1 O2 91.24(6) 9_545 8_665
O2 Fe1 O2 88.76(6) 3_765 8_665
O2 Fe1 O2 180.00(10) 2_645 8_665
C1 O1 Mn2 125.31(13) . .
C1 O2 Fe1 125.11(12) . .
O1 C1 O2 124.67(18) . .
N1 C2 N1 52.5(13) 2_755 .
N1 C2 N1 52.5(13) 2_755 3_775
N1 C2 N1 52.5(13) . 3_775
N1 N1 N1 60.0 2_755 3_775
N1 N1 C2 63.8(6) 2_755 4_775
N1 N1 C2 63.8(6) 3_775 4_775
N1 N1 C2 63.8(6) 2_755 .
N1 N1 C2 63.8(6) 3_775 .
C2 N1 C2 118.6(16) 4_775 .
loop_
_geom_bond_atom_site_label_1
_geom_bond_atom_site_label_2
_geom_bond_distance
_geom_bond_site_symmetry_2
Mn2 O1 2.1489(14) .
Mn2 O1 2.1489(14) 4_665
Mn2 O1 2.1489(14) 6
Mn2 O1 2.1489(14) 3_665
Mn2 O1 2.1489(14) 2_655
Mn2 O1 2.1489(14) 5_655
Fe1 O2 2.0131(13) .
Fe1 O2 2.0131(13) 7_755
Fe1 O2 2.0131(13) 9_545
Fe1 O2 2.0131(13) 3_765
Fe1 O2 2.0131(13) 2_645
Fe1 O2 2.0131(13) 8_665
O1 C1 1.233(2) .
O2 C1 1.254(2) .
C2 N1 1.48(3) 2_755
C2 N1 1.48(3) .
C2 N1 1.48(3) 3_775
N1 N1 1.312(19) 2_755
N1 N1 1.312(19) 3_775
N1 C2 1.48(3) 4_775
