#------------------------------------------------------------------------------
#$Date: 2017-03-04 03:43:09 +0200 (Sat, 04 Mar 2017) $
#$Revision: 192917 $
#$URL: file:///home/coder/svn-repositories/cod/cif/4/34/53/4345353.cif $
#------------------------------------------------------------------------------
#
# This file is available in the Crystallography Open Database (COD),
# http://www.crystallography.net/
#
# All data on this site have been placed in the public domain by the
# contributors.
#
data_4345353
loop_
_publ_author_name
'Marinho, Maria Vanda'
'Reis, Daniella O.'
'Oliveira, Willian X. C.'
'Marques, Lippy F.'
'Stumpf, Humberto O.'
'D\'eniz, Mariadel'
'Pas\'an, Jorge'
'Ruiz-P\'erez, Catalina'
'Cano, Joan'
'Lloret, Francesc'
'Julve, Miguel'
_publ_section_title
;
 Photoluminescent and Slow Magnetic Relaxation Studies on
 Lanthanide(III)-2,5-pyrazinedicarboxylate Frameworks.
;
_journal_issue                   4
_journal_name_full               'Inorganic chemistry'
_journal_page_first              2108
_journal_page_last               2123
_journal_paper_doi               10.1021/acs.inorgchem.6b02774
_journal_volume                  56
_journal_year                    2017
_chemical_formula_sum            'C9 H13 N3 O11 Pr'
_chemical_formula_weight         480.05
_chemical_name_systematic
;
 ?
;
_space_group_crystal_system      triclinic
_space_group_IT_number           2
_space_group_name_Hall           '-P 1'
_space_group_name_H-M_alt        'P -1'
_symmetry_space_group_name_Hall  '-P 1'
_symmetry_space_group_name_H-M   'P -1'
_atom_sites_solution_hydrogens   geom
_audit_creation_method           SHELXL-2013
_cell_angle_alpha                72.398(7)
_cell_angle_beta                 88.980(6)
_cell_angle_gamma                89.043(6)
_cell_formula_units_Z            2
_cell_length_a                   6.0820(5)
_cell_length_b                   10.5091(8)
_cell_length_c                   13.6280(10)
_cell_measurement_reflns_used    5500
_cell_measurement_temperature    293(2)
_cell_measurement_theta_max      73.46
_cell_measurement_theta_min      3.40
_cell_volume                     830.08(12)
_computing_cell_refinement
;
CrysAlisPro, Agilent Technologies,
Version 1.171.37.31f (release 05-03-2014 CrysAlis171 .NET)
(compiled Mar  5 2014,18:34:03)
;
_computing_data_collection
;
CrysAlisPro, Agilent Technologies,
Version 1.171.37.31f (release 05-03-2014 CrysAlis171 .NET)
(compiled Mar  5 2014,18:34:03)
;
_computing_data_reduction
;
CrysAlisPro, Agilent Technologies,
Version 1.171.37.31f (release 05-03-2014 CrysAlis171 .NET)
(compiled Mar  5 2014,18:34:03)
;
_computing_structure_refinement  'SHELXL-2013 (Sheldrick, 2013)'
_computing_structure_solution    'SHELXS-97 (Sheldrick, 1997)'
_diffrn_ambient_temperature      293(2)
_diffrn_detector                 'CCD plate'
_diffrn_detector_area_resol_mean 10.5953
_diffrn_detector_type            Atlas
_diffrn_measured_fraction_theta_full 0.997
_diffrn_measured_fraction_theta_max 0.966
_diffrn_measurement_device_type  'SuperNova, Dual, Cu at zero, Atlas'
_diffrn_measurement_method       'w scans'
_diffrn_radiation_monochromator  mirror
_diffrn_radiation_type           CuK\a
_diffrn_radiation_wavelength     1.5418
_diffrn_reflns_av_R_equivalents  0.0301
_diffrn_reflns_av_unetI/netI     0.0356
_diffrn_reflns_Laue_measured_fraction_full 0.997
_diffrn_reflns_Laue_measured_fraction_max 0.966
_diffrn_reflns_limit_h_max       5
_diffrn_reflns_limit_h_min       -7
_diffrn_reflns_limit_k_max       12
_diffrn_reflns_limit_k_min       -12
_diffrn_reflns_limit_l_max       15
_diffrn_reflns_limit_l_min       -16
_diffrn_reflns_number            5500
_diffrn_reflns_point_group_measured_fraction_full 0.997
_diffrn_reflns_point_group_measured_fraction_max 0.966
_diffrn_reflns_theta_full        67.680
_diffrn_reflns_theta_max         73.464
_diffrn_reflns_theta_min         3.403
_diffrn_source                   'sealed X-ray tube'
_exptl_absorpt_coefficient_mu    23.100
_exptl_absorpt_correction_T_max  0.687
_exptl_absorpt_correction_T_min  0.024
_exptl_absorpt_correction_type   gaussian
_exptl_absorpt_process_details
;
CrysAlisPro, Agilent Technologies,
Version 1.171.35.21 (release 20-01-2012 CrysAlis171 .NET)
(compiled Jan 23 2012,18:06:46)
Numerical absorption correction based on gaussian integration over
            a multifaceted crystal model
;
_exptl_crystal_colour            yellow
_exptl_crystal_density_diffrn    1.921
_exptl_crystal_description       Needle
_exptl_crystal_F_000             450
_exptl_crystal_size_max          0.550
_exptl_crystal_size_mid          0.040
_exptl_crystal_size_min          0.040
_refine_diff_density_max         1.419
_refine_diff_density_min         -1.267
_refine_diff_density_rms         0.187
_refine_ls_extinction_method     none
_refine_ls_goodness_of_fit_ref   1.096
_refine_ls_hydrogen_treatment    constr
_refine_ls_matrix_type           full
_refine_ls_number_parameters     227
_refine_ls_number_reflns         3227
_refine_ls_number_restraints     0
_refine_ls_restrained_S_all      1.096
_refine_ls_R_factor_all          0.0382
_refine_ls_R_factor_gt           0.0372
_refine_ls_shift/su_max          0.001
_refine_ls_shift/su_mean         0.000
_refine_ls_structure_factor_coef Fsqd
_refine_ls_weighting_details
'w=1/[\s^2^(Fo^2^)+(0.0727P)^2^+0.7415P] where P=(Fo^2^+2Fc^2^)/3'
_refine_ls_weighting_scheme      calc
_refine_ls_wR_factor_gt          0.1013
_refine_ls_wR_factor_ref         0.1029
_reflns_Friedel_coverage         0.000
_reflns_number_gt                3124
_reflns_number_total             3227
_reflns_threshold_expression     'I > 2\s(I)'
_cod_data_source_file            ic6b02774_si_001.cif
_cod_data_source_block           compound2
_cod_database_code               4345353
_shelx_space_group_comment
;
The symmetry employed for this shelxl refinement is uniquely defined
by the following loop, which should always be used as a source of
symmetry information in preference to the above space-group names.
They are only intended as comments.
;
_shelx_estimated_absorpt_t_min   0.028
_shelx_estimated_absorpt_t_max   0.458
_shelxl_version_number           2013-4
_shelx_res_file
;
TITL ull2373 in P -1
CELL  1.54180   6.0820  10.5091  13.6280   72.398   88.980   89.043
ZERR     2.00   0.0005   0.0008   0.0010    0.007    0.006    0.006
LATT   1
SFAC  C    H    N    PR   O
UNIT  18   6    6    2    22
MERG   2
FMAP   2
PLAN   20
SIZE     0.040   0.040   0.550
ACTA
BOND
L.S.  30
TEMP    20.00
WGHT    0.072700    0.741500
FVAR       7.43482   0.56460
PR1   4    0.251277    0.660558    0.708778    11.00000    0.01716    0.02685 =
         0.01464   -0.00444    0.00154    0.00292
N1    3    0.078172    0.887021    0.575521    11.00000    0.02083    0.03219 =
         0.02336   -0.00173    0.00206    0.00242
N2    3    0.433984    0.556858    0.898414    11.00000    0.02920    0.03372 =
         0.01727   -0.00442    0.00194   -0.00027
N3    3    0.089555    0.572185    0.558159    11.00000    0.01606    0.03791 =
         0.02200   -0.00914   -0.00060    0.00137
O1    5    0.453369    0.771156    0.547164    11.00000    0.02689    0.03806 =
         0.02648    0.00218    0.00471    0.00560
O3    5    0.063312    0.698187    0.856756    11.00000    0.03281    0.05646 =
         0.02411   -0.01489   -0.00319    0.01070
O5    5   -0.154152    0.641366    0.699190    11.00000    0.02032    0.04321 =
         0.02677   -0.01549    0.00262    0.00257
O2    5    0.502806    0.911280    0.389773    11.00000    0.04161    0.04296 =
         0.03287    0.00211    0.01488    0.01079
O4    5   -0.001871    0.679197    1.020848    11.00000    0.05120    0.06979 =
         0.02358   -0.01077    0.00762    0.02066
O6    5   -0.439938    0.523911    0.675371    11.00000    0.01715    0.03516 =
         0.02711   -0.00831    0.00592    0.00217
O1W   5    0.153789    0.418133    0.781788    11.00000    0.04069    0.03380 =
         0.02891   -0.00618    0.00761   -0.00431
O2W   5    0.437943    0.846458    0.747147    11.00000    0.05057    0.03652 =
         0.03581   -0.00701    0.00067   -0.01508
C1    1    0.400024    0.868227    0.472979    11.00000    0.02327    0.03002 =
         0.02551   -0.00622    0.00316    0.00014
C2    1    0.186653    0.939976    0.486108    11.00000    0.02122    0.03023 =
         0.02351   -0.00378    0.00105    0.00133
C3    1   -0.109038    0.947396    0.588976    11.00000    0.02877    0.03597 =
         0.02200   -0.00137    0.00500    0.00058
AFIX  43
H3    2   -0.189550    0.913665    0.649735    11.00000   -1.20000
AFIX   0
C4    1    0.109570    0.657760    0.950596    11.00000    0.02876    0.03754 =
         0.02155   -0.00758    0.00423    0.00170
C5    1    0.318314    0.573238    0.977325    11.00000    0.02262    0.03256 =
         0.02203   -0.00540    0.00218   -0.00147
C6    1    0.617557    0.482725    0.921313    11.00000    0.03098    0.04078 =
         0.01849   -0.00745    0.00339    0.00429
AFIX  43
H6    2    0.703676    0.468420    0.868473    11.00000   -1.20000
AFIX   0
C7    1   -0.246885    0.567706    0.656243    11.00000    0.01849    0.02921 =
         0.01596   -0.00375   -0.00128    0.00531
C8    1   -0.117166    0.528908    0.574572    11.00000    0.01344    0.03740 =
         0.01759   -0.00772    0.00122    0.00154
C9    1   -0.204904    0.456546    0.514803    11.00000    0.01842    0.03912 =
         0.02290   -0.01191    0.00130    0.00029
AFIX  43
H9    2   -0.349390    0.427670    0.526840    11.00000   -1.20000
AFIX   0
O6W   5    0.624968    0.840103    0.928457    11.00000    0.10690    0.09282 =
         0.11559   -0.04890   -0.06459    0.03706
O5W   5    0.008667    1.018645    0.835963    10.50000    0.20659    0.12663 =
         0.17272    0.01483    0.10156   -0.04347
O3W   5    0.173042    0.228247    0.683897    11.00000    0.26717    0.09896 =
         0.26290   -0.10002    0.18948   -0.05017
O4W   5   -0.379612    1.171019    0.868128    10.50000    0.18939    0.30211 =
         0.49190   -0.31803    0.05706   -0.04653
HKLF    4

REM  ull2373 in P -1
REM R1 =  0.0372 for    3124 Fo > 4sig(Fo)  and  0.0382 for all    3227 data
REM    227 parameters refined using      0 restraints

END

WGHT      0.0727      0.7415

REM Highest difference peak  1.419,  deepest hole -1.267,  1-sigma level  0.187
Q1    1   0.3574  0.1978  0.7639  11.00000  0.05    1.42
Q2    1   0.1340  0.6836  0.8068  11.00000  0.05    0.80
Q3    1  -0.3234  1.2335  0.7637  11.00000  0.05    0.79
Q4    1   0.1082  0.6042  0.6197  11.00000  0.05    0.76
Q5    1   0.2593  0.6272  0.6628  11.00000  0.05    0.76
Q6    1   0.3958  0.7207  0.7991  11.00000  0.05    0.75
Q7    1  -0.0127  0.9843  0.8179  11.00000  0.05    0.75
Q8    1  -0.2886  1.0647  0.9811  11.00000  0.05    0.75
Q9    1   0.3855  0.6513  0.6524  11.00000  0.05    0.71
Q10   1  -0.0315  1.0624  0.8951  11.00000  0.05    0.71
Q11   1   0.2335  0.6979  0.7598  11.00000  0.05    0.68
Q12   1   0.1088  0.3833  0.8479  11.00000  0.05    0.65
Q13   1  -0.1736  1.1321  0.8337  11.00000  0.05    0.63
Q14   1  -0.0326  0.6218  0.6050  11.00000  0.05    0.63
Q15   1   0.0921  1.0005  0.8432  11.00000  0.05    0.62
Q16   1   0.1076  0.5879  0.6767  11.00000  0.05    0.62
Q17   1   0.0571  0.9928  0.8955  11.00000  0.05    0.61
Q18   1   0.1766  0.3550  0.7580  11.00000  0.05    0.59
Q19   1  -0.6151  0.6152  0.6064  11.00000  0.05    0.59
Q20   1   0.2384  0.7525  0.8599  11.00000  0.05    0.59
;
_shelx_res_checksum              41599
_shelx_hkl_file
;
  -7  -5  -3 684.573 207.140   9
  -7  -5  -2 23180.9 1020.72   9
  -7  -4  -5 31325.5 2038.03   9
  -7  -4  -4-1335.98 607.609   9
  -7  -4  -3 35760.8 1799.28   9
  -7  -4  -2 13679.3 1026.00   9
  -7  -4  -1 23613.5 1258.14   9
  -7  -4   0 36814.0 1439.08   9
  -7  -4   1 19365.5 952.883   9
  -7  -3  -5 623.261 537.922   9
  -7  -3  -4 59224.0 3352.40   9
  -7  -3  -3 34426.4 2233.68   9
  -7  -3  -2 25626.1 1742.45   9
  -7  -3  -1 78654.7 2748.48   9
  -7  -3   0 60.2634 235.233   9
  -7  -3   1 82520.2 2372.17   9
  -7  -3   2 6904.58 665.598   9
  -7  -2  -5 22696.1 1270.21   9
  -7  -2  -5 26260.2 1082.90  16
  -7  -2  -4 51581.9 1743.58  16
  -7  -2  -4 48919.8 2275.64   9
  -7  -2  -3 11222.8 1137.29   9
  -7  -2  -3 8644.25 771.429  16
  -7  -2  -2 74439.7 2332.16  16
  -7  -2  -2 109292. 3446.84   9
  -7  -2  -1 7950.45 764.419  16
  -7  -2  -1 11797.7 1097.85   9
  -7  -2   0 63764.1 2399.05   9
  -7  -2   0 47854.3 1929.25  16
  -7  -2   1 29767.8 1577.82   9
  -7  -2   2 33901.0 1578.30   9
  -7  -1  -5 56030.4 2109.69  16
  -7  -1  -4 287.593 300.998  16
  -7  -1  -3 72320.0 2362.03   9
  -7  -1  -3 66332.9 2513.81  16
  -7  -1  -2 25219.2 1476.06   9
  -7  -1  -2 20943.9 1420.74  16
  -7  -1  -1 29988.0 1611.11   9
  -7  -1  -1 26992.4 1573.62  16
  -7  -1   0 76353.5 2556.79   9
  -7  -1   0 66951.0 2473.71  16
  -7  -1   1 5113.28 679.510   9
  -7  -1   1 4896.24 685.217  16
  -7  -1   2 96996.0 2726.16   9
  -7  -1   3 18027.4 1139.41   9
  -7  -1   4 30555.6 1277.09   6
  -7   0  -6 61563.9 2206.15  16
  -7   0  -5 4870.05 803.017  16
  -7   0  -4 33604.9 2130.00  16
  -7   0  -3 65085.3 2824.81  16
  -7   0  -2 5229.89 782.320  16
  -7   0  -1 47895.3 1826.24   9
  -7   0  -1 52790.4 2342.18  16
  -7   0   0 805.223 256.674   9
  -7   0   0 1193.24 427.491  16
  -7   0   1 82541.5 2779.51  16
  -7   0   1 74129.8 2350.33   9
  -7   0   2 38615.5 1695.88   9
  -7   0   2 38473.6 1890.47  16
  -7   0   4 82410.1 2295.54   6
  -7   0   5 246.451 177.551   6
  -7   1  -4 71594.8 3957.54  16
  -7   1  -3-1617.40 887.764  16
  -7   1  -2 100661. 3586.04  16
  -7   1  -1 12120.8 1184.24  16
  -7   1   0 40379.2 2027.85  16
  -7   1   1 41939.5 1634.42   9
  -7   1   1 53002.2 2230.79  16
  -7   1   2 5273.39 719.442  16
  -7   1   3 77116.6 2592.30  16
  -7   1   4-55.3975 211.786   6
  -7   1   5 67077.1 2306.26   6
  -7   2  -4 5645.30 739.940  16
  -7   2  -3 46416.5 1842.87  18
  -7   2  -3 56426.6 2367.36  16
  -7   2  -2 24704.8 1534.33  16
  -7   2  -1 46924.4 2073.63  16
  -7   2   0 83555.6 2689.22  16
  -7   2   1 123.643 260.619  16
  -7   2   2 58001.6 2100.39  16
  -7   2   2 47563.6 1849.28   6
  -7   2   3 11751.1 953.315  16
  -7   2   3 12693.9 1004.37   6
  -7   2   4 65226.3 2305.56   6
  -7   2   5 38729.5 1847.36   6
  -7   2   6 2560.46 365.752   6
  -7   3  -3 29724.2 1248.28  16
  -7   3  -2 12368.3 868.773  16
  -7   3  -1 72624.4 2128.25  16
  -7   3   0 1571.97 347.811  16
  -7   3   1 57429.5 1860.37  16
  -7   3   1 45998.8 1753.66   6
  -7   3   2 25276.9 1210.65  16
  -7   3   2 22880.0 1324.82   6
  -7   3   3 19639.8 1306.65   6
  -7   3   4 54435.8 2237.60   6
  -7   3   5 7750.63 703.757   6
  -7   4   1 40905.9 1219.53  16
  -6  -7  -7 32556.4 1317.69   9
  -6  -7  -6 22325.1 1156.23   9
  -6  -7  -5 5257.01 577.845   9
  -6  -7  -4 40353.7 1539.62   9
  -6  -7  -3-291.237 201.111   9
  -6  -7  -2 20417.2 953.630   9
  -6  -7  -2 14358.0 1152.32  15
  -6  -7  -1 7455.54 781.319  15
  -6  -7   0 13735.0 1002.20  15
  -6  -7   1 22442.4 1190.79  15
  -6  -6  -9 25877.0 1171.67   9
  -6  -6  -8 13555.3 1068.41   9
  -6  -6  -7 22286.9 1506.61   9
  -6  -6  -6 1488.05 430.790   9
  -6  -6  -5 45315.4 2190.92   9
  -6  -6  -4 15577.9 1244.82   9
  -6  -6  -3 27903.0 1592.55   9
  -6  -6  -2 24603.7 1422.51   9
  -6  -6  -2 18537.5 1816.52  15
  -6  -6  -1 4985.92 803.535  15
  -6  -6  -1 6535.79 691.897   9
  -6  -6   0 73247.7 2069.98   9
  -6  -6   0 70929.6 2815.05  15
  -6  -6   1 1768.73 449.842  15
  -6  -6   1 1372.52 264.986   9
  -6  -6   2 39806.3 1795.40  15
  -6  -6   3 11519.3 908.699  15
  -6  -5  -9 2342.23 499.244   9
  -6  -5  -8 83647.3 3516.04   9
  -6  -5  -7-210.365 718.953   9
  -6  -5  -6 26968.5 2171.07   9
  -6  -5  -5 23273.2 1907.03   9
  -6  -5  -4 17892.1 1596.64   9
  -6  -5  -3 61330.4 2789.05   9
  -6  -5  -2 720.650 437.174   9
  -6  -5  -1 66954.4 2588.78   9
  -6  -5   0 25765.4 1891.43  15
  -6  -5   0 24188.9 1454.67   9
  -6  -5   1 32809.2 1560.43   9
  -6  -5   1 36315.5 2120.66  15
  -6  -5   2 32673.3 1407.66   9
  -6  -5   2 34769.9 1942.62  15
  -6  -5   3 13818.0 821.459   9
  -6  -5   3 14701.8 1178.64  15
  -6  -5   4 65775.4 2263.14  15
  -6  -5   5 423.253 218.674  15
  -6  -4  -9 40714.0 2001.19   9
  -6  -4  -8 36644.9 2984.89   9
  -6  -4  -7 10395.2 3236.46   9
  -6  -4  -6 41584.6 3815.15   9
  -6  -4  -5 5578.69 1035.19   9
  -6  -4  -4 83294.1 4031.32   9
  -6  -4  -3 4653.06 879.939   9
  -6  -4  -2 49654.0 2665.10   9
  -6  -4  -1 25680.2 1841.78   9
  -6  -4   0 34498.8 1961.86   9
  -6  -4   1 74487.1 3018.90  15
  -6  -4   1 70257.0 2615.15   9
  -6  -4   2-55.8002 307.665   9
  -6  -4   2-172.256 325.557  15
  -6  -4   3 47799.4 1845.70   9
  -6  -4   3 49689.2 2287.95  15
  -6  -4   4 9118.55 753.750   9
  -6  -4   4 8865.77 954.490  15
  -6  -4   5 39353.2 1807.82  15
  -6  -4   6 16081.0 1027.80  15
  -6  -3  -9 23698.7 1300.47   9
  -6  -3  -8 2916.63 701.682   9
  -6  -3  -7 63186.6 4000.41   9
  -6  -3  -6 24.3017 1407.39   9
  -6  -3  -5 92258.4 4736.47   9
  -6  -3  -4 18954.4 1939.49   9
  -6  -3  -3 43439.0 2787.17   9
  -6  -3  -3 30272.8 1688.15  16
  -6  -3  -2 56247.4 2306.21  16
  -6  -3  -2 78670.5 3547.42   9
  -6  -3  -1 2351.48 487.075  16
  -6  -3  -1 4470.30 872.475   9
  -6  -3   0 45278.9 2403.29   9
  -6  -3   0 36531.9 1856.58  16
  -6  -3   1 15053.7 1227.85  16
  -6  -3   1 16730.0 1398.72   9
  -6  -3   2 108542. 3332.51   9
  -6  -3   3 61374.9 2595.29  15
  -6  -3   3 65288.9 2406.38   9
  -6  -3   4 7267.13 787.311   9
  -6  -3   4 7016.42 867.793  15
  -6  -3   5 42512.4 1980.44  15
  -6  -3   6 1418.26 364.158  15
  -6  -3   7 37619.5 1523.80  15
  -6  -2  -9 1922.26 563.104  18
  -6  -2  -8 19695.9 2637.79  18
  -6  -2  -8 23449.5 1377.14   9
  -6  -2  -7 799.863 320.614   9
  -6  -2  -7 1117.52 708.287  18
  -6  -2  -6 65560.4 3288.48   9
  -6  -2  -5 27408.0 2216.31   9
  -6  -2  -4 22954.9 1971.59   9
  -6  -2  -3 76040.3 3479.14   9
  -6  -2  -2 1119.25 489.919   9
  -6  -2  -1 83557.2 3361.75   9
  -6  -2  -1 74814.9 2937.18  16
  -6  -2   0 18853.3 1579.30   9
  -6  -2   0 17754.2 1410.20  16
  -6  -2   1 66332.7 2674.54  16
  -6  -2   1 67104.4 2831.36   9
  -6  -2   2 19759.7 1487.09  16
  -6  -2   2 19323.6 1461.07   9
  -6  -2   3 15121.0 1248.25   9
  -6  -2   3 15545.6 1356.26  16
  -6  -2   4 127043. 3585.46  15
  -6  -2   4 129701. 3478.41   9
  -6  -2   5 3194.46 596.000   9
  -6  -2   5 2236.71 505.967  15
  -6  -2   6 49044.4 2043.70  15
  -6  -2   7 25190.5 1326.44  15
  -6  -2   8 10072.7 712.746  15
  -6  -1 -10 195.582 205.290  18
  -6  -1  -9 39855.6 1907.43  18
  -6  -1  -8 12914.4 1552.90  18
  -6  -1  -7 22028.5 2331.21  18
  -6  -1  -6 29813.4 1766.56   9
  -6  -1  -6 44123.1 2923.24  18
  -6  -1  -5 10629.7 1319.32  18
  -6  -1  -5 6105.76 896.463   9
  -6  -1  -4 52590.4 2636.74   9
  -6  -1  -3 1836.87 527.565   9
  -6  -1  -2 67268.4 2935.47   9
  -6  -1  -1 56381.9 2639.10   9
  -6  -1   0 39212.9 2183.67  16
  -6  -1   0 38839.1 2168.74   9
  -6  -1   1 158945. 4337.11  16
  -6  -1   1 153675. 4231.12   9
  -6  -1   2 3000.40 595.002   9
  -6  -1   2 3449.05 706.556  16
  -6  -1   3 58857.4 2461.72   9
  -6  -1   3 59351.8 2630.27  16
  -6  -1   4 50669.7 2477.20  16
  -6  -1   4 52497.2 2266.30   9
  -6  -1   5 105518. 3146.06   9
  -6  -1   6 58186.2 2002.56   6
  -6  -1   6 47684.0 2022.98  15
  -6  -1   7 5763.79 643.408  15
  -6  -1   7 3939.49 568.987   6
  -6  -1   8 60943.5 1810.30  15
  -6   0  -9 10615.1 854.591  18
  -6   0  -8 39955.1 2061.85  18
  -6   0  -7 94045.5 3624.54  18
  -6   0  -6 2663.49 607.166  18
  -6   0  -5 66367.2 3054.93  18
  -6   0  -4 16605.1 1453.92  18
  -6   0  -4 14732.8 1190.60   9
  -6   0  -3 49310.5 2280.99   9
  -6   0  -3 58082.4 2526.82  18
  -6   0  -2 57524.8 2502.73   9
  -6   0  -1 12652.7 1185.12   9
  -6   0   0 159465. 4174.61   9
  -6   0   1 22429.2 1661.18  16
  -6   0   1 21139.2 1512.58   9
  -6   0   2 92238.4 3111.18   9
  -6   0   2 98958.4 3424.13  16
  -6   0   3 38180.4 2122.01  16
  -6   0   3 36501.7 1929.67   9
  -6   0   4 9625.98 998.682   9
  -6   0   4 10320.8 1151.25  16
  -6   0   5 194342. 4386.92   9
  -6   0   6 1579.61 433.493   6
  -6   0   7 65015.9 2464.87   6
  -6   0   7 21400.4 3772.61  12
  -6   0   8 13822.7 877.398   6
  -6   1  -9 1614.80 302.395  18
  -6   1  -8 72674.3 2356.63  18
  -6   1  -7 2164.85 482.000  18
  -6   1  -6 58680.6 2593.87  18
  -6   1  -5 70166.6 2890.62  18
  -6   1  -4 21769.2 1610.00  18
  -6   1  -3 114428. 3531.60  18
  -6   1  -2 2418.05 569.028  18
  -6   1  -1 139871. 3566.58   9
  -6   1  -1 150380. 3726.13  18
  -6   1   0 45073.1 2066.19   9
  -6   1   1 70694.2 2604.64   9
  -6   1   1 75892.5 3040.37  16
  -6   1   2 103518. 3173.78   9
  -6   1   2 113166. 3637.46  16
  -6   1   3 784.208 389.243  16
  -6   1   3 1122.87 392.798   9
  -6   1   4 72344.5 2657.32   9
  -6   1   4 77673.5 2945.77  16
  -6   1   5 21735.7 1908.68  12
  -6   1   5 22616.3 1626.03  16
  -6   1   6 79283.9 3994.23  12
  -6   1   6 84615.4 2763.37   6
  -6   1   7 35676.6 1942.44   6
  -6   1   7 38759.4 2871.10  12
  -6   1   8 16307.9 1509.61  12
  -6   1   8 11899.9 986.859   6
  -6   1   9 56118.9 2100.60  12
  -6   2  -8 21358.0 1075.31  18
  -6   2  -7 32457.5 1552.72  18
  -6   2  -6 62366.8 2373.14  18
  -6   2  -5 1118.12 437.782  18
  -6   2  -4 103043. 3273.50  18
  -6   2  -3 22219.6 1514.14  18
  -6   2  -2 112837. 3340.59  18
  -6   2  -1 85983.4 2830.50  18
  -6   2   0 13054.4 1087.72  18
  -6   2   1 120116. 3178.91  18
  -6   2   1 117633. 3110.02   9
  -6   2   1 120353. 3766.39  16
  -6   2   2 1467.70 406.920   9
  -6   2   2 740.292 370.911  16
  -6   2   3 62631.6 2357.32   9
  -6   2   3 65574.2 2644.41  16
  -6   2   3 61044.7 2723.92  12
  -6   2   4 25313.9 1620.58  16
  -6   2   4 24229.0 1823.87  12
  -6   2   4 25207.8 1573.00   9
  -6   2   5 50429.8 2280.06  16
  -6   2   5 47506.1 2644.35  12
  -6   2   6 96031.4 3142.94   6
  -6   2   6 89499.6 3747.15  12
  -6   2   7 304.017 373.900   6
  -6   2   7 1107.52 460.903  12
  -6   2   8 46004.1 2294.18  12
  -6   2   8 37523.4 1828.83   6
  -6   2   9 3034.20 511.238  12
  -6   3  -8 6667.66 479.260  18
  -6   3  -7 48473.5 1602.74  18
  -6   3  -6 1592.83 424.798  18
  -6   3  -5 60090.6 2217.13  18
  -6   3  -4 28072.1 1596.95  18
  -6   3  -3 24781.4 1563.43  18
  -6   3  -2 118234. 3309.76  18
  -6   3  -1 1107.20 366.915  18
  -6   3   0 95205.3 2902.44  18
  -6   3   1 42555.8 1981.25  12
  -6   3   1 41872.4 2068.64  16
  -6   3   1 40401.1 1845.75  18
  -6   3   2 23885.0 1538.04  16
  -6   3   2 22522.3 1532.42  12
  -6   3   3 28046.5 1817.78  12
  -6   3   3 30140.2 1690.27  16
  -6   3   4 24433.2 1483.51  16
  -6   3   4 22228.2 1679.04  12
  -6   3   5 90136.5 2831.45  16
  -6   3   5 94604.8 3151.88   6
  -6   3   5 87297.2 3415.86  12
  -6   3   6 42.3894 442.055   6
  -6   3   6 268.109 360.101  12
  -6   3   7 71698.4 2918.24  12
  -6   3   7 61622.2 2851.32   6
  -6   3   8 25270.9 1452.31   6
  -6   3   8 25933.7 1579.76  12
  -6   3   9 22788.0 1262.98  12
  -6   4  -6 26996.9 1138.05  18
  -6   4  -5 49111.5 1743.99  18
  -6   4  -4 2371.47 423.924  18
  -6   4  -3 61278.8 2207.58  18
  -6   4  -2 4541.13 638.309  18
  -6   4  -1 64909.7 2340.52  18
  -6   4  -1 63278.0 2036.39  12
  -6   4   0 26933.3 1449.46  12
  -6   4   0 28111.8 1551.35  18
  -6   4   1 13267.7 1089.58  12
  -6   4   1 14468.3 1117.99  18
  -6   4   1 13011.2 1042.77  16
  -6   4   1 13662.4 1007.03   6
  -6   4   2 56751.6 2153.12  16
  -6   4   2 61627.2 2252.14   6
  -6   4   2 57233.5 2395.46  12
  -6   4   3-289.518 422.930  12
  -6   4   3 166.358 224.561  16
  -6   4   3 166.604 322.834   6
  -6   4   4 114435. 3602.24   6
  -6   4   4 109541. 2840.18  16
  -6   4   4 107034. 3495.08  12
  -6   4   5 12670.2 1199.61  12
  -6   4   5 12077.3 942.242  16
  -6   4   5 11845.9 1255.85   6
  -6   4   6 43328.7 2522.78   6
  -6   4   6 45277.6 2256.50  12
  -6   4   7 34329.2 1895.70   6
  -6   4   7 37533.5 1936.78  12
  -6   4   8 17840.2 1092.85   6
  -6   4   8 16731.2 1165.18  12
  -6   4   9 59457.1 1894.20  12
  -6   5  -5 217.093 189.422  18
  -6   5  -4 71370.5 1962.25  18
  -6   5  -3 30295.0 1385.72  18
  -6   5  -2 24960.0 1071.92  12
  -6   5  -2 28991.5 1432.38  18
  -6   5  -1 38563.1 1698.00  18
  -6   5  -1 35550.8 1438.36  12
  -6   5   0 2993.88 424.948  16
  -6   5   0 2980.94 450.448  12
  -6   5   1 38195.3 1738.08  12
  -6   5   1 35745.5 1452.85  16
  -6   5   2 1394.62 305.766  16
  -6   5   2 2012.88 456.531  12
  -6   5   3 64010.5 2916.12   6
  -6   5   3 62028.3 1841.54  16
  -6   5   3 69793.0 2553.31  12
  -6   5   4 54265.5 2285.96  12
  -6   5   4 44152.2 2427.84   6
  -6   5   5 31803.1 1912.62   6
  -6   5   5 37573.9 1904.84  12
  -6   5   6 48306.5 2083.65   6
  -6   5   6 44955.9 2017.38  12
  -6   5   7 7275.81 767.660  12
  -6   5   7 8346.47 774.398   6
  -6   5   8 104337. 2608.91  12
  -6   5   9 19069.7 931.249  12
  -6   6  -2 50937.0 1322.03  12
  -6   6  -1 620.405 194.433  12
  -6   6   0 47144.9 1607.16  12
  -6   6   1 2675.27 411.820  12
  -6   6   2 67814.1 2172.86  12
  -6   6   3 71719.3 2308.27  12
  -6   6   4 4060.69 581.719  12
  -6   6   5 76178.1 2396.79  12
  -6   6   6 528.620 230.183  12
  -6   6   7 47867.9 1665.38  12
  -6   6   8 19304.8 927.843  12
  -6   6   8 20079.2 735.777  17
  -6   7   0 9839.60 599.897  12
  -6   7   1 46172.7 1419.32  12
  -6   7   2 71319.9 1866.30  12
  -6   7   3 420.459 179.547  12
  -6   7   4 82389.2 1520.84  17
  -6   7   4 79831.5 2069.43  12
  -6   7   5 8723.40 499.356  17
  -6   7   5 7464.86 619.993  12
  -6   7   6 36231.8 1262.90  12
  -6   7   6 38828.2 1017.53  17
  -5  -9  -7 10114.2 792.684  15
  -5  -9  -6 36537.4 1678.23  15
  -5  -9  -5-191.051 232.930  15
  -5  -9  -4 24421.4 1515.51  15
  -5  -9  -3 1145.93 381.913  15
  -5  -9  -2 19698.1 1338.02  15
  -5  -9  -1 16742.5 1162.75  15
  -5  -9   0 1530.70 331.827  15
  -5  -9   1 36311.4 1414.14  15
  -5  -8 -10 24739.9 1225.07  14
  -5  -8  -9 38262.9 1755.25  14
  -5  -8  -8 1519.79 417.687  14
  -5  -8  -7 38996.6 2047.16  15
  -5  -8  -7 43832.8 2124.58  14
  -5  -8  -7 45289.1 1942.33   9
  -5  -8  -6 2549.26 479.533   9
  -5  -8  -6 2435.82 590.082  15
  -5  -8  -6 1347.46 388.961  14
  -5  -8  -5 29915.7 2068.66  15
  -5  -8  -5 33597.3 1599.22   9
  -5  -8  -4 20581.6 1186.04   9
  -5  -8  -4 17451.7 1587.06  15
  -5  -8  -3 10927.5 1237.80  15
  -5  -8  -2 24798.6 1791.16  15
  -5  -8  -1 1320.36 513.460  15
  -5  -8   0 41247.8 2087.35  15
  -5  -8   1 13013.7 1131.86  15
  -5  -8   2 23608.8 1368.23  15
  -5  -8   3 23397.7 1216.87  15
  -5  -7 -11 13456.6 938.622  14
  -5  -7 -10 48482.4 2184.24  14
  -5  -7  -9 1192.73 496.121  14
  -5  -7  -8 29528.3 2193.53  14
  -5  -7  -7 7226.65 1201.17  15
  -5  -7  -7 8970.36 1247.68  14
  -5  -7  -6 12293.1 1676.68  15
  -5  -7  -6 15206.3 1609.52  14
  -5  -7  -5 33888.7 2669.08  15
  -5  -7  -5 41757.5 2478.59  14
  -5  -7  -4 3942.42 677.329   9
  -5  -7  -4 4011.24 904.417  15
  -5  -7  -3 66758.6 2629.15   9
  -5  -7  -3 65546.6 3429.74  15
  -5  -7  -2 3036.46 746.368  15
  -5  -7  -2 3270.27 572.501   9
  -5  -7  -1 46222.5 2648.69  15
  -5  -7  -1 43619.3 1786.85   9
  -5  -7   0 31706.2 2100.32  15
  -5  -7   1 18767.5 1562.76  15
  -5  -7   2 75848.4 2909.52  15
  -5  -7   3 920.706 347.299  15
  -5  -7   4 46202.4 1910.79  15
  -5  -7   5 11840.8 860.356  15
  -5  -6 -11 62441.9 2365.75  14
  -5  -6 -10 7626.61 1084.08  14
  -5  -6  -9 35052.4 2814.87  14
  -5  -6  -8 25501.6 2843.13  14
  -5  -6  -7 5579.40 1245.70  14
  -5  -6  -6 35865.8 2972.82  14
  -5  -6  -5 296.597 547.173  14
  -5  -6  -5 743.160 626.327  15
  -5  -6  -4 119079. 4615.67  14
  -5  -6  -4 120058. 5560.78  15
  -5  -6  -3 23940.6 2283.78  15
  -5  -6  -3 24470.0 1867.91   9
  -5  -6  -2 33728.6 2528.20  15
  -5  -6  -2 31173.3 1963.59   9
  -5  -6  -1 69870.6 3469.71  15
  -5  -6  -1 68856.5 2702.64   9
  -5  -6   0 10641.4 985.362   9
  -5  -6   0 10602.6 1317.29  15
  -5  -6   1 124653. 4260.61  15
  -5  -6   1 111913. 2944.27   9
  -5  -6   2 4738.85 847.395  15
  -5  -6   3 132276. 4004.97  15
  -5  -6   4 57888.5 2468.92  15
  -5  -6   5 5793.64 739.392  15
  -5  -6   6 45261.3 1796.50  15
  -5  -6   7 1594.06 306.916  15
  -5  -5 -11 24686.6 1581.37  14
  -5  -5 -10 30814.1 2297.46  14
  -5  -5  -9 69342.5 4661.49  14
  -5  -5  -8-3694.32 3714.27  14
  -5  -5  -7 50740.0 6169.44  14
  -5  -5  -6 1321.26 869.218  14
  -5  -5  -5 152053. 6497.74  14
  -5  -5  -4 127077. 5314.41  14
  -5  -5  -4 126978. 5594.57  15
  -5  -5  -3 40600.4 2932.70  15
  -5  -5  -3 40461.0 2767.87  14
  -5  -5  -2 93319.6 4223.96  15
  -5  -5  -2 87574.5 3590.28   9
  -5  -5  -1 1932.93 585.719  15
  -5  -5  -1 2323.83 541.514   9
  -5  -5   0 107695. 3492.72   9
  -5  -5   0 111505. 4238.10  15
  -5  -5   1 34575.0 1852.65   9
  -5  -5   1 35213.8 2343.04  15
  -5  -5   2 65822.7 2410.23   9
  -5  -5   2 71072.0 3212.41  15
  -5  -5   3 108674. 2815.87   9
  -5  -5   3 112763. 3910.53  15
  -5  -5   4 7518.84 979.835  15
  -5  -5   5 103192. 3375.03  15
  -5  -5   6 13090.7 1127.94  15
  -5  -5   7 46017.0 1907.91  15
  -5  -5   8 27503.5 1244.03  15
  -5  -4 -12 37679.8 1363.43  18
  -5  -4 -11 12596.8 1071.89  14
  -5  -4 -11 15094.6 1134.28  18
  -5  -4 -10 63116.3 3051.15  14
  -5  -4 -10 70887.9 3102.99  18
  -5  -4  -9 800.030 567.407  14
  -5  -4  -9 1661.45 666.877  18
  -5  -4  -8 85069.0 5744.90  14
  -5  -4  -7 36250.1 4339.06  14
  -5  -4  -6 104493. 6474.95  14
  -5  -4  -5 136703. 6408.66  14
  -5  -4  -4 19510.1 2221.00  14
  -5  -4  -3 256373. 7256.47  14
  -5  -4  -2 4200.85 857.939  15
  -5  -4  -2 5783.24 960.635   9
  -5  -4  -1 80628.8 3465.75  15
  -5  -4  -1 77194.1 3326.44   9
  -5  -4   0 84806.1 3509.42  15
  -5  -4   0 87552.6 3350.25   9
  -5  -4   1 29021.2 2035.80  15
  -5  -4   1 29174.5 1840.61   9
  -5  -4   2 162690. 4770.68  15
  -5  -4   2 168135. 4213.88   9
  -5  -4   3 8271.38 879.414   9
  -5  -4   3 7150.41 1026.25  15
  -5  -4   4 59990.3 2211.53   9
  -5  -4   4 62435.3 2836.50  15
  -5  -4   5 41798.0 1726.24   9
  -5  -4   5 44419.3 2335.38  15
  -5  -4   6 27843.4 1780.97  15
  -5  -4   7 84064.3 2898.29  15
  -5  -4   8 360.634 212.426  15
  -5  -4   9 73670.8 2033.24  15
  -5  -3 -12 2739.84 442.685  18
  -5  -3 -11 86114.9 3002.88  18
  -5  -3 -10 2429.17 711.756  18
  -5  -3 -10 1495.91 489.322  14
  -5  -3  -9 33537.5 2399.16  14
  -5  -3  -9 16711.2 2736.28  18
  -5  -3  -8 68716.7 3985.86  14
  -5  -3  -8 75566.6 6783.20  18
  -5  -3  -7 86876.9 4681.52  18
  -5  -3  -7 74368.0 4505.08  14
  -5  -3  -6 259670. 8525.10  14
  -5  -3  -5 25030.7 2527.76  14
  -5  -3  -4 120853. 5142.61  14
  -5  -3  -3 64599.5 3512.46  14
  -5  -3  -1 150391. 4737.13   9
  -5  -3   0 984.964 410.169  15
  -5  -3   0 244.787 210.394  16
  -5  -3   0 358.132 320.575   9
  -5  -3   1 152574. 4331.93   9
  -5  -3   1 149265. 4341.58  15
  -5  -3   1 146001. 3732.89  16
  -5  -3   2 29616.1 1958.92  15
  -5  -3   2 29925.5 1853.62   9
  -5  -3   2 29339.9 1707.77  16
  -5  -3   3 58963.8 2478.35   9
  -5  -3   3 60765.4 2596.87  16
  -5  -3   3 59958.8 2783.29  15
  -5  -3   4 66284.3 2917.10  15
  -5  -3   4 67791.8 2566.02   9
  -5  -3   5 3930.06 750.458  15
  -5  -3   5 3382.51 581.093   9
  -5  -3   6 93739.5 3388.04  15
  -5  -3   7 7363.14 937.438  15
  -5  -3   8 71792.8 2671.33  15
  -5  -3   9 31477.0 1572.96  15
  -5  -3  10 26648.2 1145.93  15
  -5  -2 -12 64947.6 1994.07  18
  -5  -2 -11 25444.1 1550.12  18
  -5  -2 -10 42358.2 2426.31  18
  -5  -2  -9 38052.9 2883.56  18
  -5  -2  -9 43526.4 2373.70  14
  -5  -2  -8-202.031 256.800  14
  -5  -2  -8-994.206 877.774  18
  -5  -2  -7 290653. 8425.51  18
  -5  -2  -7 236587. 6770.82  14
  -5  -2  -6 34155.2 2542.94  18
  -5  -2  -6 28624.9 2430.80  14
  -5  -2  -5 44957.8 2576.17  18
  -5  -2  -5 39372.3 2889.44  14
  -5  -2  -4 134278. 5044.68  14
  -5  -2  -3 10360.9 1384.68  14
  -5  -2  -1 24334.7 1807.88   9
  -5  -2   0 122033. 3935.33   9
  -5  -2   1 106078. 3309.05  16
  -5  -2   1 109639. 3617.85   9
  -5  -2   2 44519.4 2278.32   9
  -5  -2   2 44563.3 2146.33  16
  -5  -2   2 44172.1 2222.77  15
  -5  -2   3 134791. 4003.98  15
  -5  -2   3 139227. 3839.13  16
  -5  -2   3 137543. 3913.49   9
  -5  -2   4 754.490 282.746  16
  -5  -2   4 799.353 273.362   9
  -5  -2   4 667.656 321.258  15
  -5  -2   5 85096.7 2941.54   9
  -5  -2   5 84231.1 3235.98  15
  -5  -2   6 6663.47 936.829  15
  -5  -2   6 7161.03 880.749   9
  -5  -2   7 73111.3 2961.79  15
  -5  -2   8 78469.1 2952.83  15
  -5  -2   9 17309.0 1261.55  15
  -5  -2  10 68438.4 2144.99  15
  -5  -1 -12 65813.6 1868.02  18
  -5  -1 -11 3719.80 565.846  18
  -5  -1 -10 72439.0 2922.56  18
  -5  -1  -9 181.782 485.691  18
  -5  -1  -8 98860.9 4267.47  18
  -5  -1  -7 180998. 5923.51  18
  -5  -1  -6 36720.6 2449.06  14
  -5  -1  -6 43450.5 2713.38  18
  -5  -1  -5 121247. 4242.82  18
  -5  -1  -5 108500. 4305.96  14
  -5  -1  -4 1572.08 556.814  18
  -5  -1  -3 118884. 3502.54  18
  -5  -1  -2 60887.5 2830.63   9
  -5  -1  -1 61892.4 2764.92   9
  -5  -1   0 189507. 4757.62   9
  -5  -1   1 1952.47 504.465   9
  -5  -1   2 115600. 3571.16   9
  -5  -1   2 123186. 3636.62  16
  -5  -1   3 1032.35 390.166  16
  -5  -1   3 907.320 295.532  15
  -5  -1   3 713.515 320.214   9
  -5  -1   4 187897. 4656.31  15
  -5  -1   4 179488. 4423.69   9
  -5  -1   4 188291. 4599.00  16
  -5  -1   5 116108. 3765.87  15
  -5  -1   5 114201. 3792.74  16
  -5  -1   5 115771. 3513.20   9
  -5  -1   6 53068.0 2360.80   9
  -5  -1   6 53400.7 2593.45  15
  -5  -1   7 93389.0 2736.40   6
  -5  -1   7 95725.4 3467.98  15
  -5  -1   8 178.965 285.754  15
  -5  -1   9 83410.8 2899.87  15
  -5  -1  10 2435.02 469.219  15
  -5  -1  11 45459.2 1530.32  15
  -5   0 -12 1169.88 236.870  18
  -5   0 -11 71163.4 2235.97  18
  -5   0 -10 21668.2 1471.88  18
  -5   0  -9 55876.5 2691.73  18
  -5   0  -9 72353.8 4487.63  13
  -5   0  -8 138223. 4548.62  18
  -5   0  -8 139104. 7986.62  13
  -5   0  -7 9007.04 1272.83  18
  -5   0  -7 9283.86 1898.63  13
  -5   0  -6 161501. 5004.43  18
  -5   0  -5 4993.62 873.842  18
  -5   0  -4 118654. 3819.33   9
  -5   0  -4 131220. 4023.25  18
  -5   0  -3 57217.5 2488.58  18
  -5   0  -3 53604.3 2530.28   9
  -5   0  -2 27358.7 1770.07   9
  -5   0  -2 30978.1 1697.12  18
  -5   0  -1 223213. 4375.80  18
  -5   0  -1 215745. 4958.57   9
  -5   0   0 598.987 311.688   9
  -5   0   1 151178. 4007.02   9
  -5   0   2 33434.1 1867.14   9
  -5   0   2 31528.3 1849.21  16
  -5   0   3 27598.2 1718.37  16
  -5   0   3 24466.9 1602.74   9
  -5   0   4 39433.5 2035.98   9
  -5   0   4 42332.0 2158.66  16
  -5   0   5 97725.9 3370.50  15
  -5   0   5 95719.3 3326.95  16
  -5   0   5 92788.2 3159.58   9
  -5   0   6 360451. 6350.74   9
  -5   0   6 352854. 6719.03  15
  -5   0   7 27675.8 1587.72   6
  -5   0   7 23881.5 1720.64  15
  -5   0   8 66043.2 2800.89  15
  -5   0   8 68059.6 2795.06   6
  -5   0   9 54237.8 2365.00  15
  -5   0  10 41845.2 1867.34  15
  -5   0  11 55641.4 1819.46  15
  -5   1 -11 47146.9 1566.67  18
  -5   1 -10 19697.7 1255.23  18
  -5   1  -9 79945.2 4513.36  13
  -5   1  -9 78959.6 2862.98  18
  -5   1  -8 4793.09 828.973  18
  -5   1  -8-2405.43 3999.98  13
  -5   1  -7 124431. 4149.83  18
  -5   1  -7 152179. 11006.5  13
  -5   1  -6 124940. 7124.16  13
  -5   1  -6 99217.9 3739.13  18
  -5   1  -5 46376.8 2461.28  18
  -5   1  -4 69528.9 2897.93  18
  -5   1  -3 19617.6 1473.08  18
  -5   1  -2 149353. 3881.79  18
  -5   1  -2 141150. 3685.89   9
  -5   1  -1 6111.87 733.910  18
  -5   1  -1 6280.21 789.086   9
  -5   1   0 216377. 4272.56  18
  -5   1   0 215997. 4599.32   9
  -5   1   1 94519.8 3020.35   9
  -5   1   1 97413.5 2738.23  18
  -5   1   2 81085.6 2824.07   9
  -5   1   2 83057.8 3123.46  12
  -5   1   3 88264.7 2966.20   9
  -5   1   3 90602.3 3510.04  12
  -5   1   3 93918.7 3166.58  16
  -5   1   4 2609.54 619.021  12
  -5   1   4 2615.32 542.417   9
  -5   1   4 3271.84 659.269  16
  -5   1   5 220084. 4987.97  16
  -5   1   5 212294. 4792.62   9
  -5   1   6 53646.6 2448.09   9
  -5   1   6 53627.2 2560.26  16
  -5   1   7 59982.8 2475.38   6
  -5   1   7 50556.0 2457.25  15
  -5   1   8 109749. 3533.01  15
  -5   1   8 116179. 3867.88   6
  -5   1   9 2027.88 483.172   6
  -5   1   9 3243.42 612.824  15
  -5   1  10 125308. 3197.15  15
  -5   1  11 14102.3 927.210  15
  -5   1  12 57706.5 1528.01  15
  -5   1  12 60766.4 1823.22  12
  -5   2 -11 1093.38 198.456  18
  -5   2 -10 84305.4 2199.79  18
  -5   2  -9 22454.5 1349.48  18
  -5   2  -8 28190.3 1690.11  18
  -5   2  -8 24522.5 2504.63  13
  -5   2  -7 29759.4 3221.17  13
  -5   2  -7 29497.2 1842.72  18
  -5   2  -6 79067.4 4821.57  13
  -5   2  -6 63999.3 2792.43  18
  -5   2  -5 183033. 4788.29  18
  -5   2  -4 5025.50 750.467  18
  -5   2  -3 107246. 3463.27  18
  -5   2  -2 56793.6 2424.76  18
  -5   2  -1 60350.4 2409.44  18
  -5   2   0 135177. 3505.01  18
  -5   2   0 142896. 3788.91  12
  -5   2   1 17670.1 1232.65  18
  -5   2   1 17170.4 1214.88   9
  -5   2   1 17569.8 1391.44  12
  -5   2   2 236344. 4659.17   9
  -5   2   2 242584. 5507.39  12
  -5   2   2 238847. 4477.28  18
  -5   2   3 2623.70 519.306  18
  -5   2   3 1624.33 457.097  12
  -5   2   3 2435.22 510.448  16
  -5   2   3 2384.15 506.340   9
  -5   2   4 87282.7 2961.93   9
  -5   2   4 94796.7 3154.06  16
  -5   2   4 87059.6 3670.15  12
  -5   2   5 261531. 5333.36  16
  -5   2   5 260973. 5303.23   9
  -5   2   6 37071.8 2053.21  16
  -5   2   6 34072.9 2495.86  12
  -5   2   7 122572. 3782.12   6
  -5   2   8 5531.50 922.706   6
  -5   2   8 6025.64 769.423  15
  -5   2   9 108423. 3122.36  15
  -5   2   9 88630.2 3323.73   6
  -5   2  10 54018.1 2041.90  15
  -5   2  11 26568.1 1264.11  15
  -5   2  11 28956.8 1618.90  12
  -5   2  12 105839. 2497.34  12
  -5   2  12 97443.4 1979.92  15
  -5   3 -10 31452.7 1017.76  18
  -5   3  -9 12025.0 841.081  18
  -5   3  -8 82120.6 2545.20  18
  -5   3  -7 5004.92 710.114  18
  -5   3  -6 61420.9 2546.55  18
  -5   3  -5 2131.46 477.887  18
  -5   3  -4 134078. 3898.14  18
  -5   3  -3 124193. 3711.09  18
  -5   3  -2 11421.5 1122.68  18
  -5   3  -2 10501.0 958.997  12
  -5   3  -1 133778. 3679.88  18
  -5   3  -1 139793. 3705.94  12
  -5   3   0 6627.54 818.096  18
  -5   3   0 5456.92 741.327  12
  -5   3   1 171725. 3971.39  18
  -5   3   1 174915. 4567.01  12
  -5   3   2 70668.3 3020.54  12
  -5   3   2 67777.2 2460.24  18
  -5   3   3 147457. 3592.21   9
  -5   3   3 139838. 3742.57  16
  -5   3   3 136322. 4374.69  12
  -5   3   3 133436. 3464.37  18
  -5   3   4 230710. 4765.32   9
  -5   3   4 214984. 5771.94  12
  -5   3   4 226485. 4759.67  16
  -5   3   5 34844.3 2381.00  12
  -5   3   5 34370.4 1846.12  16
  -5   3   6 203745. 4647.55  16
  -5   3   6 211432. 4836.85   6
  -5   3   6 195464. 5815.93  12
  -5   3   7 7998.86 1090.30   6
  -5   3   7 8092.01 1193.38  12
  -5   3   8 73534.5 3671.71   6
  -5   3   8 86680.6 3725.01  12
  -5   3   9 96345.5 3685.32  12
  -5   3   9 89333.3 2636.42  15
  -5   3  10 5807.50 865.864  12
  -5   3  10 5321.07 604.095  15
  -5   3  11 99817.9 2930.14  12
  -5   3  11 87884.3 2155.75  15
  -5   3  12 10070.8 752.989  12
  -5   4  -9 62986.8 1392.25  18
  -5   4  -8 7120.46 614.369  18
  -5   4  -7 76315.6 2329.24  18
  -5   4  -6 19992.9 1310.71  18
  -5   4  -5 46543.2 2114.72  18
  -5   4  -5 43210.7 1591.26  12
  -5   4  -4 147062. 3897.91  18
  -5   4  -4 140755. 3129.27  12
  -5   4  -3 739.804 443.832  18
  -5   4  -3 534.103 215.666  12
  -5   4  -2 154555. 4013.84  18
  -5   4  -2 151255. 3720.83  12
  -5   4  -1 38578.3 1951.25  12
  -5   4  -1 39751.1 2012.99  18
  -5   4   0 67139.2 2556.54  18
  -5   4   0 64421.2 2670.71  12
  -5   4   1 120558. 3400.53  18
  -5   4   1 121781. 3832.93  12
  -5   4   2 26296.9 1576.80  18
  -5   4   2 26584.6 1858.79  12
  -5   4   3 215175. 4445.63  16
  -5   4   3 211760. 4507.81  18
  -5   4   3 217402. 5542.84  12
  -5   4   4 44710.4 1983.31  16
  -5   4   4 43738.7 2537.84  12
  -5   4   5 89943.5 2842.95  16
  -5   4   5 94175.3 3298.74   6
  -5   4   5 92165.8 3773.94  12
  -5   4   6 108310. 4174.98  12
  -5   4   6 116666. 4041.06   6
  -5   4   6 111934. 3199.70  16
  -5   4   7 48279.6 2932.80   6
  -5   4   7 55159.7 2937.24  12
  -5   4   8 120779. 4190.26  12
  -5   4   8 96856.8 4000.52   6
  -5   4   9-378.050 430.850  12
  -5   4   9 879.808 464.248   6
  -5   4  10 60353.0 2482.09  12
  -5   4  11 20509.7 1255.60  12
  -5   4  12 32863.3 1283.05  12
  -5   5  -7 55439.8 1570.59  18
  -5   5  -6 5528.18 607.196  18
  -5   5  -5 93878.3 2292.87  12
  -5   5  -5 98232.4 2710.14  18
  -5   5  -4 7614.38 722.891  12
  -5   5  -4 8056.07 863.141  18
  -5   5  -3 91641.7 2657.47  12
  -5   5  -3 91672.5 2931.25  18
  -5   5  -2 92680.4 2971.90  18
  -5   5  -2 88262.0 2763.75  12
  -5   5  -1 49286.4 2169.49  12
  -5   5  -1 49731.8 2191.97  18
  -5   5   0 118777. 3565.44  12
  -5   5   0 121893. 3439.79  18
  -5   5   1 458.141 336.598  18
  -5   5   1 215.542 273.966  12
  -5   5   2 182848. 4208.45  18
  -5   5   2 184849. 4086.09   6
  -5   5   2 179309. 4766.13  12
  -5   5   3 64922.0 2682.63   6
  -5   5   3 59157.8 2110.69  16
  -5   5   3 65729.4 2964.28  12
  -5   5   4 22107.4 1701.60   6
  -5   5   4 21430.9 1756.78  12
  -5   5   4 19371.6 1170.36  16
  -5   5   5 75794.5 3288.61  12
  -5   5   5 71707.9 3316.72   6
  -5   5   6 7119.30 1105.05   6
  -5   5   6 8990.63 1157.20  12
  -5   5   7 82726.5 3734.61   6
  -5   5   7 104735. 3789.39  12
  -5   5   8 3113.40 710.724   6
  -5   5   8 3408.33 707.833  12
  -5   5   9 115571. 3556.77  12
  -5   5  10 53843.0 2162.18  12
  -5   5  11 7259.65 686.824  12
  -5   5  11 6178.29 383.481  17
  -5   5  12 54595.3 1464.67  12
  -5   6  -6 67830.6 1533.45  18
  -5   6  -5 35215.3 1331.93  18
  -5   6  -4 31578.6 1334.35  12
  -5   6  -4 32642.4 1434.44  18
  -5   6  -3 74910.9 2214.98  12
  -5   6  -3 76949.4 2383.17  18
  -5   6  -2 545.613 236.596  12
  -5   6  -2 815.363 352.634  18
  -5   6  -1 130675. 3407.62  12
  -5   6  -1 134615. 3434.87  18
  -5   6   0 2309.50 541.873  12
  -5   6   0 1586.28 482.733  18
  -5   6   1 97609.2 3011.39  18
  -5   6   1 93771.1 3153.48  12
  -5   6   2 76439.6 2936.10  12
  -5   6   3 19723.1 1530.69  12
  -5   6   4 113374. 3764.32  12
  -5   6   4 89363.2 3649.23   6
  -5   6   5 957.975 306.500  12
  -5   6   5 961.601 421.932   6
  -5   6   6 66767.0 2894.25  12
  -5   6   6 72086.2 2971.20   6
  -5   6   7 21432.4 1480.54   6
  -5   6   7 17860.1 1461.52  12
  -5   6   8 33102.8 1852.52  12
  -5   6   9 51995.6 2144.36  12
  -5   6  10 5139.32 604.260  12
  -5   6  11 59665.4 1696.30  12
  -5   7  -3 447.373 246.492  18
  -5   7  -3 597.927 228.625  12
  -5   7  -2 82388.2 2257.90  12
  -5   7  -2 87493.1 2308.55  18
  -5   7  -1 45868.2 1797.72  18
  -5   7  -1 44579.6 1789.11  12
  -5   7   0 28007.0 1500.80  12
  -5   7   1 61906.6 2333.10  12
  -5   7   2 813.000 243.909  17
  -5   7   2 1034.62 369.256  12
  -5   7   3 63032.2 2512.27  12
  -5   7   4 6744.08 837.528  12
  -5   7   5 88125.5 3024.79  12
  -5   7   6 34009.2 1826.82  12
  -5   7   7 20292.6 1353.90  12
  -5   7   8 70909.1 2354.30  12
  -5   7   9 194.212 142.519  17
  -5   7   9-30.7238 239.838  12
  -5   7  10 63063.2 1723.48  12
  -5   7  10 62217.8 1323.63  17
  -5   8  -2 29010.1 1130.45  12
  -5   8  -1 17693.1 956.631  12
  -5   8   0 67925.8 1997.40  12
  -5   8   1 3778.22 520.393  12
  -5   8   2 51970.9 1928.94  12
  -5   8   3 23049.9 952.186  17
  -5   8   3 25262.3 1366.13  12
  -5   8   4 21749.6 1291.62  12
  -5   8   4 22464.3 994.321  17
  -5   8   5 83844.3 1982.00  17
  -5   8   5 85943.0 2523.28  12
  -5   8   6 7610.30 731.763  12
  -5   8   6 7422.22 591.433  17
  -5   8   7 74225.5 2129.26  12
  -5   8   7 74833.7 1787.50  17
  -5   8   8 10460.1 734.352  12
  -5   8   8 11704.9 650.832  17
  -5   8   9 33444.8 1116.68  12
  -5   8   9 34311.1 983.778  17
  -5   9   0 11405.9 642.451  12
  -5   9   1 23322.2 976.145  12
  -5   9   2 21631.8 977.619  12
  -5   9   3 5533.24 512.670  12
  -5   9   4 56337.5 1618.69  12
  -5   9   5 339.667 169.789  12
  -5   9   5 667.845 144.068  17
  -5   9   6 65532.2 1613.26  12
  -5   9   6 70830.0 1439.48  17
  -5   9   7 24406.5 879.762  12
  -5   9   7 27053.5 851.082  17
  -4 -11  -7 163.057 175.770  15
  -4 -11  -6 29801.2 1284.57  15
  -4 -11  -5 1970.55 372.695  15
  -4 -11  -4 13029.8 861.246  15
  -4 -11  -3 27876.5 1182.54  15
  -4 -10  -9 26185.1 1323.00  15
  -4 -10  -8 390.876 254.117  15
  -4 -10  -7 43941.5 2121.32  15
  -4 -10  -6 10806.3 1110.06  15
  -4 -10  -5 22066.9 1581.62  15
  -4 -10  -4 22648.2 1575.58  15
  -4 -10  -3-249.416 325.546  15
  -4 -10  -2 57057.3 2298.44  15
  -4 -10  -1 5977.57 719.973  15
  -4 -10   0 12578.3 952.340  15
  -4 -10   1 19226.6 989.866  15
  -4  -9 -11 570.279 231.472  14
  -4  -9 -10 77133.6 2450.38  14
  -4  -9 -10 69483.2 2301.95  15
  -4  -9  -9 15130.6 1190.40  14
  -4  -9  -9 13159.5 1195.52  15
  -4  -9  -8 20830.9 1705.37  15
  -4  -9  -8 21314.8 1479.60  14
  -4  -9  -7 32311.3 2224.63  15
  -4  -9  -7 29624.7 1759.36  14
  -4  -9  -6 10669.6 1029.35  14
  -4  -9  -6 10951.4 1320.86  15
  -4  -9  -5 51634.2 2902.20  15
  -4  -9  -4 430.704 420.882  15
  -4  -9  -3 53529.3 2859.87  15
  -4  -9  -2 43093.3 2439.38  15
  -4  -9  -1 12569.9 1289.07  15
  -4  -9   0 38550.0 2098.18  15
  -4  -9   1 1156.20 428.360  15
  -4  -9   2 44486.1 1887.49  15
  -4  -9   3 23043.0 1172.69  15
  -4  -8 -12 1282.31 331.979  14
  -4  -8 -11 37588.2 1883.75  14
  -4  -8 -10 30951.3 1814.68  15
  -4  -8 -10 33800.6 2007.97  14
  -4  -8  -9 24641.6 1910.09  15
  -4  -8  -9 26522.2 1944.27  14
  -4  -8  -8 51880.6 3029.72  15
  -4  -8  -8 50039.5 2754.28  14
  -4  -8  -7 561.437 322.450  14
  -4  -8  -7 256.015 352.506  15
  -4  -8  -6 72161.9 3790.80  15
  -4  -8  -6 73287.8 3270.34  14
  -4  -8  -5 20418.1 2016.33  15
  -4  -8  -5 22199.7 1747.06  14
  -4  -8  -4 49204.8 3128.16  15
  -4  -8  -3 100693. 4348.23  15
  -4  -8  -2 1417.34 714.389  15
  -4  -8  -1 76940.4 3580.86  15
  -4  -8   0 9488.43 1205.92  15
  -4  -8   1 42865.7 2370.75  15
  -4  -8   2 38355.9 2122.82  15
  -4  -8   3 5620.78 777.822  15
  -4  -8   4 56294.6 2114.98  15
  -4  -8   5 3017.27 446.870  15
  -4  -7 -13 12455.2 848.126  14
  -4  -7 -12 26807.7 1558.77  14
  -4  -7 -11 60845.4 2774.99  14
  -4  -7 -10 3696.88 753.294  15
  -4  -7 -10 2493.13 724.970  14
  -4  -7  -9 93258.7 4341.16  14
  -4  -7  -9 92986.2 4139.24  15
  -4  -7  -8 6456.38 1146.60  14
  -4  -7  -8 7565.97 1379.24  15
  -4  -7  -7 26025.0 2329.10  14
  -4  -7  -7 26778.7 2502.85  15
  -4  -7  -6 62619.1 3432.04  14
  -4  -7  -6 59957.0 3706.63  15
  -4  -7  -5 21923.0 1944.47  14
  -4  -7  -5 22367.2 2217.18  15
  -4  -7  -4 184256. 6329.07  15
  -4  -7  -4 183973. 5358.69  14
  -4  -7  -3 32048.6 2575.09  15
  -4  -7  -3 32184.0 2062.60  14
  -4  -7  -2 57274.2 2390.37   9
  -4  -7  -2 63932.1 3530.13  15
  -4  -7  -1 22380.7 2041.35  15
  -4  -7   0 53687.2 2985.02  15
  -4  -7   1 104113. 4013.77  15
  -4  -7   2 3948.51 792.925  15
  -4  -7   3 82970.1 3238.62  15
  -4  -7   4 10157.3 1079.28  15
  -4  -7   5 25433.2 1538.75  15
  -4  -7   6 15412.4 1079.84  15
  -4  -7   7 26158.7 1166.90  15
  -4  -6 -13 6499.39 681.038  14
  -4  -6 -13 6142.58 521.776  18
  -4  -6 -12 102110. 2579.71  18
  -4  -6 -12 104948. 3354.77  14
  -4  -6 -11 6980.47 1082.26  14
  -4  -6 -10 94803.4 4590.64  14
  -4  -6  -9 41409.1 3637.15  14
  -4  -6  -8 32216.2 3476.37  14
  -4  -6  -8 32527.8 3301.26  15
  -4  -6  -7 67849.1 4548.91  15
  -4  -6  -7 74617.5 4784.32  14
  -4  -6  -6 1390.10 601.912  15
  -4  -6  -6 1238.78 665.880  14
  -4  -6  -5 162358. 5751.59  14
  -4  -6  -5 159888. 6218.97  15
  -4  -6  -4 65741.6 3362.36  14
  -4  -6  -4 63689.1 3773.75  15
  -4  -6  -3 60952.9 3568.52  15
  -4  -6  -3 61232.7 3036.08  14
  -4  -6  -2 85392.8 4043.46  15
  -4  -6  -2 86945.1 3394.62  14
  -4  -6  -1 4586.71 650.252   9
  -4  -6  -1 6085.57 1085.73  15
  -4  -6   0 73739.0 2596.24   9
  -4  -6   0 80507.0 3656.12  15
  -4  -6   1 800.695 375.612  15
  -4  -6   2 132747. 4441.26  15
  -4  -6   3 21575.4 1737.19  15
  -4  -6   4 42228.1 2348.20  15
  -4  -6   5 52686.0 2501.19  15
  -4  -6   6 4424.02 691.361  15
  -4  -6   7 59846.1 2248.94  15
  -4  -6   8 53.1415 175.949  15
  -4  -5 -14 805.980 200.417  18
  -4  -5 -13 51974.0 1868.74  14
  -4  -5 -13 54916.5 1869.67  18
  -4  -5 -12 34634.6 1786.96  18
  -4  -5 -12 32051.5 1898.66  14
  -4  -5 -11 73226.0 3548.99  14
  -4  -5 -10 118188. 5459.05  14
  -4  -5  -9 8747.13 2080.04  14
  -4  -5  -8 28761.3 9399.22  14
  -4  -5  -7 6199.37 1913.62  14
  -4  -5  -6 143397. 6898.35  14
  -4  -5  -6 146880. 6908.33  15
  -4  -5  -5 81607.5 4581.90  15
  -4  -5  -5 85264.0 4513.39  14
  -4  -5  -4 30318.2 2417.56  14
  -4  -5  -4 27551.6 2498.68  15
  -4  -5  -3 91408.2 3827.89  14
  -4  -5  -3 94171.8 4328.37  15
  -4  -5  -2 20772.6 1685.69  14
  -4  -5  -2 22125.4 1990.51  15
  -4  -5  -1 105911. 3596.70  14
  -4  -5  -1 101041. 4100.82  15
  -4  -5   0 26722.5 1678.54   9
  -4  -5   0 26048.7 2049.34  15
  -4  -5   1 34479.6 1768.69   9
  -4  -5   1 38091.8 2415.81  15
  -4  -5   2 64402.9 3066.71  15
  -4  -5   2 62844.3 2269.38   9
  -4  -5   3 27299.1 1978.09  15
  -4  -5   4 73484.9 3183.39  15
  -4  -5   5 649.405 376.885  15
  -4  -5   6 92745.4 3370.46  15
  -4  -5   7 16545.7 1340.94  15
  -4  -5   8 66169.5 2464.99  15
  -4  -5   9 59530.1 2026.12  15
  -4  -4 -14 68352.5 1813.87  18
  -4  -4 -13 51046.0 1954.79  18
  -4  -4 -12 7670.09 907.950  14
  -4  -4 -12 10080.3 1071.04  18
  -4  -4 -11 70586.7 3221.73  14
  -4  -4 -10 343.959 351.534  14
  -4  -4  -9 103441. 5495.57  14
  -4  -4  -8 17696.6 2729.69  14
  -4  -4  -7 95936.9 6472.37  14
  -4  -4  -6 187700. 7710.59  14
  -4  -4  -5 3931.07 1078.93  14
  -4  -4  -4 116278. 4704.69  14
  -4  -4  -4 108285. 4316.99  15
  -4  -4  -3 10644.3 1313.31  14
  -4  -4  -3 9870.05 1268.68  15
  -4  -4  -2 168720. 4840.57  14
  -4  -4  -2 155970. 4786.84  15
  -4  -4  -1 27740.9 1853.16  14
  -4  -4  -1 24543.9 1835.74  15
  -4  -4   0 34949.8 1962.39   9
  -4  -4   0 36806.2 2018.49  14
  -4  -4   0 37232.9 2242.56  15
  -4  -4   1 92672.5 3058.12   9
  -4  -4   1 95736.6 3571.58  15
  -4  -4   2 542.413 284.606   9
  -4  -4   2 417.312 224.202  15
  -4  -4   3 154154. 3642.89   9
  -4  -4   3 158185. 4588.49  15
  -4  -4   4 8507.86 792.383   9
  -4  -4   4 8980.85 1104.51  15
  -4  -4   5 64326.2 2177.38   9
  -4  -4   5 66752.9 3004.62  15
  -4  -4   6 143829. 4377.04  15
  -4  -4   7 7098.06 943.160  15
  -4  -4   8 116904. 3667.98  15
  -4  -4   9 3446.01 594.598  15
  -4  -4  10 70114.8 2193.55  15
  -4  -3 -14 65286.0 1796.16  18
  -4  -3 -13 5140.25 661.623  18
  -4  -3 -12 78317.6 2911.11  18
  -4  -3 -11 9813.95 1112.98  14
  -4  -3 -10 65949.6 3282.17  14
  -4  -3  -9 23111.3 2192.79  14
  -4  -3  -8 36779.5 2948.44  14
  -4  -3  -7 130235. 5687.79  14
  -4  -3  -6 12371.2 1744.36  14
  -4  -3  -5 75472.0 3864.87  14
  -4  -3  -4 35714.9 2411.04  14
  -4  -3  -3 215908. 5580.13  14
  -4  -3  -2 105109. 3638.46  14
  -4  -3   1 19527.6 1470.65  15
  -4  -3   1 21137.7 1448.45   9
  -4  -3   2 96570.5 2668.14  16
  -4  -3   2 98235.1 3343.86  15
  -4  -3   2 100646. 3070.92   9
  -4  -3   3 56335.7 2169.31  16
  -4  -3   3 56667.5 2265.79   9
  -4  -3   3 56196.2 2575.25  15
  -4  -3   4 96813.4 3468.89  15
  -4  -3   4 93765.9 2879.93   9
  -4  -3   5 89669.5 2747.02   9
  -4  -3   5 92670.9 3466.21  15
  -4  -3   6 903.401 427.983  15
  -4  -3   6 748.182 331.751   9
  -4  -3   7 224155. 5478.97  15
  -4  -3   8 97770.2 3552.93  15
  -4  -3   9 25610.2 1732.43  15
  -4  -3  10 40021.7 1959.08  15
  -4  -3  11 15833.3 993.580  15
  -4  -2 -14 834.351 244.847  18
  -4  -2 -13 67567.7 2237.56  18
  -4  -2 -13 63956.5 1973.11  13
  -4  -2 -12 23093.3 1498.60  13
  -4  -2 -12 22304.3 1536.36  18
  -4  -2 -11 41089.4 2298.65  13
  -4  -2 -11 37805.2 2254.62  18
  -4  -2 -10 71531.7 3394.22  18
  -4  -2 -10 82162.8 3647.01  13
  -4  -2  -9 20671.0 1942.42  13
  -4  -2  -9 16470.5 1633.72  14
  -4  -2  -8 100668. 4179.46  14
  -4  -2  -8 108352. 4441.38  13
  -4  -2  -7 22905.0 2062.63  14
  -4  -2  -7 21398.7 1921.31  13
  -4  -2  -6 89446.1 3939.96  14
  -4  -2  -6 91977.8 3644.49  18
  -4  -2  -5 83082.7 3609.33  14
  -4  -2  -5 80332.3 3019.96  18
  -4  -2  -4 14668.1 1441.40  14
  -4  -2   2 246847. 4792.21   9
  -4  -2   3 24895.5 1482.25   9
  -4  -2   3 25396.3 1414.19  16
  -4  -2   3 23690.4 1570.47  15
  -4  -2   4 243987. 4762.26  16
  -4  -2   4 245592. 4786.21   9
  -4  -2   4 241149. 5293.33  15
  -4  -2   5 3232.10 642.010  15
  -4  -2   5 3841.66 613.234   9
  -4  -2   6 135338. 4166.83  15
  -4  -2   6 135771. 3514.04   9
  -4  -2   7 106250. 3772.26  15
  -4  -2   8 14645.6 1411.70  15
  -4  -2   9 81359.4 3278.72  15
  -4  -2  10 1713.40 485.383  15
  -4  -2  11 62245.5 2305.88  15
  -4  -2  12 18468.3 986.612  15
  -4  -1 -14 25904.2 950.878  18
  -4  -1 -13 41776.4 1720.81  13
  -4  -1 -13 43405.8 1675.92  18
  -4  -1 -12 14085.8 1258.50  13
  -4  -1 -12 14188.9 1179.55  18
  -4  -1 -11 120421. 4339.74  13
  -4  -1 -11 108356. 3650.17  18
  -4  -1 -10 336.504 347.978  18
  -4  -1 -10 461.477 604.189  13
  -4  -1 -10 73.2590 597.506  11
  -4  -1  -9 61794.0 8027.92  11
  -4  -1  -9 78584.5 3510.18  18
  -4  -1  -8 50225.9 3745.35  13
  -4  -1  -8 46295.4 5267.08  11
  -4  -1  -8 52412.8 2873.06  18
  -4  -1  -7 67397.8 3940.05  13
  -4  -1  -7 71715.2 3199.75  14
  -4  -1  -7 78281.9 3435.01  18
  -4  -1  -6 149271. 4460.50  18
  -4  -1  -6 140286. 4427.75  14
  -4  -1  -5 46822.9 2497.45  14
  -4  -1  -5 51486.1 2372.02  18
  -4  -1  -5 45623.5 2642.96  13
  -4  -1   3 230934. 4505.71   9
  -4  -1   3 225833. 4269.41  16
  -4  -1   4 29046.5 1609.22   9
  -4  -1   4 28054.0 2986.24   3
  -4  -1   4 30369.6 1615.91  16
  -4  -1   4 29549.4 1732.01  15
  -4  -1   5 101999. 3086.57   9
  -4  -1   5 98463.8 5811.11   3
  -4  -1   5 105100. 3249.09  16
  -4  -1   5 106086. 3454.12  15
  -4  -1   6 207337. 5073.22  15
  -4  -1   6 210564. 4544.61   9
  -4  -1   7 2142.86 566.252  15
  -4  -1   7 2223.28 514.034   9
  -4  -1   8 70660.2 3129.62  15
  -4  -1   9 2583.95 607.629  15
  -4  -1  10 64603.0 2843.75  15
  -4  -1  11 17180.0 1316.17  15
  -4  -1  12 11841.0 903.351  15
  -4  -1  13 46134.6 1365.34  15
  -4   0 -13 1738.40 323.160  18
  -4   0 -13 1751.39 397.732  13
  -4   0 -12 114722. 3031.14  18
  -4   0 -12 125742. 3772.92  13
  -4   0 -11 22132.2 1954.60  13
  -4   0 -11 20127.4 1459.45  18
  -4   0 -10 107303. 5340.13  13
  -4   0 -10 86984.6 3339.42  18
  -4   0  -9 73271.9 5729.16  13
  -4   0  -9 54271.6 2760.72  18
  -4   0  -8 2301.46 538.720  18
  -4   0  -8 2181.63 970.521  13
  -4   0  -7 260550. 6061.16  18
  -4   0  -7 220303. 8924.32  13
  -4   0  -6 3023.66 638.291  18
  -4   0  -6 3504.80 954.529  13
  -4   0  -5 180923. 4574.83  14
  -4   0  -5 188220. 4625.13  18
  -4   0  -5 189342. 5935.56  13
  -4   0  -4 68383.2 3211.37  13
  -4   0  -4 67828.5 2555.32  18
  -4   0   2 127209. 6056.67   3
  -4   0   3 101466. 5607.63   3
  -4   0   4 29558.9 1579.58   9
  -4   0   4 29666.4 1564.58  16
  -4   0   4 26393.3 3029.07   3
  -4   0   5 131068. 3473.18   9
  -4   0   5 135257. 3776.93  15
  -4   0   5 123654. 6882.36   3
  -4   0   5 132449. 3533.57  16
  -4   0   6 33487.4 1810.98   9
  -4   0   6 32543.4 1877.98  16
  -4   0   6 32581.1 3656.55   3
  -4   0   6 33681.7 1992.38  15
  -4   0   7 65555.8 5192.42   3
  -4   0   7 69040.7 2679.27   9
  -4   0   7 66108.1 2946.42  15
  -4   0   8 18747.6 1382.26   6
  -4   0   8 17864.5 1578.65  15
  -4   0   9 78984.4 3332.45  15
  -4   0  10 70068.2 3026.11  15
  -4   0  11 12969.0 1187.06  15
  -4   0  12 72836.4 2423.82  15
  -4   0  13 3226.83 414.344  15
  -4   1 -13 46118.3 1614.41  13
  -4   1 -13 43611.5 1148.14  18
  -4   1 -12 25086.6 1578.92  13
  -4   1 -12 24841.6 1219.32  18
  -4   1 -11 58442.1 2257.30  18
  -4   1 -11 61671.7 3034.70  13
  -4   1 -10 107519. 4981.08  13
  -4   1 -10 105947. 3436.90  18
  -4   1  -9 2206.95 556.590  18
  -4   1  -9 977.107 742.020  13
  -4   1  -8 63549.4 2932.46  18
  -4   1  -8 31459.2 5498.27  13
  -4   1  -7 49052.6 3123.36  10
  -4   1  -7 47079.6 2501.32  18
  -4   1  -6 205965. 6394.17  10
  -4   1  -6 204851. 5112.00  18
  -4   1  -5 81428.0 3929.30  10
  -4   1  -5 81366.3 3047.71  18
  -4   1  -4 20626.5 1888.93  13
  -4   1  -4 18898.4 1881.43  10
  -4   1  -4 20167.3 1413.37  18
  -4   1  -3 343036. 6976.14  13
  -4   1   2 140136. 6409.91   3
  -4   1   3 4450.39 1242.43   3
  -4   1   4 96643.4 2833.93  16
  -4   1   4 91523.4 5859.66   3
  -4   1   4 95308.7 2801.63   9
  -4   1   5 32579.5 1703.51   9
  -4   1   5 31527.3 3669.57   3
  -4   1   5 32291.6 1703.95  16
  -4   1   5 32336.6 1795.80  15
  -4   1   6 73124.1 5835.30   3
  -4   1   6 77437.7 2733.19   9
  -4   1   6 77096.5 2788.09  16
  -4   1   6 74044.5 2940.51  15
  -4   1   7 76275.2 3138.61  15
  -4   1   7 86849.4 6536.01   3
  -4   1   8 3840.75 693.576  15
  -4   1   8 5908.35 848.273   6
  -4   1   9 104169. 3938.05   6
  -4   1   9 109790. 3912.52  15
  -4   1  10 2197.29 600.528  15
  -4   1  10 2338.84 491.001   6
  -4   1  11 67029.3 2726.62  15
  -4   1  12 21147.2 1343.94  15
  -4   1  13 65735.5 2018.91  15
  -4   2 -12 5237.78 667.126  13
  -4   2 -12 5041.26 421.220  18
  -4   2 -11 77420.4 2217.57  18
  -4   2 -11 76638.5 2987.15  13
  -4   2 -10 354.702 502.396  13
  -4   2 -10 160.106 215.584  18
  -4   2  -9 106663. 3423.19  18
  -4   2  -9 97882.9 4838.94  13
  -4   2  -8 34959.9 3256.45  13
  -4   2  -8 41692.7 2857.33  10
  -4   2  -8 38528.9 2163.94  18
  -4   2  -7 14437.7 1833.60  10
  -4   2  -7 13724.8 1322.66  18
  -4   2  -7 14196.3 2245.23  13
  -4   2  -6 150083. 5716.53  10
  -4   2  -6 145827. 4229.65  18
  -4   2  -5 13077.3 1668.59  13
  -4   2  -5 14323.0 1857.72  10
  -4   2  -5 11398.7 1138.20  18
  -4   2  -4 143896. 4973.55  13
  -4   2  -4 133021. 3732.63  18
  -4   2  -4 132088. 5261.17  10
  -4   2  -3 39572.5 1946.58  18
  -4   2  -3 43032.1 2510.09  13
  -4   2  -2 34448.5 1697.20  18
  -4   2  -2 37012.4 2102.63  13
  -4   2   1 196899. 7287.69   3
  -4   2   2 4089.17 1115.99   3
  -4   2   3 173597. 7777.59   3
  -4   2   4 88502.1 6008.21   3
  -4   2   4 81312.0 2579.85  16
  -4   2   4 82881.5 2561.65   9
  -4   2   5 12409.1 1023.18   9
  -4   2   5 11344.8 2359.14   3
  -4   2   5 12496.5 1033.09  16
  -4   2   6 38078.4 1943.51   9
  -4   2   6 30397.9 1840.15  15
  -4   2   6 38073.5 4700.49   3
  -4   2   6 36127.6 1878.58  16
  -4   2   7 116293. 8440.02   3
  -4   2   7 108410. 3246.34   6
  -4   2   8 196868. 5107.63  15
  -4   2   8 225762. 5506.86   6
  -4   2   9 39478.5 2572.71   6
  -4   2   9 43890.4 2397.97  15
  -4   2  10 122427. 3567.27   6
  -4   2  10 111832. 3727.93  15
  -4   2  11 39956.3 2063.77  15
  -4   2  12 6944.87 804.568  15
  -4   2  13 83181.9 2360.44  15
  -4   2  14 1477.55 239.853  15
  -4   2  14 1288.52 250.674  12
  -4   3 -12 36607.2 1289.87  13
  -4   3 -11 14660.1 724.058  18
  -4   3 -11 15677.1 1141.14  13
  -4   3 -10 54274.3 2556.63  13
  -4   3 -10 54956.6 1853.84  18
  -4   3  -9 50864.0 2875.43  13
  -4   3  -9 57096.0 2987.48  10
  -4   3  -9 50155.9 2057.50  18
  -4   3  -8 6945.50 836.900  18
  -4   3  -8 6031.62 1123.80  13
  -4   3  -8 8005.09 1376.22  10
  -4   3  -7 85874.8 4345.12  13
  -4   3  -7 88197.2 3162.89  18
  -4   3  -7 90803.3 4416.22  10
  -4   3  -6 5301.86 627.577  12
  -4   3  -6 4398.41 919.012  13
  -4   3  -6 5781.85 838.920  18
  -4   3  -5 207897. 3942.15  12
  -4   3  -5 223844. 7624.88  10
  -4   3  -5 215078. 6355.42  13
  -4   3  -5 206873. 4865.32  18
  -4   3  -4 91823.1 3846.01  13
  -4   3  -4 91897.6 4905.18  10
  -4   3  -4 89159.3 3081.15  18
  -4   3  -4 88084.3 2605.78  12
  -4   3  -3 8635.93 815.754  12
  -4   3  -3 10057.8 1202.06  13
  -4   3  -3 9498.37 935.419  18
  -4   3  -2 34613.0 2546.03  10
  -4   3  -2 41566.7 1918.01  18
  -4   3  -2 40709.8 1818.97  12
  -4   3  -2 41448.4 2244.74  13
  -4   3  -1 2499.82 469.073  12
  -4   3  -1 2372.68 428.955  18
  -4   3   0 203325. 4375.91  12
  -4   3   0 200266. 4034.25  18
  -4   3   1 13252.4 1872.12   3
  -4   3   1 12721.2 969.510  18
  -4   3   2 206404. 8013.24   3
  -4   3   2 214061. 4798.03  12
  -4   3   2 210790. 3978.80  18
  -4   3   3 151367. 3342.78  18
  -4   3   3 152653. 4246.61  12
  -4   3   4 10492.0 2162.66   3
  -4   3   4 10475.3 885.900  18
  -4   3   4 8757.85 808.004  16
  -4   3   4 9103.88 1081.76  12
  -4   3   4 9901.04 879.911   9
  -4   3   5 240316. 4662.73   9
  -4   3   5 251512. 11961.4   3
  -4   3   5 227362. 4406.90  16
  -4   3   6 3382.02 603.688  16
  -4   3   6 4610.64 1794.90   3
  -4   3   7 132372. 3971.41   6
  -4   3   7 116071. 3572.58  15
  -4   3   8 12084.5 1389.54   6
  -4   3   8 14063.1 1279.09  15
  -4   3   9 95681.0 4029.53   6
  -4   3   9 118421. 3719.21  15
  -4   3  10 164917. 4315.51   6
  -4   3  10 151170. 4168.75  15
  -4   3  11 4649.47 703.146  15
  -4   3  12 70544.8 2458.81  15
  -4   3  13 17523.3 1066.30  15
  -4   3  14 49518.5 1379.59  15
  -4   3  14 48363.7 1438.92  12
  -4   4 -10 68854.1 2362.79  13
  -4   4  -9 98.7800 166.945  18
  -4   4  -9 155.563 300.967  13
  -4   4  -8 57492.8 2832.81  13
  -4   4  -8 57729.9 2100.75  18
  -4   4  -7 39002.6 2483.36  13
  -4   4  -7 38200.8 1870.12  18
  -4   4  -6 63750.2 4109.95  10
  -4   4  -6 57935.0 2411.08  18
  -4   4  -6 56736.7 3038.89  13
  -4   4  -6 57383.3 2044.91  12
  -4   4  -5 78602.2 3540.84  13
  -4   4  -5 78357.0 2854.73  18
  -4   4  -5 78963.5 2498.63  12
  -4   4  -4 57545.9 2897.66  13
  -4   4  -4 54918.5 2132.17  12
  -4   4  -4 54807.8 2378.62  18
  -4   4  -3 204778. 4551.75  18
  -4   4  -3 198378. 4254.81  12
  -4   4  -3 202751. 8826.88  10
  -4   4  -3 198975. 5165.69  13
  -4   4  -2 29159.4 1626.52  12
  -4   4  -2 28492.1 1647.71  18
  -4   4  -2 27785.9 2727.89  10
  -4   4  -1 78472.8 2747.19  12
  -4   4  -1 80449.2 2709.95  18
  -4   4   0 75123.3 2557.53  18
  -4   4   0 77488.7 2793.67  12
  -4   4   1 50149.4 2037.77  18
  -4   4   1 48659.3 2283.39  12
  -4   4   2 115539. 3621.69  12
  -4   4   2 119714. 5850.06   3
  -4   4   2 119076. 3126.40  18
  -4   4   3 21546.9 2767.88   3
  -4   4   3 23328.8 1679.75  12
  -4   4   3 23731.4 1397.25  18
  -4   4   4 98307.4 2747.82  16
  -4   4   4 110351. 7037.42   3
  -4   4   4 103699. 3696.85  12
  -4   4   4 102783. 2956.41  18
  -4   4   5 60270.6 2935.84  12
  -4   4   5 62246.9 2174.07  16
  -4   4   6 187134. 4701.68   6
  -4   4   6 192666. 3980.65  16
  -4   4   7 97243.2 3919.64   6
  -4   4   8 26890.4 1636.50  15
  -4   4   8 21892.3 2078.02   6
  -4   4   9 140944. 4642.53   6
  -4   4   9 154102. 4060.36  15
  -4   4  10 749.572 335.801  15
  -4   4  10 1926.99 596.286   6
  -4   4  11 80287.4 2757.90  15
  -4   4  12 29130.9 1664.15  12
  -4   4  12 29162.4 1504.62  15
  -4   4  13 27384.1 1353.21  12
  -4   4  13 27080.6 1238.07  15
  -4   5  -8 47634.1 2094.13  13
  -4   5  -8 45535.1 1480.96  18
  -4   5  -7 20919.9 1529.37  13
  -4   5  -7 23501.0 2077.74  10
  -4   5  -7 19051.3 1134.38  18
  -4   5  -6 125904. 3949.72  13
  -4   5  -6 118081. 3089.76  18
  -4   5  -6 130940. 5522.71  10
  -4   5  -5 4568.64 643.872  18
  -4   5  -5 4847.24 634.100  12
  -4   5  -5 4582.20 763.610  13
  -4   5  -4 63242.9 2764.35  13
  -4   5  -4 61037.2 2292.21  12
  -4   5  -4 62480.0 2434.76  18
  -4   5  -3 4647.91 705.502  18
  -4   5  -3 4222.85 630.991  12
  -4   5  -3 7285.34 3482.84  10
  -4   5  -2 160399. 3957.82  12
  -4   5  -2 159616. 3937.34  18
  -4   5  -1 162626. 3937.33  18
  -4   5  -1 158586. 4033.21  12
  -4   5   0 11067.5 1092.59  12
  -4   5   0 12108.2 1084.26  18
  -4   5   1 138339. 3574.68  18
  -4   5   1 139178. 3961.28  12
  -4   5   2 2040.96 482.370  18
  -4   5   2 2039.93 523.535  12
  -4   5   3 153812. 3788.02  18
  -4   5   3 154896. 4415.02  12
  -4   5   3 158731. 3648.23   6
  -4   5   4 11303.0 1224.38  12
  -4   5   4 12222.0 1128.58   6
  -4   5   4 9753.63 1963.37   3
  -4   5   5 11588.9 2470.34   3
  -4   5   5 12760.0 1300.32   6
  -4   5   5 13022.4 1370.82  12
  -4   5   6 229029. 5839.71  12
  -4   5   6 224772. 6141.24   6
  -4   5   7 5920.62 942.461  12
  -4   5   7 3121.75 783.228   6
  -4   5   8 80740.3 3696.73   6
  -4   5   8 93329.1 3730.47  12
  -4   5   9 44608.6 2394.27   6
  -4   5   9 39168.2 2340.30  12
  -4   5  10 57543.2 2243.96  15
  -4   5  10 58880.1 2734.50  12
  -4   5  11 79444.7 2923.12  12
  -4   5  11 76489.0 2448.92  15
  -4   5  12 6107.29 739.916  12
  -4   5  12 6371.95 638.061  15
  -4   5  13 85117.5 2176.63  12
  -4   6  -8 6514.10 830.144  10
  -4   6  -7 116363. 3842.55  10
  -4   6  -6 6707.85 1155.64  10
  -4   6  -6 4097.47 502.714  18
  -4   6  -5 42389.0 1759.96  12
  -4   6  -5 42782.0 3037.48  10
  -4   6  -5 42887.3 1720.22  18
  -4   6  -4 52487.3 2025.80  18
  -4   6  -4 54377.6 2090.26  12
  -4   6  -4 48090.5 3734.45  10
  -4   6  -3 21049.7 1370.09  12
  -4   6  -3 17565.9 2895.14  10
  -4   6  -3 22315.1 1401.74  18
  -4   6  -2 101764. 3131.59  12
  -4   6  -2 106697. 3093.35  18
  -4   6  -1 254.081 263.286  12
  -4   6  -1-35.6185 226.187  18
  -4   6   0 127268. 3468.89  18
  -4   6   0 127417. 3690.16  12
  -4   6   1 49967.5 2372.56  12
  -4   6   1 49698.8 2177.62  18
  -4   6   2 72196.0 2927.95  12
  -4   6   2 73490.9 2664.15  18
  -4   6   3 74916.3 3043.06  12
  -4   6   3 77156.0 2740.10  18
  -4   6   4 20881.4 1643.82  12
  -4   6   4 15814.2 1605.88   6
  -4   6   5 73425.2 3131.97  12
  -4   6   5 63271.3 3379.76   6
  -4   6   6 18614.9 1750.40   6
  -4   6   6 21660.7 1722.58  12
  -4   6   7 155668. 4746.49   6
  -4   6   7 145955. 4495.80  12
  -4   6   8 61821.1 2731.40   6
  -4   6   8 56280.1 2729.62  12
  -4   6   9 8635.73 1034.45  12
  -4   6  10 57789.6 2487.45  12
  -4   6  11 535.755 297.522  12
  -4   6  11 909.071 227.858  17
  -4   6  12 66969.2 2086.63  12
  -4   6  13 14980.6 751.166  12
  -4   7  -7 20477.8 1258.00  10
  -4   7  -6 41131.1 2081.52  10
  -4   7  -5 46304.5 2493.00  10
  -4   7  -4 284.628 172.695  18
  -4   7  -4 852.634 322.482  12
  -4   7  -3 60728.0 2183.37  12
  -4   7  -3 57220.0 3276.91  10
  -4   7  -3 57445.2 1969.74  18
  -4   7  -2 5850.77 738.124  12
  -4   7  -2 5238.23 650.180  18
  -4   7  -1 56808.1 2310.33  12
  -4   7  -1 54840.8 2147.82  18
  -4   7   0 48042.2 2198.20  12
  -4   7   0 47392.2 2047.99  18
  -4   7   1 15928.3 974.476  17
  -4   7   1 15566.7 1302.92  12
  -4   7   1 16379.8 1245.24  18
  -4   7   2 121285. 3655.05  12
  -4   7   3 69.6479 266.770  12
  -4   7   4 73808.3 2954.85  12
  -4   7   5 33580.6 2039.10  12
  -4   7   5 41582.2 1975.24   6
  -4   7   6 51861.3 2513.14  12
  -4   7   7 93909.1 3347.40  12
  -4   7   8 11802.7 1153.40  12
  -4   7   9 73055.1 2687.18  12
  -4   7  10 747.229 332.122  12
  -4   7  10 893.769 249.339  17
  -4   7  11 55551.1 1903.44  12
  -4   7  11 52788.2 1398.91  17
  -4   7  12 54152.5 1513.61  12
  -4   8  -5 1235.10 388.357  10
  -4   8  -4 56695.7 2214.32  10
  -4   8  -3 27911.6 1323.07  12
  -4   8  -2 12036.1 1051.46   8
  -4   8  -2 11958.2 937.238  12
  -4   8  -1 53170.3 2028.10  12
  -4   8   0 8195.91 837.495  12
  -4   8   1 68081.9 2461.12  12
  -4   8   2 13532.7 1148.81  12
  -4   8   2 12182.0 806.130  17
  -4   8   3 55655.1 1852.04  17
  -4   8   3 57479.9 2370.31  12
  -4   8   4 43882.0 1724.15  17
  -4   8   4 42863.7 2067.58  12
  -4   8   5 22977.9 1268.95  17
  -4   8   5 22842.0 1523.13  12
  -4   8   6 135968. 3109.91  17
  -4   8   6 127188. 3547.89  12
  -4   8   7 3291.62 590.104  12
  -4   8   7 3598.06 519.105  17
  -4   8   8 57106.7 1870.33  17
  -4   8   8 53512.1 2115.78  12
  -4   8   9 12967.7 816.255  17
  -4   8   9 11753.9 906.127  12
  -4   8  10 39099.4 1486.25  12
  -4   8  10 40040.8 1304.82  17
  -4   8  11 24523.5 949.121  12
  -4   8  11 25397.5 874.126  17
  -4   9  -1 317.204 228.730  12
  -4   9   0 88207.1 2344.64  12
  -4   9   1 21092.5 1193.24  12
  -4   9   2 12559.4 952.174  12
  -4   9   3 33521.1 1566.70  12
  -4   9   3 31897.7 1217.79  17
  -4   9   4 4117.02 460.297  17
  -4   9   4 3681.61 538.833  12
  -4   9   5 65020.0 1859.51  17
  -4   9   5 63521.8 2152.34  12
  -4   9   6 4467.07 502.603  17
  -4   9   6 4021.06 540.094  12
  -4   9   7 47735.4 1712.92  12
  -4   9   7 50701.3 1620.82  17
  -4   9   8 34203.4 1357.16  12
  -4   9   8 38122.1 1338.74  17
  -4   9   9 14924.0 782.950  12
  -4   9   9 16206.5 820.662  17
  -4   9  10 58153.3 1391.97  17
  -4  10   1 17135.7 843.802  12
  -4  10   2 55177.3 1562.18  12
  -4  10   3 361.888 189.638  12
  -4  10   4 41611.5 1368.55  12
  -4  10   4 44592.3 1244.36  17
  -4  10   5 20999.9 899.220  17
  -4  10   5 20042.1 916.985  12
  -4  10   6 22842.3 926.646  12
  -4  10   6 25906.6 999.130  17
  -4  10   7 23900.5 838.992  12
  -4  10   7 28144.4 1022.00  17
  -4  10   8 1602.17 240.092  17
  -4  10   9 46332.8 1159.08  17
  -3 -11 -10 20513.0 1111.02  15
  -3 -11  -9 28025.9 1470.78  15
  -3 -11  -8 7909.67 847.109  15
  -3 -11  -7 42915.3 2052.05  15
  -3 -11  -6 516.047 271.403  15
  -3 -11  -5 22374.7 1481.45  15
  -3 -11  -4 10703.5 982.150  15
  -3 -11  -3 7489.97 781.940  15
  -3 -11  -2 20487.2 1192.17  15
  -3 -11  -1 446.063 189.712  15
  -3 -10 -12 14972.6 800.205  14
  -3 -10 -12 13605.4 833.199  15
  -3 -10 -11 9468.15 753.361  14
  -3 -10 -11 9253.61 864.590  15
  -3 -10 -10 53897.8 1960.70  14
  -3 -10 -10 53649.8 2352.90  15
  -3 -10  -9 131.782 300.551  15
  -3 -10  -9 47.0463 209.770  14
  -3 -10  -8 44056.4 1887.05  14
  -3 -10  -8 50676.3 2658.17  15
  -3 -10  -7 6327.98 1033.26  15
  -3 -10  -6 32853.1 2239.80  15
  -3 -10  -5 14745.0 1514.37  15
  -3 -10  -4 1141.96 466.952  15
  -3 -10  -3 42908.7 2402.17  15
  -3 -10  -2 3326.50 645.395  15
  -3 -10  -1 10640.2 1079.88  15
  -3 -10   0 1970.38 441.728  15
  -3 -10   1 22646.8 1264.38  15
  -3 -10   2 51853.2 1604.25  15
  -3  -9 -13 27866.2 1223.78  14
  -3  -9 -12 3047.20 499.697  15
  -3  -9 -12 3512.25 550.243  14
  -3  -9 -11 50891.9 2218.11  14
  -3  -9 -10 10711.7 1129.25  14
  -3  -9  -9 21015.8 1641.11  14
  -3  -9  -8 18474.6 1562.63  14
  -3  -9  -7 18831.6 1557.71  14
  -3  -9  -7 20035.7 1966.58  15
  -3  -9  -6 48258.9 2381.55  14
  -3  -9  -6 49185.7 3089.36  15
  -3  -9  -5 5624.11 944.415  15
  -3  -9  -4 39886.8 2729.47  15
  -3  -9  -3 37199.6 2591.09  15
  -3  -9  -2 34747.7 2386.06  15
  -3  -9  -1 15168.9 1523.62  15
  -3  -9   0 9007.03 1097.80  15
  -3  -9   1 39611.3 2108.41  15
  -3  -9   2 579.962 328.395  15
  -3  -9   3 82578.1 2486.07  15
  -3  -9   4 38610.1 1429.10  15
  -3  -8 -14 32333.9 1270.56  14
  -3  -8 -13-114.513 210.337  14
  -3  -8 -12 35394.3 1904.90  14
  -3  -8 -11 11587.7 1238.78  14
  -3  -8 -10 34262.5 2270.83  14
  -3  -8  -9 58506.9 3118.47  14
  -3  -8  -8 2599.99 722.341  14
  -3  -8  -7 36812.9 2489.71  14
  -3  -8  -6 771.384 371.414  14
  -3  -8  -5 90488.0 4325.92  15
  -3  -8  -5 91319.0 3532.70  14
  -3  -8  -4 33466.2 2594.44  15
  -3  -8  -3 8450.54 1300.11  15
  -3  -8  -2 143786. 5125.56  15
  -3  -8  -1 25842.4 2114.90  15
  -3  -8   0 106115. 4042.47  15
  -3  -8   1 21637.5 1736.64  15
  -3  -8   2 41454.1 2278.80  15
  -3  -8   3 39568.4 2073.96  15
  -3  -8   4 13801.7 1131.17  15
  -3  -8   5 69425.2 2236.48  15
  -3  -7 -14 4180.54 518.659  14
  -3  -7 -13 30009.9 1675.11  14
  -3  -7 -12 43385.7 2343.55  14
  -3  -7 -11 7023.72 1085.99  14
  -3  -7 -10 46296.0 2924.27  14
  -3  -7  -9 9677.09 1466.31  14
  -3  -7  -8 115994. 4913.36  14
  -3  -7  -7 42687.9 2913.94  14
  -3  -7  -6 27155.5 2198.13  14
  -3  -7  -5 55050.3 2935.98  14
  -3  -7  -4 8368.48 1044.47  14
  -3  -7  -3 88433.0 4088.37  15
  -3  -7  -2 4901.57 951.592  15
  -3  -7  -1 272947. 6799.60  15
  -3  -7   0 50943.0 2852.17  15
  -3  -7   1 52893.5 2828.12  15
  -3  -7   2 117930. 3996.84  15
  -3  -7   3 536.480 345.141  15
  -3  -7   4 102486. 3468.30  15
  -3  -7   5 17182.2 1324.86  15
  -3  -7   6 41086.2 1878.17  15
  -3  -7   7 27100.3 1331.73  15
  -3  -6 -14 23767.5 1288.89  14
  -3  -6 -13 62865.8 2566.92  14
  -3  -6 -12 519.988 385.054  14
  -3  -6 -11 78024.8 3695.97  14
  -3  -6 -10 14925.8 1857.99  14
  -3  -6  -9 130353. 5913.68  14
  -3  -6  -8 25560.8 2692.84  14
  -3  -6  -7 62206.1 3954.50  14
  -3  -6  -6 166143. 5792.11  14
  -3  -6  -5 407.118 231.589  14
  -3  -6  -4 130308. 4282.03  14
  -3  -6  -3 16366.6 1373.30  14
  -3  -6  -2 124005. 4451.95  15
  -3  -6  -1 176383. 5257.38  15
  -3  -6   0 9582.26 1183.94  15
  -3  -6   1 141538. 4502.01  15
  -3  -6   2 23864.7 1809.85  15
  -3  -6   3 60123.7 2803.75  15
  -3  -6   4 68449.7 2927.24  15
  -3  -6   5 34644.8 2034.99  15
  -3  -6   6 100617. 3329.64  15
  -3  -6   7 271.065 289.591  15
  -3  -6   8 35691.0 1658.20  15
  -3  -6   9 19342.4 990.888  15
  -3  -5 -14 67630.7 2106.53  14
  -3  -5 -13 1346.54 361.667  14
  -3  -5 -12 61899.7 2989.01  14
  -3  -5 -12 61086.9 3245.75  11
  -3  -5 -11 31721.8 2461.16  11
  -3  -5 -11 36498.3 2621.89  14
  -3  -5 -10 59659.8 3909.04  14
  -3  -5 -10 51041.4 3193.51  11
  -3  -5  -9 157307. 5705.77  11
  -3  -5  -9 181669. 8355.30  14
  -3  -5  -8 18550.1 4083.18  14
  -3  -5  -7 101535. 6597.49  14
  -3  -5  -6 36258.5 3046.81  14
  -3  -5  -5 151729. 5223.98  14
  -3  -5   1 55744.1 2634.23  15
  -3  -5   2 44745.6 2371.33  15
  -3  -5   3 104725. 3631.44  15
  -3  -5   4 254.251 251.161  15
  -3  -5   5 138536. 4189.60  15
  -3  -5   6 26785.4 1809.25  15
  -3  -5   7 84454.6 3140.15  15
  -3  -5   8 27496.6 1696.91  15
  -3  -5   9 5137.76 665.803  15
  -3  -5  10 60083.9 1842.77  15
  -3  -4 -15 77653.8 1980.37  18
  -3  -4 -14 3122.59 608.447  11
  -3  -4 -13 35410.8 1823.35  14
  -3  -4 -13 36897.0 2322.35  11
  -3  -4 -12 44049.7 2799.47  11
  -3  -4 -12 43979.0 2387.39  14
  -3  -4 -11 22702.7 2150.33  11
  -3  -4 -11 22517.3 1935.89  14
  -3  -4 -10 128902. 5206.94  11
  -3  -4 -10 124533. 5044.68  14
  -3  -4  -9 125.246 684.021  14
  -3  -4  -9 987.965 462.607  11
  -3  -4  -8 121715. 4925.23  11
  -3  -4  -8 105083. 6927.94  14
  -3  -4  -7 21551.2 2001.35  11
  -3  -4  -7 29341.9 3537.36  14
  -3  -4   3 1042.60 366.007  15
  -3  -4   4 178056. 4535.44  15
  -3  -4   5 67592.6 2865.58  15
  -3  -4   6 66257.8 2860.21  15
  -3  -4   7 192656. 4925.71  15
  -3  -4   8 2824.31 647.749  15
  -3  -4   9 39903.2 2094.39  15
  -3  -4  10 6240.22 742.351  15
  -3  -4  11 130963. 2765.58  15
  -3  -3 -15 35966.4 1322.49  18
  -3  -3 -14 31616.9 1892.75  11
  -3  -3 -13 40231.1 2458.52  11
  -3  -3 -12-112.977 465.451  11
  -3  -3 -11 131610. 5211.15  11
  -3  -3 -11 123635. 4210.72  14
  -3  -3 -10 13753.3 1508.64  14
  -3  -3 -10 13416.3 1706.40  11
  -3  -3  -9 99879.5 4355.38  14
  -3  -3  -9 108531. 4899.91  11
  -3  -3  -8 79143.8 4126.44  14
  -3  -3  -8 78136.1 4048.46  11
  -3  -3  -7 2243.98 602.841  11
  -3  -3   5 93995.6 3205.50  15
  -3  -3   6 145946. 4182.11  15
  -3  -3   7 733.946 308.361  15
  -3  -3   8 129281. 4073.00  15
  -3  -3   9 10968.3 1199.57  15
  -3  -3  10 53296.7 2476.91  15
  -3  -3  11 142938. 3558.42  15
  -3  -3  12 8097.87 657.209  15
  -3  -2 -15 2461.29 335.730  18
  -3  -2 -14 57232.8 1942.50  13
  -3  -2 -14 54741.3 2395.24  11
  -3  -2 -14 56153.3 1981.15  18
  -3  -2 -13 2204.98 491.872  13
  -3  -2 -13 2044.11 569.222  11
  -3  -2 -12 68198.5 3508.41  11
  -3  -2 -12 71921.5 2944.48  13
  -3  -2 -11 100922. 4653.14  11
  -3  -2 -11 109209. 3988.71  13
  -3  -2 -10 29837.8 2195.17  13
  -3  -2 -10 27738.0 2544.28  11
  -3  -2  -9 96978.8 4872.48  11
  -3  -2  -9 92649.4 3641.79  14
  -3  -2  -8 19932.6 1732.05  13
  -3  -2  -8 16598.5 1543.89  14
  -3  -2  -8 16452.2 1924.56  11
  -3  -2   3 378321. 8977.60   3
  -3  -2   4 56701.0 3553.49   3
  -3  -2   5 229374. 7536.30   3
  -3  -2   6 25801.8 2513.96   3
  -3  -2   6 27249.1 1383.60   9
  -3  -2   6 27259.5 1732.37  15
  -3  -2   7 175718. 4612.49  15
  -3  -2   8 79809.5 3219.44  15
  -3  -2   9 35999.2 2203.35  15
  -3  -2  10 107007. 3754.32  15
  -3  -2  11 305.156 256.345  15
  -3  -2  12 99250.9 2794.20  15
  -3  -2  13 41601.7 1367.48  15
  -3  -1 -14 9677.56 745.558  18
  -3  -1 -14 9765.49 851.247  13
  -3  -1 -14 8262.49 860.398  11
  -3  -1 -13 41522.2 2059.17  13
  -3  -1 -13 38421.9 2257.65  11
  -3  -1 -13 40504.4 1856.24  18
  -3  -1 -12 82636.6 3383.63  13
  -3  -1 -12 80329.2 3719.79  11
  -3  -1 -11 3119.55 859.224  11
  -3  -1 -10 198098. 7157.61  11
  -3  -1  -9 21182.5 2582.96  11
  -3  -1  -8 131472. 6286.66  11
  -3  -1   1 60467.5 3364.14   3
  -3  -1   2 343686. 8392.78   3
  -3  -1   3 39539.3 2898.70   3
  -3  -1   4 286868. 8291.65   3
  -3  -1   5 30854.4 2801.01   3
  -3  -1   6 62608.4 4228.27   3
  -3  -1   7 228515. 4450.17   9
  -3  -1   7 231945. 5202.90  15
  -3  -1   8 26917.2 1867.08  15
  -3  -1   9 287688. 6408.51  15
  -3  -1  10 74402.1 3226.78  15
  -3  -1  11 48653.1 2463.09  15
  -3  -1  12 47162.3 2150.39  15
  -3  -1  13 5193.14 591.378  15
  -3   0 -14 14006.9 995.915  13
  -3   0 -14 13298.0 749.720  18
  -3   0 -13 70552.5 2706.92  13
  -3   0 -13 63257.5 2539.58  11
  -3   0 -13 65600.7 2174.67  18
  -3   0 -12 2699.42 547.616  18
  -3   0 -12 2605.06 741.072  13
  -3   0 -12 1945.40 621.551  11
  -3   0 -11 103709. 4528.28  11
  -3   0 -11 102713. 3436.74  18
  -3   0 -10 36718.7 3148.87  11
  -3   0  -9 126155. 4422.84  10
  -3   0  -9 134278. 4987.91   7
  -3   0  -8 131389. 4913.73   7
  -3   0  -8 129063. 4421.83  10
  -3   0  -7 8142.50 1125.36  10
  -3   0  -4 367070. 9415.85   1
  -3   0   1 601634. 10785.7   3
  -3   0   2 53055.5 3274.84   3
  -3   0   3 189662. 6532.89   3
  -3   0   4 368939. 9714.97   3
  -3   0   5 17289.9 2235.18   3
  -3   0   6 152768. 7039.38   3
  -3   0   7 38566.1 3675.79   3
  -3   0   7 39166.8 1827.06   9
  -3   0   7 39011.5 2061.96  15
  -3   0   8 202635. 8628.49   3
  -3   0   8 227443. 5425.84  15
  -3   0   9 148687. 4571.11  15
  -3   0  10 58539.5 2892.43  15
  -3   0  11 184428. 4963.87  15
  -3   0  12 796.297 434.903  15
  -3   0  13 73711.6 2465.58  15
  -3   0  14 22173.0 1076.85  15
  -3   1 -14 76970.4 2140.44  13
  -3   1 -13 8777.49 914.839  13
  -3   1 -13 8717.17 671.509  18
  -3   1 -12 79078.0 3219.62  13
  -3   1 -12 76787.2 2460.94  18
  -3   1 -11 31908.2 2133.55  11
  -3   1 -11 36519.3 1899.71  18
  -3   1 -10 59907.8 3217.71   7
  -3   1 -10 61065.8 2618.41  18
  -3   1 -10 52428.6 3157.38  11
  -3   1 -10 59839.4 3039.14  10
  -3   1  -9 162864. 5084.09  10
  -3   1  -9 160280. 4375.66  18
  -3   1  -9 171223. 5746.54   7
  -3   1  -8 298.658 279.149   7
  -3   1  -8 2618.34 940.357  10
  -3   1  -7 81467.9 3558.72  10
  -3   1  -7 105916. 9814.63   1
  -3   1  -6 50377.1 5672.81   1
  -3   1  -5 273589. 11410.0   1
  -3   1  -4 298846. 10234.3   1
  -3   1  -3 7407.29 1474.01   1
  -3   1   0 97258.7 4082.76   3
  -3   1   1 164749. 5522.69   3
  -3   1   2 154239. 5650.92   3
  -3   1   3 513690. 11101.0   3
  -3   1   4-188.791 479.723   3
  -3   1   5 233487. 8706.56   3
  -3   1   6 63829.9 4845.08   3
  -3   1   7 87812.3 5970.56   3
  -3   1   7 95508.9 3245.68  15
  -3   1   8 255029. 10571.2   3
  -3   1   8 249040. 5317.96   6
  -3   1   8 253750. 5780.28  15
  -3   1   9 676.861 262.629  15
  -3   1   9 936.807 280.085   6
  -3   1  10 205528. 5446.44  15
  -3   1  11 11474.6 1271.84  15
  -3   1  12 68171.1 2810.72  15
  -3   1  13 48843.4 2118.53  15
  -3   1  14 28649.4 1357.07  15
  -3   2 -13 23512.9 1344.11  13
  -3   2 -12 68502.8 1922.82  18
  -3   2 -12 71703.7 2802.18  13
  -3   2 -11 18727.2 1699.45  13
  -3   2 -11 18173.1 1199.16  18
  -3   2 -11 19459.5 1630.12  10
  -3   2 -10 199597. 5628.94   7
  -3   2 -10 188278. 5355.51  10
  -3   2 -10 196106. 4410.62  18
  -3   2  -9 12220.4 1517.50   7
  -3   2  -9 11462.8 1110.72  18
  -3   2  -9 11936.0 1512.72  10
  -3   2  -8 62072.3 3257.04  10
  -3   2  -8 63950.3 2647.02  18
  -3   2  -7 131115. 3728.87  18
  -3   2  -7 140323. 9844.42   1
  -3   2  -7 128494. 4668.07  10
  -3   2  -6 31654.0 2270.61  10
  -3   2  -6 37657.2 4764.55   1
  -3   2  -6 36626.3 1852.07  18
  -3   2  -5 199232. 10117.6   1
  -3   2  -4 3896.89 1283.36   1
  -3   2  -3 167013. 7754.13   1
  -3   2  -1 222602. 5739.37   5
  -3   2   0 370377. 8032.01   3
  -3   2   0 381326. 7074.22   5
  -3   2   1 19230.1 1882.21   3
  -3   2   1 19399.5 1483.53   5
  -3   2   2 377152. 9117.05   3
  -3   2   3 46054.8 3387.46   3
  -3   2   4 519124. 12659.8   3
  -3   2   5 155166. 7651.28   3
  -3   2   6 46537.5 4523.09   3
  -3   2   7 245594. 11053.0   3
  -3   2   7 235972. 4411.60   6
  -3   2   8 3989.55 695.254  15
  -3   2   8 3209.31 1248.90   3
  -3   2   8 3238.88 658.086   6
  -3   2   9 154916. 8848.44   3
  -3   2   9 169137. 4779.15  15
  -3   2  10 62320.2 2439.72   6
  -3   2  10 51507.4 2657.11  15
  -3   2  11 80011.5 3249.06  15
  -3   2  12 68002.1 2839.92  15
  -3   2  13 4185.18 662.121  15
  -3   2  14 99814.1 2695.02  15
  -3   2  15 12820.0 718.794  15
  -3   3 -13 68212.2 1832.05  13
  -3   3 -12 10250.2 948.914  13
  -3   3 -11 72446.2 2930.59  13
  -3   3 -11 73652.4 2914.74  10
  -3   3 -10 35117.6 2284.16  13
  -3   3 -10 38215.6 2362.12  10
  -3   3 -10 36147.4 1632.77  18
  -3   3  -9 63065.7 3300.25  13
  -3   3  -9 59766.1 2322.71  18
  -3   3  -9 63279.5 3234.45  10
  -3   3  -8 94409.0 3074.34  18
  -3   3  -8 90860.1 4019.94  10
  -3   3  -7 8505.33 2175.75   1
  -3   3  -7 8872.47 951.335  18
  -3   3  -7 8980.67 1272.90  10
  -3   3  -6 345998. 5028.22  12
  -3   3  -6 336555. 7986.58  10
  -3   3  -6 351099. 14488.0   1
  -3   3  -6 330970. 5776.33  18
  -3   3  -5 5770.88 932.215  10
  -3   3  -5 5949.98 893.673  13
  -3   3  -5 5406.19 596.800  12
  -3   3  -5 6165.52 720.160  18
  -3   3  -5 4135.57 1316.40   1
  -3   3  -4 129458. 7762.91   1
  -3   3  -3 190436. 8936.88   1
  -3   3  -1 258386. 7260.85   5
  -3   3   0 7708.30 1137.98   3
  -3   3   0 7204.42 1125.52   5
  -3   3   1 212663. 6411.07   3
  -3   3   1 211760. 6133.35   5
  -3   3   2 160371. 6041.20   3
  -3   3   2 157258. 5290.21   5
  -3   3   3 224874. 7917.46   3
  -3   3   3 232457. 6624.91   5
  -3   3   4 376448. 11524.7   3
  -3   3   5 25424.2 3423.39   3
  -3   3   6 284614. 13260.9   3
  -3   3   7 34948.1 5069.70   3
  -3   3   7 30276.6 1742.73   6
  -3   3   7 25178.8 1581.10  15
  -3   3   8 177578. 11335.2   3
  -3   3   8 163580. 5103.60   6
  -3   3   8 178490. 4580.93  15
  -3   3   9 138595. 9104.56   3
  -3   3   9 137773. 4521.44   6
  -3   3   9 157263. 4457.80  15
  -3   3  10 25525.0 1629.00   6
  -3   3  10 26023.3 1839.86  15
  -3   3  11 76821.3 3133.67  15
  -3   3  12 2042.87 556.800  15
  -3   3  13 91846.9 3043.78  15
  -3   3  14 28902.7 1450.79  15
  -3   3  15 31123.8 1191.29  15
  -3   4 -12 45694.6 1524.71  13
  -3   4 -11 91237.9 2809.72  13
  -3   4 -11 88800.0 2876.10  10
  -3   4 -10 4301.02 878.229  10
  -3   4 -10 1524.40 454.413  13
  -3   4  -9 77123.6 3485.95  10
  -3   4  -9 71505.8 3136.87  13
  -3   4  -8 853.318 382.885  13
  -3   4  -8 754.433 247.890  18
  -3   4  -8 377.310 464.045  10
  -3   4  -7 84631.3 3624.64  13
  -3   4  -7 88930.1 4165.86  10
  -3   4  -7 87320.4 2795.61  18
  -3   4  -6 189883. 5339.74  13
  -3   4  -6 191415. 3930.73  12
  -3   4  -6 198202. 6434.01  10
  -3   4  -6 187200. 4198.29  18
  -3   4  -6 198856. 10717.2   1
  -3   4  -5 81923.7 2940.17   8
  -3   4  -5 88829.2 7024.71   1
  -3   4  -5 86207.2 3372.45  13
  -3   4  -5 84497.6 2553.48  12
  -3   4  -5 83530.9 2740.26  18
  -3   4  -5 92090.6 4431.52  10
  -3   4  -4 101012. 3092.60   8
  -3   4  -4 106959. 3495.70  13
  -3   4  -4 106232. 2885.89  12
  -3   4  -4 105419. 7319.74   1
  -3   4  -4 106892. 3002.14  18
  -3   4  -4 118211. 5203.23  10
  -3   4  -3 8179.90 2062.95   1
  -3   4  -2 307423. 9295.77   5
  -3   4  -1 13131.9 1866.49   5
  -3   4   0 186507. 6731.24   5
  -3   4   1 155103. 5371.34   3
  -3   4   1 155154. 6110.91   5
  -3   4   2 72852.1 4069.03   3
  -3   4   2 76626.6 4226.33   5
  -3   4   3 242071. 7722.82   5
  -3   4   3 241780. 8390.87   3
  -3   4   4 907.495 692.163   3
  -3   4   4 1070.72 523.460   5
  -3   4   5 164321. 9559.99   3
  -3   4   6 140773. 11372.0   3
  -3   4   6 108459. 3256.54   6
  -3   4   7 76491.0 3263.41   6
  -3   4   7 80645.0 2743.46  15
  -3   4   8 74544.4 9468.49   3
  -3   4   8 80305.9 3740.95   6
  -3   4   9 14001.1 1400.00   6
  -3   4   9 13529.4 1265.89  15
  -3   4  10 318340. 6325.82  15
  -3   4  11 11250.6 1177.86  15
  -3   4  12 60601.0 2618.93  15
  -3   4  13 89039.4 2915.09  15
  -3   4  14 12718.8 966.011  15
  -3   5 -11 675.002 205.503  13
  -3   5 -10 66693.0 2228.73  13
  -3   5 -10 67617.3 2598.45  10
  -3   5  -9 10612.0 1039.49  13
  -3   5  -9 11519.5 1313.39  10
  -3   5  -8 47836.0 2813.99  10
  -3   5  -8 42116.2 2229.21  13
  -3   5  -7 49258.9 3083.93  10
  -3   5  -7 49044.2 2497.41  13
  -3   5  -6 7854.09 1003.08  13
  -3   5  -6 8110.63 850.003  12
  -3   5  -6 7913.27 1245.57  10
  -3   5  -6 7201.64 746.937  18
  -3   5  -5 210921. 5121.09   8
  -3   5  -5 222114. 5279.97  13
  -3   5  -5 216362. 4332.23  12
  -3   5  -5 218491. 4275.42  18
  -3   5  -4 1476.81 424.044  13
  -3   5  -4 474.314 248.184  12
  -3   5  -4 872.226 200.942  18
  -3   5  -4 922.416 435.590   8
  -3   5  -4 284.093 571.889   1
  -3   5  -4 434.309 748.806  10
  -3   5  -3 152892. 4045.94   8
  -3   5  -3 156882. 3740.21  12
  -3   5  -3 158100. 3583.28  18
  -3   5  -2 51587.0 2211.76   8
  -3   5  -2 53817.4 2144.98  12
  -3   5  -2 52710.0 4215.14   5
  -3   5  -2 54837.0 2053.95  18
  -3   5  -2 58369.1 5120.57  10
  -3   5  -1 39006.6 1813.54  12
  -3   5  -1 41579.4 3673.00   5
  -3   5  -1 40550.0 1719.21  18
  -3   5   0 172196. 7202.07   5
  -3   5   1 50591.5 3864.91   5
  -3   5   2 311647. 9650.13   5
  -3   5   3 16536.2 2120.97   3
  -3   5   3 16498.9 2204.04   5
  -3   5   4 158622. 7403.80   3
  -3   5   4 150962. 6841.59   5
  -3   5   5 159669. 8638.14   3
  -3   5   5 154201. 7184.77   5
  -3   5   5 142962. 3979.55  12
  -3   5   5 151284. 4144.93   6
  -3   5   6 14917.0 1482.50   6
  -3   5   6 17401.3 1435.69  12
  -3   5   6 16956.2 3461.02   3
  -3   5   7 212742. 16370.1   3
  -3   5   7 245638. 6518.06   6
  -3   5   8 43818.8 2085.44  15
  -3   5   8 44106.8 2530.07   6
  -3   5   9 53100.3 2417.68  15
  -3   5   9 57872.1 2585.69   6
  -3   5  10 50692.0 2406.37  15
  -3   5  11 146770. 4103.21  15
  -3   5  12 151212. 3972.05  15
  -3   5  13 5888.35 688.969  12
  -3   5  13 5277.36 677.028  15
  -3   5  14 119359. 2793.82  15
  -3   5  14 115593. 2437.83  12
  -3   6 -10 37117.2 1560.68  10
  -3   6  -9 29932.4 1737.52  10
  -3   6  -8 44860.6 2486.05  10
  -3   6  -7 2810.51 751.523  10
  -3   6  -6 102827. 4440.42  10
  -3   6  -5 28976.9 1922.05   8
  -3   6  -5 28718.5 1568.67  12
  -3   6  -5 27298.5 2392.84  10
  -3   6  -4 85987.0 3271.61   8
  -3   6  -4 86350.7 2763.45  12
  -3   6  -4 85769.6 4672.34  10
  -3   6  -4 81963.7 2457.61  18
  -3   6  -3 39078.7 2194.62   8
  -3   6  -3 41707.3 1949.50  12
  -3   6  -3 40876.1 3539.87  10
  -3   6  -3 40882.5 1762.94  18
  -3   6  -2 45012.9 2301.18   8
  -3   6  -2 46135.3 2076.46  12
  -3   6  -2 47280.4 4227.25   5
  -3   6  -2 46187.9 1879.01  18
  -3   6  -1 232204. 5112.34   8
  -3   6  -1 234245. 4737.45  12
  -3   6  -1 243386. 9454.32   5
  -3   6  -1 227980. 4256.02  18
  -3   6   0 80406.5 2771.29  12
  -3   6   0 81963.2 5372.68   5
  -3   6   0 77683.8 2450.14  18
  -3   6   1 189160. 4319.77  12
  -3   6   1 187551. 3824.85  18
  -3   6   1 188003. 8085.53   5
  -3   6   2 119131. 3063.17  18
  -3   6   2 112450. 3382.37  12
  -3   6   2 120246. 6485.39   5
  -3   6   3 51307.5 2307.83  12
  -3   6   3 51216.9 4241.78   5
  -3   6   3 54587.1 2078.14  18
  -3   6   4 95650.3 3205.76  12
  -3   6   4 83618.2 3462.92   6
  -3   6   4 97025.6 5896.76   5
  -3   6   5 4188.13 718.401  12
  -3   6   5 3791.54 781.583   6
  -3   6   5 3823.27 1194.92   3
  -3   6   5 3929.55 1306.93   5
  -3   6   6 267384. 11439.8   3
  -3   6   6 267885. 6258.34   6
  -3   6   6 267441. 5686.50  12
  -3   6   6 290940. 10634.4   5
  -3   6   7 42722.0 5188.86   3
  -3   6   7 51239.0 2559.57   6
  -3   6   7 44542.9 2332.53  12
  -3   6   8 92688.2 3182.25   6
  -3   6   8 80564.6 3159.88  12
  -3   6   9 124576. 3928.19  12
  -3   6   9 121790. 3441.71  15
  -3   6  10 5586.57 745.843  15
  -3   6  10 6303.87 872.744  12
  -3   6  11 116870. 3372.52  15
  -3   6  11 120230. 3562.43  12
  -3   6  11 113354. 2426.77  17
  -3   6  12 3123.42 532.327  15
  -3   6  12 3190.65 510.884  12
  -3   6  13 71501.1 2088.95  12
  -3   7  -9 61196.2 1925.04  10
  -3   7  -8 1919.96 560.705  10
  -3   7  -7 71204.7 3005.21  10
  -3   7  -6 58939.8 3025.56  10
  -3   7  -5 25463.3 2114.41  10
  -3   7  -4 101734. 3541.70   8
  -3   7  -4 99768.1 2898.72  12
  -3   7  -4 94027.3 4389.92  10
  -3   7  -3 89.1617 226.522  12
  -3   7  -3 222.620 264.230   8
  -3   7  -2 57560.4 2690.31   8
  -3   7  -2 49511.6 3650.20  10
  -3   7  -2 56263.8 2297.83  12
  -3   7  -2 54423.0 1968.50  18
  -3   7  -1 7438.98 980.496   8
  -3   7  -1 7546.03 836.354  12
  -3   7  -1 8166.03 792.074  18
  -3   7   0 160632. 3993.07  12
  -3   7   0 158192. 3545.16  18
  -3   7   1 275805. 5307.65  12
  -3   7   1 279055. 10413.6   5
  -3   7   1 269868. 4760.79  18
  -3   7   1 273010. 4270.56  17
  -3   7   2 1298.96 426.637  18
  -3   7   2 895.528 324.250  12
  -3   7   3 187927. 4464.98  12
  -3   7   3 188928. 8611.44   5
  -3   7   4 5567.86 771.308  12
  -3   7   4 4765.01 1402.33   5
  -3   7   5 78916.9 2964.17  12
  -3   7   5 82662.8 5734.29   5
  -3   7   6 164847. 4328.21  12
  -3   7   7 82186.0 3053.62  12
  -3   7   8 141531. 3975.78  12
  -3   7   9-22.3068 215.212  12
  -3   7  10 131383. 3574.87  12
  -3   7  10 128874. 2835.74  17
  -3   7  11 21082.8 1014.13  17
  -3   7  11 21360.3 1303.32  12
  -3   8  -7 64465.3 2236.66  10
  -3   8  -6 7120.78 879.557  10
  -3   8  -5 100538. 3627.75  10
  -3   8  -4 10721.4 1241.00  10
  -3   8  -4 12420.5 1199.06   8
  -3   8  -3 100906. 3469.44   8
  -3   8  -3 100580. 2815.33  12
  -3   8  -3 93820.8 4001.99  10
  -3   8  -2 89367.4 3337.64   8
  -3   8  -2 88124.9 2704.27  12
  -3   8  -1 17853.8 1500.59   8
  -3   8  -1 19378.8 1323.41  12
  -3   8   0 115071. 3870.69   8
  -3   8   0 114826. 3268.64  12
  -3   8   1 845.085 298.122  12
  -3   8   2 137661. 3673.98  12
  -3   8   2 131117. 2942.43  17
  -3   8   3 61558.2 2487.82  12
  -3   8   3 61307.6 2091.06  17
  -3   8   4 63833.6 2202.42  17
  -3   8   4 61153.0 2494.52  12
  -3   8   5 67218.2 2303.58  17
  -3   8   5 63302.7 2546.19  12
  -3   8   6 2999.79 575.503  12
  -3   8   6 4025.56 586.083  17
  -3   8   7 194961. 3921.16  17
  -3   8   7 186590. 4322.35  12
  -3   8   8 1492.19 404.694  12
  -3   8   8 1491.05 354.135  17
  -3   8   9 65754.5 2342.56  12
  -3   8   9 70144.8 2125.40  17
  -3   8  10 56746.2 1781.89  17
  -3   8  11 11262.1 712.329  17
  -3   8  12 51971.1 1311.62  17
  -3   9  -5 16061.2 1107.27  10
  -3   9  -4 27422.9 1623.70  10
  -3   9  -3 103857. 3117.85   8
  -3   9  -3 95959.6 3244.93  10
  -3   9  -2 1235.32 483.065   8
  -3   9  -2 1224.98 345.541  12
  -3   9  -2 13.0976 311.102  10
  -3   9  -1 106464. 3472.51   8
  -3   9  -1 100572. 2694.30  12
  -3   9   0 16258.3 1387.14   8
  -3   9   0 16147.2 1117.85  12
  -3   9   1 54821.9 2091.47  12
  -3   9   1 55684.5 2612.46   8
  -3   9   2 56149.6 1793.51  17
  -3   9   2 59225.5 2199.58  12
  -3   9   3 29280.9 1568.07  12
  -3   9   3 28623.9 1325.58  17
  -3   9   4 73489.9 2217.10  17
  -3   9   4 70471.3 2465.35  12
  -3   9   5 382.925 233.299  12
  -3   9   5 711.676 274.633  17
  -3   9   6 50426.0 1853.63  17
  -3   9   6 47227.3 1942.30  12
  -3   9   7 46466.2 1768.58  17
  -3   9   7 42956.1 1763.51  12
  -3   9   8 47264.7 1726.82  17
  -3   9   9 49061.8 1663.94  17
  -3   9  10 3383.92 412.238  17
  -3   9  11 70687.9 1684.03  17
  -3   9  12 8366.73 467.964  17
  -3  10  -2 61894.0 2102.52   8
  -3  10  -1 51327.9 2081.64   8
  -3  10   0 12389.3 1082.11   8
  -3  10   0 11634.8 806.938  12
  -3  10   1 43519.3 2068.27   8
  -3  10   1 38738.3 1470.13  12
  -3  10   2 2313.56 380.201  12
  -3  10   2 1956.78 472.445   8
  -3  10   3 71118.2 2067.91  12
  -3  10   3 72165.9 1945.10  17
  -3  10   4 2701.93 412.345  12
  -3  10   4 3164.09 427.643  17
  -3  10   5 39315.1 1464.84  12
  -3  10   5 40655.1 1538.15  17
  -3  10   6 46822.2 1656.09  17
  -3  10   7 9263.78 722.144  17
  -3  10   8 68286.4 1908.35  17
  -3  10   9 1299.69 263.373  17
  -3  10  10 37447.0 1233.83  17
  -3  10  11 14730.0 663.894  17
  -3  11   0 50763.5 1644.77   8
  -3  11   1 971.749 296.945   8
  -3  11   2 29342.6 1408.02   8
  -3  11   3 25066.8 1336.60   8
  -3  11   4 17282.9 1109.07   8
  -3  11   4 15680.3 768.922  17
  -3  11   5 50560.1 1880.97   8
  -3  11   5 47534.4 1418.80  17
  -3  11   6 765.306 211.690  17
  -3  11   7 50900.2 1469.29  17
  -3  11   8 3348.96 371.103  17
  -3  11   9 48387.0 1287.85  17
  -2 -12  -9 1551.31 295.962  15
  -2 -12  -8 16078.9 955.259  15
  -2 -12  -7 14258.5 927.538  15
  -2 -12  -6 12031.0 828.722  15
  -2 -12  -5 35722.0 1335.14  15
  -2 -11 -12-71.4917 154.690  15
  -2 -11 -11 46017.4 1815.61  15
  -2 -11 -10 16621.1 1228.05  15
  -2 -11  -9 31091.9 1791.54  15
  -2 -11  -8 26530.1 1735.91  15
  -2 -11  -7 3988.77 740.249  15
  -2 -11  -6 50234.4 2433.46  15
  -2 -11  -5 404.669 225.116  15
  -2 -11  -4 33519.6 1839.34  15
  -2 -11  -3 28337.8 1579.01  15
  -2 -11  -2 1216.01 275.910  15
  -2 -10 -13 2683.56 369.549  14
  -2 -10 -12 24694.5 1270.92  14
  -2 -10 -11 35563.8 1689.71  14
  -2 -10 -10 10087.3 975.438  14
  -2 -10  -9 73035.4 2660.11  14
  -2 -10  -8 447.934 277.805  14
  -2 -10  -6 31753.3 2274.94  15
  -2 -10  -5 17854.8 1675.52  15
  -2 -10  -4 43739.9 2551.27  15
  -2 -10  -3 748.898 361.347  15
  -2 -10  -2 54934.5 2582.26  15
  -2 -10  -1 12018.7 1120.88  15
  -2 -10   0 30734.7 1608.69  15
  -2  -9 -14 34123.4 1340.63  14
  -2  -9 -13 29341.0 1486.12  14
  -2  -9 -12 33874.7 1777.20  14
  -2  -9 -11 566.358 341.739  14
  -2  -9 -10 53419.9 2525.80  14
  -2  -9  -9 21793.1 1677.54  14
  -2  -9  -8 60121.5 2795.87  14
  -2  -9  -7 82292.6 3219.55  14
  -2  -9  -4 13956.1 1570.88  15
  -2  -9  -3 86627.8 3780.72  15
  -2  -9  -2 50673.9 2811.13  15
  -2  -9  -1 38562.8 2317.46  15
  -2  -9   0 85529.3 3283.22  15
  -2  -9   1 477.343 295.365  15
  -2  -9   2 73131.8 2535.42  15
  -2  -8 -15 24360.9 1041.44  14
  -2  -8 -14 3982.56 551.497  14
  -2  -8 -13 116652. 3282.78  14
  -2  -8 -12 1645.43 472.994  14
  -2  -8 -11 37497.8 2177.11  14
  -2  -8 -10 43188.0 2442.37  14
  -2  -8  -9 25888.2 1936.65  14
  -2  -8  -8 176024. 5092.01  14
  -2  -8  -7 1497.77 445.255  14
  -2  -8  -6 89090.5 3411.61  14
  -2  -8  -2 14167.7 1487.10  15
  -2  -8  -1 172219. 5101.55  15
  -2  -8   0 7960.94 1097.44  15
  -2  -8   1 53474.5 2601.67  15
  -2  -8   2 24961.0 1675.24  15
  -2  -8   3 59989.2 2418.31  15
  -2  -7 -15 2062.82 344.977  14
  -2  -7 -14 68221.8 2353.77  14
  -2  -7 -13 35675.2 1926.90  14
  -2  -7 -12 50797.8 2513.48  14
  -2  -7 -11 68335.8 3065.55  14
  -2  -7 -10 5333.73 908.682  14
  -2  -7  -9 174249. 5275.52  14
  -2  -7  -8 16038.2 1609.13  14
  -2  -7  -7 104645. 3994.66  14
  -2  -7  -6 50615.1 2624.87  14
  -2  -7  -5 46884.3 2369.17  14
  -2  -7  -1 55636.8 2764.41  15
  -2  -7   0 84501.2 3334.85  15
  -2  -7   1 85396.7 3266.93  15
  -2  -7   2 7067.84 901.694  15
  -2  -7   3 76296.9 2893.00  15
  -2  -7   4 11257.2 1086.13  15
  -2  -7   5 148705. 3768.53  15
  -2  -6 -15 48422.9 1675.41  14
  -2  -6 -14 62092.8 2334.18  14
  -2  -6 -14 59936.6 2588.97  11
  -2  -6 -13 16621.5 1357.50  14
  -2  -6 -13 16668.0 1516.36  11
  -2  -6 -12 96516.7 3862.25  11
  -2  -6 -12 97790.0 3574.00  14
  -2  -6 -11 300.450 319.307  11
  -2  -6 -11-37.4939 250.232  14
  -2  -6 -10 157134. 4994.72  14
  -2  -6 -10 156769. 5101.09  11
  -2  -6  -9 41123.5 2681.63  14
  -2  -6  -9 42853.4 2623.10  11
  -2  -6  -8 129681. 4849.31  14
  -2  -6  -8 126642. 4392.46  11
  -2  -6  -7 207294. 5967.70  14
  -2  -6   2 100265. 3349.09  15
  -2  -6   3 80477.4 2964.95  15
  -2  -6   4 55571.8 2413.18  15
  -2  -6   5 105191. 3315.28  15
  -2  -6   6 22268.8 1475.84  15
  -2  -5 -15 69607.1 2566.85  11
  -2  -5 -14 8027.70 845.519  14
  -2  -5 -14 6768.34 962.125  11
  -2  -5 -13 88752.5 3166.64  14
  -2  -5 -13 86695.2 3579.10  11
  -2  -5 -12 13281.2 1327.29  14
  -2  -5 -12 12056.1 1410.62  11
  -2  -5 -11 87803.5 3681.81  14
  -2  -5 -11 82220.4 3747.16  11
  -2  -5 -10 96867.4 4057.17  14
  -2  -5 -10 92691.8 3959.93  11
  -2  -5  -9 21507.6 2052.91  14
  -2  -5  -9 18759.1 1745.78  11
  -2  -5  -8 137315. 5665.17  14
  -2  -5  -8 129296. 4399.38  11
  -2  -5   4 321456. 5775.44  15
  -2  -5   5 19974.1 1442.16  15
  -2  -5   6 171796. 4287.02  15
  -2  -5   7 74232.3 2767.64  15
  -2  -5   8 50309.1 2213.51  15
  -2  -4 -16 58700.5 1936.24  11
  -2  -4 -15 689.910 326.892  11
  -2  -4 -14 118950. 3938.83  11
  -2  -4 -13 20256.6 1745.21  11
  -2  -4 -13 21060.2 1487.63  14
  -2  -4 -12 52681.3 2971.96  11
  -2  -4 -12 53004.0 2574.06  14
  -2  -4 -11 140625. 4475.53  14
  -2  -4 -11 139282. 4859.53  11
  -2  -4 -10 710.660 413.405  14
  -2  -4 -10 250.592 255.987  11
  -2  -4  -9 156105. 5481.65  14
  -2  -4  -9 152128. 4916.27  11
  -2  -4   6 144906. 3868.43  15
  -2  -4   7 32316.2 1858.37  15
  -2  -4   8 155855. 4168.64  15
  -2  -4   9 14818.6 1261.28  15
  -2  -4  10 72657.7 2559.19  15
  -2  -3 -16 27602.6 1319.02  11
  -2  -3 -16 26739.4 973.127  18
  -2  -3 -15 34585.4 1859.43  11
  -2  -3 -14 50222.0 2567.29  11
  -2  -3 -13 26150.4 1999.57  11
  -2  -3 -12 147635. 4988.39  11
  -2  -3 -11 10892.5 1374.78  11
  -2  -3 -11 9241.99 1069.26  14
  -2  -3 -10 166050. 4728.72  14
  -2  -3 -10 170416. 5354.31  11
  -2  -3  -9 192737. 5479.90  11
  -2  -3  -9 173018. 5013.71  14
  -2  -3   7 142871. 3849.05  15
  -2  -3   8 8296.31 957.630  15
  -2  -3   9 29303.5 1878.99  15
  -2  -3  10 98193.3 3343.99  15
  -2  -3  11 8884.79 882.049  15
  -2  -2 -16 32484.0 1343.95  11
  -2  -2 -15 144026. 2873.44  13
  -2  -2 -15 141348. 3651.07  11
  -2  -2 -14 3354.41 687.476  11
  -2  -2 -13 72721.4 3303.42  11
  -2  -2 -12 38714.6 2516.54  11
  -2  -2 -11 79386.1 3527.17   7
  -2  -2 -11 85619.3 3817.64  11
  -2  -2 -10 209768. 5728.69   7
  -2  -2 -10 225558. 6231.04  11
  -2  -2  -9 10326.6 1198.10   7
  -2  -2  -9 12123.1 1407.54  11
  -2  -2   2 524018. 8430.94   3
  -2  -2   3 2327.03 595.521   3
  -2  -2   4 221330. 5873.69   3
  -2  -2   5 2695.76 676.656   3
  -2  -2   8 85531.8 3077.24  15
  -2  -2   9 100933. 3509.98  15
  -2  -2  10 25502.7 1776.61  15
  -2  -2  11 102392. 3364.48  15
  -2  -2  12 4475.29 642.768  15
  -2  -1 -15 15239.6 785.517  18
  -2  -1 -15 15554.8 966.964  13
  -2  -1 -15 15741.2 1129.72  11
  -2  -1 -14 97532.0 3354.40  11
  -2  -1 -13 44636.5 2506.05  11
  -2  -1 -12 9409.32 1203.37   7
  -2  -1 -12 10000.9 1286.08  11
  -2  -1 -11 181171. 5350.13   7
  -2  -1 -11 190567. 5743.25  11
  -2  -1 -10 3247.58 750.663   7
  -2  -1 -10 3488.30 828.116  11
  -2  -1  -9 306395. 6706.02   7
  -2  -1  -9 295107. 5878.52  10
  -2  -1  -8 118337. 7719.93   1
  -2  -1  -7 171274. 9461.12   1
  -2  -1  -6 307929. 10475.6   1
  -2  -1  -5 14404.6 1784.02   1
  -2  -1  -4 590980. 8949.50   1
  -2  -1  -3 16671.4 1180.34   1
  -2  -1   1 177975. 4644.45   3
  -2  -1   2 12752.5 1288.41   3
  -2  -1   3 218642. 5562.02   3
  -2  -1   4 310735. 7121.91   3
  -2  -1   5 33277.3 2450.40   3
  -2  -1   6 134621. 5291.80   3
  -2  -1   7 13564.7 1740.39   3
  -2  -1   8 324342. 5975.17  15
  -2  -1   9 539.461 311.450  15
  -2  -1  10 88190.9 3380.28  15
  -2  -1  11 156440. 4393.55  15
  -2  -1  12 68504.3 2631.02  15
  -2  -1  13 52727.6 1990.61  15
  -2  -1  14 878.894 207.293  15
  -2   0 -15 33702.3 1374.84  13
  -2   0 -15 30781.0 1354.52  11
  -2   0 -14 87612.7 2911.00  11
  -2   0 -14 87943.4 2118.50  18
  -2   0 -13 9452.87 1095.76   7
  -2   0 -13 9996.01 1136.11  11
  -2   0 -12 81132.0 3451.04   7
  -2   0 -12 82885.2 3557.63  11
  -2   0 -11 28778.9 2112.58   7
  -2   0 -11 30592.4 2260.08  11
  -2   0 -11 29803.1 1945.85  10
  -2   0 -10 126927. 4437.02   7
  -2   0 -10 130769. 4111.04  10
  -2   0  -9 125076. 4276.55   7
  -2   0  -9 119098. 3818.04  10
  -2   0  -9 112071. 6877.91   1
  -2   0  -8 13647.9 2422.95   1
  -2   0  -7 75120.8 5514.69   1
  -2   0  -6 1356.13 739.832   1
  -2   0  -5 498626. 11454.4   1
  -2   0  -4 204044. 6292.86   1
  -2   0  -3 125079. 4156.68   1
  -2   0  -2 710320. 9329.12   1
  -2   0   0 132482. 3801.97   3
  -2   0   1 8561.17 1000.56   3
  -2   0   1 6656.98 303.690   5
  -2   0   2 235858. 5567.90   3
  -2   0   2 242634. 3111.17   5
  -2   0   3 364142. 7399.45   3
  -2   0   4 228279. 6282.25   3
  -2   0   5 535588. 10446.3   3
  -2   0   6 42913.3 3138.91   3
  -2   0   7 198776. 7246.52   3
  -2   0   8 89889.8 5108.31   3
  -2   0   9 120945. 3846.08  15
  -2   0  10 148730. 4436.54  15
  -2   0  11 1214.91 483.433  15
  -2   0  12 170405. 4420.26  15
  -2   0  13 2520.27 539.720  15
  -2   0  14 100987. 2561.17  15
  -2   1 -15 60536.4 1683.09  13
  -2   1 -14 60.5610 139.977  11
  -2   1 -13 81651.3 3073.21   7
  -2   1 -13 80214.8 2893.66  11
  -2   1 -12 30479.2 2071.97   7
  -2   1 -12 31928.3 1558.52  18
  -2   1 -12 30774.4 2003.62  11
  -2   1 -11 42614.7 2552.45   7
  -2   1 -11 45104.9 2620.79  11
  -2   1 -11 48180.8 2498.78  10
  -2   1 -10 137714. 4636.67   7
  -2   1 -10 135952. 4321.86  10
  -2   1  -9 7611.88 1071.64   7
  -2   1  -9 6724.65 1687.06   1
  -2   1  -9 7921.63 1026.94  10
  -2   1  -8 164225. 8436.13   1
  -2   1  -8 169913. 4870.67   7
  -2   1  -8 164601. 4585.49  10
  -2   1  -7 18956.6 2730.97   1
  -2   1  -6 65642.8 4769.91   1
  -2   1  -5 97707.3 5281.25   1
  -2   1  -4 67155.7 3903.14   1
  -2   1  -3 589235. 10597.0   1
  -2   1  -2 46076.0 2727.60   1
  -2   1  -1 805040. 9211.69   3
  -2   1  -1 794592. 10940.3   1
  -2   1  -1 794054. 8905.44   5
  -2   1   0 380293. 6404.68   3
  -2   1   0 368586. 5244.18   5
  -2   1   1 36787.4 1506.55   5
  -2   1   1 39007.9 2127.65   3
  -2   1   2 696320. 7547.79   5
  -2   1   2 663134. 9663.75   3
  -2   1   3 27692.2 2074.84   3
  -2   1   4 741719. 11953.3   3
  -2   1   5 26292.7 2429.26   3
  -2   1   6 78211.4 4488.79   3
  -2   1   7 143184. 6523.99   3
  -2   1   8 79045.1 5112.54   3
  -2   1   9 165510. 7585.62   3
  -2   1   9 175803. 4597.52  15
  -2   1  10 7939.91 1620.91   3
  -2   1  10 6753.81 938.021  15
  -2   1  11 170491. 4734.35  15
  -2   1  12 59478.0 2677.27  15
  -2   1  13 40486.1 2038.95  15
  -2   1  14 70283.9 2350.21  15
  -2   1  15 8075.69 612.861  15
  -2   2 -14 39081.3 1567.19  13
  -2   2 -13 49329.7 2159.11   7
  -2   2 -12 4226.32 750.271   7
  -2   2 -12 4268.45 668.775  11
  -2   2 -12 5488.41 819.175  10
  -2   2 -11 86804.0 3541.73   7
  -2   2 -11 85097.8 3274.46  11
  -2   2 -11 92267.9 3450.72  10
  -2   2 -10 3716.02 776.590   7
  -2   2 -10 4080.53 796.808  11
  -2   2 -10 4399.61 878.756  10
  -2   2 -10 4007.09 563.729  18
  -2   2  -9 150278. 4817.89   7
  -2   2  -9 149385. 4690.19  10
  -2   2  -9 149992. 3655.49  18
  -2   2  -9 153215. 8405.75   1
  -2   2  -8 43051.4 2513.65   7
  -2   2  -8 40181.0 2343.50  10
  -2   2  -8 41261.7 4278.10   1
  -2   2  -7 159603. 8120.99   1
  -2   2  -6 276735. 10136.6   1
  -2   2  -5 3170.69 1114.13   1
  -2   2  -4 293724. 8841.45   1
  -2   2  -3 157478. 5970.47   1
  -2   2  -2 507167. 8916.15   5
  -2   2  -2 517987. 10322.9   1
  -2   2  -1 159676. 5608.30   1
  -2   2  -1 158499. 3793.96   3
  -2   2  -1 163361. 4587.71   5
  -2   2   0 11757.9 1095.16   3
  -2   2   0 10911.3 1121.42   5
  -2   2   1 582716. 8275.92   5
  -2   2   1 592069. 8628.10   3
  -2   2   2 2625.83 619.956   3
  -2   2   2 2337.93 480.984   5
  -2   2   3 768755. 11779.6   3
  -2   2   3 736525. 10141.7   5
  -2   2   4 431640. 9820.52   3
  -2   2   5 389463. 10550.6   3
  -2   2   6 206265. 8282.28   3
  -2   2   7 907.272 336.748   3
  -2   2   8 200348. 8745.26   3
  -2   2   9 12423.6 1058.16   6
  -2   2   9 9676.93 1929.53   3
  -2   2   9 11738.7 1163.03  15
  -2   2  10 67942.6 5129.93   3
  -2   2  10 73874.0 3058.73  15
  -2   2  11 62857.7 2832.18  15
  -2   2  12 50256.2 2484.73  15
  -2   2  13 124826. 3721.52  15
  -2   2  14 22323.7 1409.46  15
  -2   2  15 54921.3 1778.25  15
  -2   3 -13 554.517 268.186  13
  -2   3 -12 85562.4 2919.88   7
  -2   3 -12 96367.1 2955.75  10
  -2   3 -11 31014.1 1968.01   7
  -2   3 -11 33249.7 2031.10  10
  -2   3 -10 39172.9 2366.77   7
  -2   3 -10 39893.8 2389.05  10
  -2   3  -9 102557. 3934.31   7
  -2   3  -9 98822.5 3908.21  10
  -2   3  -8 62159.1 5398.80   1
  -2   3  -8 67223.5 3182.50   7
  -2   3  -8 64677.4 3150.88  10
  -2   3  -7 229328. 4236.67  18
  -2   3  -7 238210. 10347.1   1
  -2   3  -7 246766. 5994.03   7
  -2   3  -7 232656. 5946.50  10
  -2   3  -6 10803.5 2082.91   1
  -2   3  -5 410643. 12264.4   1
  -2   3  -4 204344. 8113.25   1
  -2   3  -3 194166. 7372.36   1
  -2   3  -3 197434. 6629.89   5
  -2   3  -2 489890. 9885.49   5
  -2   3  -2 484427. 11099.7   1
  -2   3  -1 108620. 5069.82   1
  -2   3  -1 109137. 4336.51   5
  -2   3   0 292091. 5547.24   3
  -2   3   0 303897. 6987.78   5
  -2   3   1 489145. 7937.79   3
  -2   3   1 493781. 8825.65   5
  -2   3   2 82704.4 3526.95   3
  -2   3   2 77097.3 3485.55   5
  -2   3   3 173506. 5883.77   3
  -2   3   3 157710. 5147.73   5
  -2   3   4 11520.3 1809.24   3
  -2   3   4 7922.97 1219.87   5
  -2   3   5 423129. 13131.6   3
  -2   3   6 1025.57 817.175   3
  -2   3   7 136788. 8759.73   3
  -2   3   8 144146. 8205.44   3
  -2   3   9 30175.2 3603.39   3
  -2   3   9 36727.0 1810.63   6
  -2   3   9 33155.4 1913.68  15
  -2   3  10 142530. 7775.36   3
  -2   3  10 146195. 4207.79  15
  -2   3  11 6085.87 860.105  15
  -2   3  12 98599.1 3493.47  15
  -2   3  13 13448.1 1249.99  15
  -2   3  14 43311.9 1975.42  15
  -2   3  15 56247.6 1898.41  15
  -2   4 -13 60198.5 1581.76  13
  -2   4 -12 39957.6 1604.28   7
  -2   4 -12 41439.1 1737.55  13
  -2   4 -12 45096.7 1762.95  10
  -2   4 -11 32211.4 1754.45   7
  -2   4 -11 37010.5 2003.82  10
  -2   4 -10 92048.2 3321.17   7
  -2   4 -10 94067.5 3608.00  10
  -2   4  -9 3986.79 733.846   7
  -2   4  -9 3243.83 634.090  10
  -2   4  -8 189458. 5253.18   7
  -2   4  -8 185785. 5591.08  10
  -2   4  -7 49204.0 4863.56   1
  -2   4  -7 42620.4 2656.78  10
  -2   4  -6 145334. 4072.19   8
  -2   4  -6 147283. 3357.15  12
  -2   4  -6 143934. 8101.51   1
  -2   4  -6 142101. 4854.87  10
  -2   4  -5 412834. 13165.7   1
  -2   4  -5 424735. 8287.02  10
  -2   4  -4 1766.53 932.455   1
  -2   4  -3 186436. 7150.04   5
  -2   4  -3 179114. 7753.29   1
  -2   4  -2 6423.06 1308.66   5
  -2   4  -2 5527.75 1353.52   1
  -2   4  -1 368447. 10378.0   1
  -2   4  -1 370645. 9227.39   5
  -2   4   0 57312.1 2337.38   3
  -2   4   0 59990.2 3547.86   5
  -2   4   1 74418.2 3040.84   3
  -2   4   1 72931.8 3840.95   5
  -2   4   2 438202. 8553.27   3
  -2   4   2 416244. 9382.28   5
  -2   4   3 81368.1 4186.02   3
  -2   4   3 66800.2 3766.20   5
  -2   4   4 72447.2 4092.76   5
  -2   4   4 100431. 5768.45   3
  -2   4   5 5635.49 1842.73   3
  -2   4   5 3724.22 1013.01   5
  -2   4   6 103596. 11783.6   3
  -2   4   7 115644. 10824.3   3
  -2   4   8 1842.69 969.900   3
  -2   4   9 151207. 8675.42   3
  -2   4   9 153398. 4131.29  15
  -2   4  10 5750.17 1524.72   3
  -2   4  10 6108.95 879.595  15
  -2   4  11 199437. 5033.17  15
  -2   4  12 37229.2 2136.08  15
  -2   4  13 35209.7 1985.76  15
  -2   4  14 89181.9 2846.61  15
  -2   4  15 637.424 265.619  15
  -2   5 -11 117222. 2786.83  13
  -2   5 -11 113811. 3060.52  10
  -2   5 -10 6642.94 773.078  13
  -2   5 -10 6623.27 922.393  10
  -2   5  -9 80645.8 3462.46  10
  -2   5  -8 16483.2 1622.19  10
  -2   5  -7 41377.1 2714.17  10
  -2   5  -6 281342. 6057.06   8
  -2   5  -6 281197. 7277.51  10
  -2   5  -6 281809. 11825.5   1
  -2   5  -5 4624.75 786.956   8
  -2   5  -5 3847.79 1362.79   1
  -2   5  -5 5225.52 662.492  12
  -2   5  -5 5738.29 1037.22  10
  -2   5  -4 101732. 3317.89   8
  -2   5  -4 103926. 2827.34  12
  -2   5  -4 113414. 4555.55  10
  -2   5  -4 107020. 6805.35   1
  -2   5  -3 87892.2 5392.86   5
  -2   5  -3 78565.3 5626.11   1
  -2   5  -2 84688.0 5589.89   1
  -2   5  -2 84026.6 5024.35   5
  -2   5  -1 271924. 8730.34   5
  -2   5  -1 253001. 9347.48   1
  -2   5   0 9234.28 1590.71   5
  -2   5   1 156957. 6299.77   5
  -2   5   2 61012.4 3932.93   5
  -2   5   2 62378.5 3153.90   3
  -2   5   3 140276. 5390.36   3
  -2   5   3 134980. 6004.17   5
  -2   5   4 106265. 5510.55   3
  -2   5   4 108534. 5475.47   5
  -2   5   5 82306.0 5861.67   3
  -2   5   5 84893.1 5030.03   5
  -2   5   6 98375.7 8219.13   3
  -2   5   6 128355. 6435.40   5
  -2   5   7 8737.15 2528.63   3
  -2   5   7 10694.6 1965.54   5
  -2   5   8 194736. 11010.7   3
  -2   5   8 210663. 4411.75   6
  -2   5   8 191945. 4415.54  15
  -2   5   9 63006.7 5788.18   3
  -2   5   9 56757.0 2516.88  15
  -2   5  10 73336.8 2974.06  15
  -2   5  11 124161. 3925.21  15
  -2   5  12 15860.5 1359.85  15
  -2   5  13 92263.5 3138.34  15
  -2   5  14 1716.34 391.068  15
  -2   6 -11 20582.0 1006.47  10
  -2   6 -10 61724.3 2336.54  10
  -2   6  -9 99579.7 3509.16  10
  -2   6  -8 2854.32 572.956  10
  -2   6  -7 65662.8 3338.48  10
  -2   6  -6 57488.3 2790.34   8
  -2   6  -6 57970.6 3305.57  10
  -2   6  -5 124498. 4040.04   8
  -2   6  -5 123427. 3308.79  12
  -2   6  -5 122639. 4870.52  10
  -2   6  -4 35178.8 2067.21   8
  -2   6  -4 36708.9 1771.96  12
  -2   6  -4 34061.2 2580.64  10
  -2   6  -4 36286.2 4195.97   1
  -2   6  -3 4088.15 611.676  12
  -2   6  -3 3789.39 1224.19   5
  -2   6  -3 3257.85 548.623   8
  -2   6  -3 4542.16 972.316  10
  -2   6  -3 3674.51 1414.84   1
  -2   6  -2 158392. 5733.44  10
  -2   6  -2 155737. 3587.20  12
  -2   6  -2 154111. 7429.97   5
  -2   6  -2 149312. 7950.13   1
  -2   6  -1 2817.67 1004.49   5
  -2   6   0 114397. 6084.24   5
  -2   6   1 107408. 5774.70   5
  -2   6   2 41827.6 3581.79   5
  -2   6   3 193460. 7859.42   5
  -2   6   4 41615.9 3230.22   3
  -2   6   4 40263.0 3683.19   5
  -2   6   5 168237. 7468.25   3
  -2   6   5 189442. 8087.64   5
  -2   6   6 996.648 680.287   3
  -2   6   6 1393.49 864.822   5
  -2   6   7 127411. 7883.24   3
  -2   6   7 135595. 3577.56  12
  -2   6   7 136800. 3404.68  15
  -2   6   8 59959.7 5379.90   3
  -2   6   8 60769.4 2444.99  12
  -2   6   8 61456.9 5059.66   5
  -2   6   8 61322.4 2416.80  15
  -2   6   9 34636.7 3965.76   3
  -2   6   9 35266.3 1892.35  12
  -2   6   9 32902.0 1851.24  15
  -2   6   9 36391.1 3872.46   5
  -2   6  10 91320.3 2292.48  17
  -2   6  10 98180.1 3328.19  15
  -2   6  11 19039.7 1466.19  15
  -2   6  12 130055. 3756.57  15
  -2   7 -10 56384.7 1685.46  10
  -2   7  -9 964.818 358.643  10
  -2   7  -8 76222.3 3027.90  10
  -2   7  -7 49613.9 2693.78  10
  -2   7  -6 6511.75 1009.27  10
  -2   7  -5 92651.0 3509.60   8
  -2   7  -5 88012.9 4067.07  10
  -2   7  -4 31041.2 2034.66   8
  -2   7  -4 32141.5 2522.81  10
  -2   7  -4 33900.3 1743.47  12
  -2   7  -3 115176. 3903.65   8
  -2   7  -3 112998. 4737.88  10
  -2   7  -3 118595. 3241.60  12
  -2   7  -2 29782.9 1928.32   8
  -2   7  -2 29197.9 1614.82  12
  -2   7  -2 30532.9 3439.16   5
  -2   7  -2 27838.1 2350.91  10
  -2   7  -1 53944.1 3304.70  10
  -2   7  -1 61088.4 2312.47  12
  -2   7  -1 61875.5 4847.64   5
  -2   7   0 51874.1 3301.32  10
  -2   7   0 61180.9 2313.06  12
  -2   7   0 61361.1 4748.42   5
  -2   7   1 18120.4 1251.32  12
  -2   7   1 16609.3 2471.31   5
  -2   7   1 17381.8 999.857  17
  -2   7   2 122817. 3249.08  12
  -2   7   2 123955. 6685.07   5
  -2   7   2 123507. 2863.38  17
  -2   7   3 8491.63 847.273  12
  -2   7   3 8984.17 1854.43   5
  -2   7   4 232762. 4577.31  12
  -2   7   4 230493. 9295.55   5
  -2   7   5 41750.4 4076.60   5
  -2   7   5 36935.4 1818.08  12
  -2   7   6 93705.0 5605.94   3
  -2   7   6 91368.4 2873.42  12
  -2   7   6 105179. 6555.12   5
  -2   7   7 181849. 8370.65   3
  -2   7   7 224398. 9696.69   5
  -2   7   8 14891.5 2423.23   3
  -2   7   8 15750.1 1060.14  17
  -2   7   9 129408. 2923.81  17
  -2   7  10 21542.2 1114.88  17
  -2   7  11 81057.2 2019.72  17
  -2   8  -8 45541.5 1888.16  10
  -2   8  -7 853.301 321.148  10
  -2   8  -6 41661.9 2379.22  10
  -2   8  -5 2590.63 646.591   8
  -2   8  -5 2128.25 669.334  10
  -2   8  -4 131067. 4108.03   8
  -2   8  -4 129545. 4800.09  10
  -2   8  -3 19668.3 1626.81   8
  -2   8  -3 22665.3 1421.34  12
  -2   8  -3 21196.7 2001.95  10
  -2   8  -2 54314.0 2708.06   8
  -2   8  -2 55271.3 2185.00  12
  -2   8  -2 54521.1 3185.36  10
  -2   8  -1 72955.2 3099.56   8
  -2   8  -1 74732.6 2579.59  12
  -2   8  -1 71350.5 3642.03  10
  -2   8   0 9490.44 920.568  12
  -2   8   0 7776.14 1196.78  10
  -2   8   1 207425. 4304.92  12
  -2   8   1 196276. 3550.86  17
  -2   8   2 8498.84 874.230  12
  -2   8   2 8236.43 749.433  17
  -2   8   2 8111.76 1861.51   5
  -2   8   3 72710.1 2525.70  12
  -2   8   3 76265.0 5517.19   5
  -2   8   3 70943.0 2253.65  17
  -2   8   4 35522.5 1762.46  12
  -2   8   4 36636.2 3842.11   5
  -2   8   4 35986.7 1630.16  17
  -2   8   5 18515.3 1267.37  12
  -2   8   5 19930.3 1222.76  17
  -2   8   6 120991. 3038.54  17
  -2   8   7 1502.92 374.171  17
  -2   8   8 91852.4 2555.96  17
  -2   8   9 26704.7 1332.09  17
  -2   8  10 45051.1 1629.77  17
  -2   8  11 108345. 2384.94  17
  -2   9  -7 31580.5 1377.41  10
  -2   9  -6 5896.17 707.239  10
  -2   9  -5 44665.7 2261.83  10
  -2   9  -4 55822.0 2406.96   8
  -2   9  -4 53086.1 2687.86  10
  -2   9  -3 20387.1 1558.68   8
  -2   9  -3 20351.3 1760.66  10
  -2   9  -2 73975.0 3062.53   8
  -2   9  -2 77652.3 2439.92  12
  -2   9  -2 76329.7 3481.55  10
  -2   9  -1 2143.49 508.623   8
  -2   9  -1 2769.79 498.416  12
  -2   9  -1 2254.32 635.624  10
  -2   9   0 48191.8 2513.98   8
  -2   9   0 51221.3 2023.73  12
  -2   9   0 46370.1 2645.43  10
  -2   9   1 9924.40 907.064  12
  -2   9   1 9929.12 783.967  17
  -2   9   2 132344. 3075.86  17
  -2   9   2 141908. 3392.54  12
  -2   9   3 140120. 3250.65  17
  -2   9   3 143607. 3385.56  12
  -2   9   4 2267.36 426.061  12
  -2   9   4 3137.60 492.073  17
  -2   9   5 76089.0 2400.01  17
  -2   9   6 44436.8 1826.24  17
  -2   9   7 39342.0 1701.90  17
  -2   9   8 28555.5 1415.27  17
  -2   9   9 13031.3 930.120  17
  -2   9  10 97595.0 2414.56  17
  -2   9  11 4744.34 483.173  17
  -2   9  12 50528.2 1391.58  17
  -2  10  -5 35755.5 1448.64  10
  -2  10  -4 2803.77 458.113  10
  -2  10  -3 70005.1 2417.66   8
  -2  10  -3 65206.6 2531.28  10
  -2  10  -2 10617.5 1058.73   8
  -2  10  -2 9531.35 1016.20  10
  -2  10  -1 37975.8 2033.17   8
  -2  10  -1 37506.6 2047.79  10
  -2  10   0 71079.0 2873.90   8
  -2  10   0 67366.9 2071.04  12
  -2  10   1 2148.62 398.490  12
  -2  10   1 2295.16 467.953   8
  -2  10   2 60309.0 1927.17  12
  -2  10   2 61769.6 1969.78  17
  -2  10   3 579.404 240.889  17
  -2  10   4 118768. 2965.33  17
  -2  10   5 45562.7 1837.32  17
  -2  10   6 3153.14 486.361  17
  -2  10   7 68562.3 2206.26  17
  -2  10   8 4860.04 568.405  17
  -2  10   9 43802.8 1633.29  17
  -2  10  10 14687.0 893.742  17
  -2  10  11 23930.1 1026.73  17
  -2  10  12 29437.7 936.133  17
  -2  11  -2 17162.4 997.033   8
  -2  11  -1 47742.7 1849.13   8
  -2  11   0-357.214 285.309   8
  -2  11   1 46404.5 2060.17   8
  -2  11   2 26544.0 1592.07   8
  -2  11   3 24981.0 1150.55  17
  -2  11   4 51350.4 1730.79  17
  -2  11   5 2355.99 394.317  17
  -2  11   6 33175.4 1427.56  17
  -2  11   7 7749.91 697.172  17
  -2  11   8 75688.4 2064.29  17
  -2  11   9 9499.15 695.145  17
  -2  11  10 11509.2 700.351  17
  -2  11  11 22120.7 829.837  17
  -2  12   1 24539.4 1097.47   8
  -2  12   2 4810.06 529.965   8
  -2  12   3 42818.9 1621.82   8
  -2  12   4-16.3857 217.711   8
  -2  12   5 18206.3 841.533  17
  -2  12   5 20843.4 1155.19   8
  -2  12   6 4641.63 445.081  17
  -2  12   7 19835.3 894.058  17
  -2  12   8 37905.4 1189.84  17
  -2  12   9 5396.13 414.297  17
  -1 -12  -9 22454.8 1095.71  15
  -1 -12  -8 7461.03 657.650  15
  -1 -12  -7 13604.3 869.494  15
  -1 -11 -12 36349.0 1196.11  14
  -1 -11 -11 4942.04 496.652  14
  -1 -11  -7 50365.7 2363.44  15
  -1 -11  -6 1683.73 429.088  15
  -1 -11  -5 13822.8 1167.05  15
  -1 -10 -14 1171.40 225.005  14
  -1 -10 -13 40382.3 1524.18  14
  -1 -10 -12 27040.8 1394.88  14
  -1 -10 -11 4842.08 622.752  14
  -1 -10 -10 45035.5 2018.74  14
  -1 -10  -9 1901.72 409.952  14
  -1 -10  -4 10066.5 1128.98  15
  -1 -10  -3 60406.2 2637.01  15
  -1  -9 -15 6841.54 531.405  14
  -1  -9 -14 36298.9 1485.09  14
  -1  -9 -13 45357.1 1893.35  14
  -1  -9 -12 3033.92 545.699  14
  -1  -9 -11 50608.0 2296.57  14
  -1  -9 -10 8999.49 996.585  14
  -1  -9  -9 78856.3 2993.69  14
  -1  -9  -8 46736.8 2307.98  14
  -1  -9  -7 8473.72 936.747  14
  -1  -9  -3 8794.12 1085.09  15
  -1  -9  -2 84719.9 3222.76  15
  -1  -8 -15 8197.67 673.664  14
  -1  -8 -14 108060. 2861.52  14
  -1  -8 -13 80.9681 207.836  14
  -1  -8 -12 72774.9 2758.66  14
  -1  -8 -11 31295.2 1895.27  14
  -1  -8 -10 49526.1 2411.55  14
  -1  -8  -9 76618.9 3013.88  14
  -1  -8  -8 13769.5 1261.03  14
  -1  -8  -7 118997. 3664.70  14
  -1  -8  -6 28750.2 1719.56  14
  -1  -8  -1 1357.60 358.863  15
  -1  -7 -15 50889.9 1783.27  14
  -1  -7 -14 29455.6 1566.89  14
  -1  -7 -13 120497. 3482.67  14
  -1  -7 -13 129103. 3764.85  11
  -1  -7 -12 56927.1 2503.29  14
  -1  -7 -12 60233.9 2691.49  11
  -1  -7 -11 8038.74 972.420  14
  -1  -7 -11 8375.20 1033.80  11
  -1  -7 -10 130564. 3901.95  14
  -1  -7  -9 726.697 461.117  14
  -1  -7  -8 108266. 3517.55  14
  -1  -7  -7 24524.1 1622.56  14
  -1  -6 -15 24926.8 1277.57  14
  -1  -6 -15 24972.2 1467.61  11
  -1  -6 -14 10994.2 979.982  14
  -1  -6 -14 11361.4 1118.24  11
  -1  -6 -13 113363. 3437.77  14
  -1  -6 -13 118978. 3913.01  11
  -1  -6 -12 20447.5 1500.27  14
  -1  -6 -12 19044.1 1623.24  11
  -1  -6 -11 82429.8 3079.81  14
  -1  -6 -11 89985.5 3525.92  11
  -1  -6 -10 36209.3 2025.95  14
  -1  -6 -10 36701.6 2222.47  11
  -1  -6  -9 63274.0 2648.15  14
  -1  -6  -9 62889.9 2763.65  11
  -1  -6  -8 127975. 3727.80  14
  -1  -5 -16 43152.1 1723.75  11
  -1  -5 -15 8357.02 722.538  14
  -1  -5 -15 8150.36 906.346  11
  -1  -5 -14 93471.1 2857.13  14
  -1  -5 -14 89461.8 3334.63  11
  -1  -5 -13 20259.8 1451.47  14
  -1  -5 -13 20894.8 1709.27  11
  -1  -5 -12 71298.0 2814.19  14
  -1  -5 -12 66632.6 3113.98  11
  -1  -5 -11 8307.01 997.635  14
  -1  -5 -11 8419.65 1099.58  11
  -1  -5 -10 14446.7 1260.22  14
  -1  -5 -10 13959.4 1365.32  11
  -1  -5  -9 110898. 3429.44  14
  -1  -5  -9 118303. 3806.48  11
  -1  -4 -16-37.1940 171.184  11
  -1  -4 -15 56814.3 2459.62  11
  -1  -4 -14 34287.7 2101.90  11
  -1  -4 -13 44769.1 2082.55  14
  -1  -4 -13 44282.7 2505.41  11
  -1  -4 -12 46926.7 2226.84  14
  -1  -4 -12 46596.6 2600.81  11
  -1  -4 -11 22266.3 1555.31  14
  -1  -4 -11 20971.8 1745.69  11
  -1  -4 -10 107747. 3441.55  14
  -1  -4 -10 104757. 3741.19  11
  -1  -3 -16 50652.7 1971.87  11
  -1  -3 -15 54382.6 2415.88  11
  -1  -3 -14 5694.84 882.428  11
  -1  -3 -13 68051.0 3143.26  11
  -1  -3 -12 3431.15 565.465  14
  -1  -3 -12 3170.14 699.670   7
  -1  -3 -12 4049.42 792.815  11
  -1  -3 -11 144156. 3783.97  14
  -1  -3 -11 143995. 4558.31   7
  -1  -3 -10 45894.1 2100.14  14
  -1  -3 -10 45262.4 2430.27   7
  -1  -3  -8 135512. 5069.05   1
  -1  -2 -16 62628.8 2111.44  11
  -1  -2 -15 1033.90 375.814  11
  -1  -2 -14 50190.9 2532.55  11
  -1  -2 -13 3412.52 711.024   7
  -1  -2 -13 4337.52 876.015  11
  -1  -2 -12 111704. 4098.95   7
  -1  -2 -11 92597.8 3666.89   7
  -1  -2 -10 85224.0 4664.10   1
  -1  -2 -10 79679.2 3246.79   7
  -1  -2  -9 251986. 7711.67   1
  -1  -2  -8 841.659 472.474   1
  -1  -2  -7 288555. 7333.69   1
  -1  -2  -6 10633.0 1271.14   1
  -1  -2   2 12091.9 906.947   3
  -1  -2   3 465618. 6251.43   3
  -1  -2   4 11617.3 1003.94   3
  -1  -2   5 368533. 6176.10   3
  -1  -2   9 37020.4 1896.50  15
  -1  -1 -16-48.4822 128.570  11
  -1  -1 -15 77585.7 2690.80  11
  -1  -1 -14 19824.7 1573.00   7
  -1  -1 -14 20597.4 1595.70  11
  -1  -1 -13 65426.1 3075.22   7
  -1  -1 -12 34366.8 2293.52   7
  -1  -1 -11 18980.2 1673.94   7
  -1  -1 -11 20272.4 2484.10   1
  -1  -1 -10 193772. 7525.64   1
  -1  -1 -10 189783. 5096.46   7
  -1  -1  -9 8698.68 1491.71   1
  -1  -1  -8 295353. 8376.46   1
  -1  -1  -7 210134. 6581.98   1
  -1  -1  -6 105762. 4219.36   1
  -1  -1  -5 468722. 8069.87   1
  -1  -1  -4 17413.0 1270.05   1
  -1  -1  -3 116201. 2681.69   1
  -1  -1  -2 110986. 1886.24   1
  -1  -1   1 87832.8 2310.53   3
  -1  -1   2 124890. 2974.29   3
  -1  -1   3 20263.9 1278.32   3
  -1  -1   4 67249.9 2557.12   3
  -1  -1   5 317751. 6116.44   3
  -1  -1   6 48190.6 2569.79   3
  -1  -1   7 220908. 5928.72   3
  -1  -1   9 163356. 4026.35  15
  -1  -1  10 36291.9 1932.40  15
  -1  -1  11 117632. 3456.22  15
  -1  -1  12 87095.2 2778.02  15
  -1   0 -15 14941.5 1084.55  11
  -1   0 -14 96997.5 3350.31   7
  -1   0 -14 92428.6 3213.54  11
  -1   0 -13 189044. 5173.10   7
  -1   0 -12 4479.02 797.296   7
  -1   0 -11 65639.5 3118.26   7
  -1   0 -10 20637.7 1685.89   7
  -1   0 -10 19874.2 2543.59   1
  -1   0  -9 71276.3 4591.58   1
  -1   0  -8 200587. 7335.05   1
  -1   0  -7 70915.3 4005.00   1
  -1   0  -6 137684. 5105.47   1
  -1   0  -5 257737. 6331.98   1
  -1   0  -4 243934. 5357.24   1
  -1   0  -3 597174. 7381.85   1
  -1   0  -2 30070.6 1354.46   1
  -1   0  -1 522565. 5263.87   1
  -1   0   0 704.849 218.051   3
  -1   0   0 671.677 110.558   5
  -1   0   1 538991. 5866.35   3
  -1   0   2 81774.6 2322.27   3
  -1   0   3 315139. 5192.38   3
  -1   0   4 197697. 4600.46   3
  -1   0   5 1981.44 493.203   3
  -1   0   6 382349. 7840.64   3
  -1   0   7 28168.5 2312.16   3
  -1   0   8 319056. 8320.30   3
  -1   0  10 14286.7 1206.05  15
  -1   0  11 216558. 4846.22  15
  -1   0  12 7499.03 867.158  15
  -1   0  13 105671. 2988.49  15
  -1   1 -15 3187.91 420.621  11
  -1   1 -14 108795. 3332.16   7
  -1   1 -14 104793. 3080.88  11
  -1   1 -13 2296.44 555.107   7
  -1   1 -12 90455.6 3650.79   7
  -1   1 -11 135044. 4496.89   7
  -1   1 -10 11186.1 1244.15   7
  -1   1 -10 12634.0 2130.89   1
  -1   1  -9 166092. 4639.01   7
  -1   1  -9 174262. 7766.71   1
  -1   1  -8 622.276 339.617   1
  -1   1  -7 372639. 9966.97   1
  -1   1  -6 64293.5 3786.24   1
  -1   1  -5 10170.0 1395.58   1
  -1   1  -4 719426. 10517.9   1
  -1   1  -3 29981.1 1843.90   1
  -1   1  -2 61544.5 2396.06   5
  -1   1  -2 63557.2 2433.20   1
  -1   1  -1 8045.71 798.067   1
  -1   1  -1 8211.57 577.887   3
  -1   1  -1 7711.65 730.323   5
  -1   1   0 667476. 6126.82   3
  -1   1   0 667785. 6366.55   5
  -1   1   1 358385. 4626.95   3
  -1   1   1 361814. 4455.91   5
  -1   1   2 103358. 2789.90   3
  -1   1   3 296655. 5444.86   3
  -1   1   4 54712.0 2631.74   3
  -1   1   5 502832. 9031.42   3
  -1   1   6 10563.0 1409.92   3
  -1   1   7 156232. 5726.03   3
  -1   1   8 58078.8 3669.78   3
  -1   1   9 75489.3 4422.25   3
  -1   1  10 80277.3 4671.94   3
  -1   1  10 87720.1 3035.59  15
  -1   1  11 34796.0 1922.41  15
  -1   1  12 242916. 5164.02  15
  -1   1  13 52989.9 2254.24  15
  -1   1  14 13181.8 980.282  15
  -1   2 -14 46819.7 1975.75   7
  -1   2 -14 43634.2 1651.37  11
  -1   2 -13 39150.8 2114.62   7
  -1   2 -13 35875.5 1818.03  11
  -1   2 -12 75698.3 3219.11   7
  -1   2 -11 11422.6 1294.47   7
  -1   2 -10 147210. 4631.29   7
  -1   2 -10 148656. 4349.29  10
  -1   2  -9 46860.2 2525.92   7
  -1   2  -9 49355.6 4351.88   1
  -1   2  -9 42978.3 2282.90  10
  -1   2  -8 150918. 4293.89   7
  -1   2  -8 152640. 7323.29   1
  -1   2  -7 121732. 6159.88   1
  -1   2  -6 55799.0 3843.23   1
  -1   2  -5 224135. 7061.80   1
  -1   2  -4 887.336 426.951   1
  -1   2  -3 189385. 5405.18   5
  -1   2  -3 184600. 5312.61   1
  -1   2  -2 10089.4 1115.28   5
  -1   2  -2 9065.70 1098.55   1
  -1   2  -1 481088. 7559.32   1
  -1   2  -1 489817. 4448.55   3
  -1   2   0 304248. 3986.72   3
  -1   2   0 317464. 6027.26   1
  -1   2   1 42627.8 1623.09   3
  -1   2   1 43217.0 1954.34   5
  -1   2   2 259454. 4899.83   3
  -1   2   3 22102.4 1722.16   3
  -1   2   4 640758. 11357.2   3
  -1   2   5 94311.3 4673.87   3
  -1   2   6 390240. 9593.66   3
  -1   2   7 392114. 9768.98   3
  -1   2   8 10081.8 1605.31   3
  -1   2   9 183047. 7112.36   3
  -1   2  10 10921.6 1771.16   3
  -1   2  10 11284.6 1074.70  15
  -1   2  11 32422.0 3108.33   3
  -1   2  11 33512.6 1914.37  15
  -1   2  12 178955. 4501.48  15
  -1   2  13 29242.3 1732.30  15
  -1   2  14 79881.3 2596.43  15
  -1   2  15 13852.7 892.259  15
  -1   3 -14 4274.01 501.643   7
  -1   3 -13 67399.8 2490.69   7
  -1   3 -12 739.943 409.779   7
  -1   3 -11 56148.3 2789.91   7
  -1   3 -11 58250.4 2580.64  10
  -1   3 -10 81881.3 3458.07   7
  -1   3 -10 85862.8 3366.41  10
  -1   3  -9 51317.3 2698.09   7
  -1   3  -9 54461.1 4728.35   1
  -1   3  -9 50829.7 2635.37  10
  -1   3  -8 155602. 4558.68   7
  -1   3  -8 153802. 4538.09  10
  -1   3  -8 157199. 7918.07   1
  -1   3  -7 12812.0 2131.28   1
  -1   3  -6 242407. 8755.57   1
  -1   3  -5 97449.5 5132.12   1
  -1   3  -4 87853.7 4565.21   1
  -1   3  -3 18082.1 1892.52   5
  -1   3  -3 17528.6 1883.08   1
  -1   3  -2 512711. 9384.54   5
  -1   3  -2 512127. 9531.56   1
  -1   3  -1 871470. 11973.6   1
  -1   3  -1 866802. 11659.4   5
  -1   3   0 217006. 3347.47   3
  -1   3   0 219753. 5381.56   5
  -1   3   0 218622. 5687.78   1
  -1   3   1 147939. 3315.93   3
  -1   3   1 147567. 4318.19   5
  -1   3   2 164729. 4353.10   3
  -1   3   2 138503. 4243.08   5
  -1   3   3 10292.3 1488.49   3
  -1   3   4 327613. 11849.2   3
  -1   3   5 62789.0 5416.42   3
  -1   3   6 273176. 9218.57   3
  -1   3   7 84800.7 4834.46   3
  -1   3   8 197917. 7419.74   3
  -1   3   9 174514. 7134.75   3
  -1   3  10 30920.7 3067.02   3
  -1   3  10 32091.0 1845.28  15
  -1   3  11 155790. 7019.42   3
  -1   3  11 159132. 4283.84  15
  -1   3  12 363.515 289.469  15
  -1   3  13 198160. 4689.10  15
  -1   3  14 35055.0 1766.33  15
  -1   4 -13 15554.9 978.981   7
  -1   4 -12 28038.5 1622.44   7
  -1   4 -11 36578.9 2093.44   7
  -1   4 -11 39903.8 2043.90  10
  -1   4 -10 10639.6 1195.52   7
  -1   4 -10 9458.08 1079.47  10
  -1   4  -9 94014.2 3725.89  10
  -1   4  -9 94132.6 3661.82   7
  -1   4  -8 1679.38 499.729   7
  -1   4  -8 1316.44 817.511   1
  -1   4  -8 1534.18 483.451  10
  -1   4  -7 134112. 4157.44   7
  -1   4  -7 133713. 4374.72  10
  -1   4  -7 135073. 7451.13   1
  -1   4  -6 40002.9 2044.18   8
  -1   4  -6 40981.8 3901.45   1
  -1   4  -6 40493.8 2260.25  10
  -1   4  -5 47339.9 3941.86   1
  -1   4  -4 174242. 7043.44   1
  -1   4  -3 7270.68 1331.01   5
  -1   4  -3 7351.32 1386.40   1
  -1   4  -2 393589. 9428.87   1
  -1   4  -2 412888. 9491.57   5
  -1   4  -1 3340.83 897.944   1
  -1   4  -1 3509.20 819.691   5
  -1   4   0 333534. 4185.92   3
  -1   4   0 336944. 7785.41   5
  -1   4   0 327827. 8018.40   1
  -1   4   1 80604.4 2529.52   3
  -1   4   1 81450.9 3761.83   5
  -1   4   2 108512. 3594.48   3
  -1   4   2 99188.1 4129.20   5
  -1   4   3 556565. 10560.5   3
  -1   4   3 525733. 9893.50   5
  -1   4   4 4379.26 1249.43   3
  -1   4   5 327175. 13354.8   3
  -1   4   6 81297.6 5489.76   3
  -1   4   7 46369.5 3894.53   3
  -1   4   8 403199. 11087.5   3
  -1   4   9 1594.69 673.194   3
  -1   4  10 118571. 6137.33   3
  -1   4  10 121119. 3705.01  15
  -1   4  11 27977.4 2994.96   3
  -1   4  11 27472.1 1815.04  15
  -1   4  12 166257. 4454.78  15
  -1   4  13 73787.9 2859.31  15
  -1   4  14 28496.8 1627.08  15
  -1   5 -12 47728.1 1683.71   7
  -1   5 -12 49969.1 1507.64  13
  -1   5 -11 2562.13 503.524   7
  -1   5 -11 3040.18 543.450  10
  -1   5 -10 89045.6 3189.67   7
  -1   5 -10 89327.6 3271.82  10
  -1   5  -9 22980.9 1721.02   7
  -1   5  -9 21127.4 1712.96  10
  -1   5  -8 66543.3 3011.12   7
  -1   5  -8 66955.6 3277.16  10
  -1   5  -7 31196.9 2023.46   7
  -1   5  -7 31922.4 2275.56  10
  -1   5  -6 30783.2 1912.30   8
  -1   5  -6 34810.5 3807.32   1
  -1   5  -6 30733.7 1939.99   7
  -1   5  -6 31362.1 2209.75  10
  -1   5  -5 84175.6 3028.07   8
  -1   5  -5 82956.8 5620.60   1
  -1   5  -5 88645.1 2583.41  12
  -1   5  -5 85300.4 3461.04  10
  -1   5  -4 6352.39 1538.64   1
  -1   5  -3 310232. 9905.28   1
  -1   5  -3 313095. 9713.16   5
  -1   5  -2 315047. 9444.32   1
  -1   5  -2 320667. 9276.86   5
  -1   5  -1 148091. 6025.34   5
  -1   5  -1 147023. 6124.63   1
  -1   5   0 225472. 7544.20   1
  -1   5   0 224710. 7148.55   5
  -1   5   1 16119.9 1867.35   5
  -1   5   2 627554. 8818.03   3
  -1   5   2 634424. 12068.7   5
  -1   5   3 143738. 4863.70   3
  -1   5   3 150868. 5830.79   5
  -1   5   4 127377. 5371.35   3
  -1   5   4 139604. 5785.21   5
  -1   5   5 210245. 7765.27   3
  -1   5   5 249159. 7947.87   5
  -1   5   6 100285. 5400.24   3
  -1   5   7 196875. 7554.92   3
  -1   5   8 42147.4 3516.28   3
  -1   5   9 142762. 6653.04   3
  -1   5   9 153763. 4046.77  15
  -1   5  10 56133.1 4304.75   3
  -1   5  10 58602.2 2601.83  15
  -1   5  11 62265.2 2695.10  15
  -1   5  12 129898. 3907.97  15
  -1   5  13 3497.92 647.572  15
  -1   6 -11 53662.5 1705.64  10
  -1   6 -10 28080.1 1490.87   7
  -1   6 -10 28448.5 1629.27  10
  -1   6  -9 26752.3 1653.89   7
  -1   6  -9 27128.9 1865.45  10
  -1   6  -8 125076. 3862.72   7
  -1   6  -8 126328. 4409.19  10
  -1   6  -7 1322.27 425.348   7
  -1   6  -7 559.119 276.887  10
  -1   6  -6 88017.7 3391.30   8
  -1   6  -6 85925.7 3798.73  10
  -1   6  -6 84826.3 3253.06   7
  -1   6  -5 20966.5 1623.87   8
  -1   6  -5 20134.2 2978.80   1
  -1   6  -5 18979.0 1755.55  10
  -1   6  -4 172582. 4480.61   8
  -1   6  -4 168025. 5087.01  10
  -1   6  -4 174930. 3812.97  12
  -1   6  -4 168344. 8269.47   1
  -1   6  -3 239656. 5083.76   8
  -1   6  -3 253391. 4405.60  12
  -1   6  -3 243112. 9172.61   5
  -1   6  -3 238815. 9481.85   1
  -1   6  -3 244645. 5917.46  10
  -1   6  -2 2100.00 950.680   1
  -1   6  -2 1791.97 680.033   5
  -1   6  -1 239738. 8915.83   1
  -1   6  -1 243227. 8540.32   5
  -1   6   0 1119.67 684.191   1
  -1   6   0 919.259 586.298   5
  -1   6   1 115795. 5588.75   5
  -1   6   2 185443. 7102.62   5
  -1   6   3 178992. 5264.81   3
  -1   6   3 183849. 7192.89   5
  -1   6   4 398680. 8925.71   3
  -1   6   4 427964. 11144.0   5
  -1   6   5 4694.24 1065.30   3
  -1   6   5 8089.90 1591.86   5
  -1   6   6 142043. 6075.92   3
  -1   6   6 174309. 7518.10   5
  -1   6   7 2984.96 907.292   3
  -1   6   7 3736.04 1285.42   5
  -1   6   8 75542.8 4661.50   3
  -1   6   8 76721.4 1997.73  17
  -1   6   8 80600.8 2776.94  15
  -1   6   9 50309.1 3904.68   3
  -1   6   9 44243.2 1489.13  17
  -1   6   9 52074.6 2363.63  15
  -1   6  10 44151.8 3680.04   3
  -1   6  10 41698.0 2163.64  15
  -1   6  11 147909. 4170.78  15
  -1   7 -10 3551.78 479.412  10
  -1   7  -9 75060.6 2704.77  10
  -1   7  -8 12170.5 1228.54  10
  -1   7  -7 49804.6 2788.74  10
  -1   7  -6 44140.0 2404.41   8
  -1   7  -6 44029.0 2702.75  10
  -1   7  -5 82700.2 3267.51   8
  -1   7  -5 82494.1 3773.17  10
  -1   7  -4 234154. 5521.59   8
  -1   7  -4 225213. 6218.12  10
  -1   7  -3 32.8425 272.991   8
  -1   7  -3 882.049 356.892  12
  -1   7  -3 820.128 703.676   5
  -1   7  -3 1371.78 811.734   1
  -1   7  -3 428.852 384.748  10
  -1   7  -2 207845. 4148.84  12
  -1   7  -2 197735. 8927.68   1
  -1   7  -2 200451. 8603.74   5
  -1   7  -2 197340. 5542.61  10
  -1   7  -1 79045.5 2445.46  12
  -1   7  -1 71180.8 4960.14   5
  -1   7  -1 72191.5 3186.12  10
  -1   7  -1 67868.2 4992.64   1
  -1   7   0 84280.6 5347.05   5
  -1   7   1 66242.4 4636.62   5
  -1   7   2 3349.10 1042.16   5
  -1   7   3 188906. 7867.73   5
  -1   7   4 11635.1 2038.06   5
  -1   7   5 209995. 6914.92   3
  -1   7   5 228115. 8927.55   5
  -1   7   5 226018. 3823.91  17
  -1   7   6 78715.0 4443.26   3
  -1   7   6 87065.0 2338.70  17
  -1   7   6 93609.4 5831.91   5
  -1   7   7 10689.9 1687.05   3
  -1   7   7 11830.7 858.785  17
  -1   7   7 10848.9 2032.36   5
  -1   7   8 62750.8 4236.94   3
  -1   7   8 69865.3 5339.95   5
  -1   7   8 62511.0 1946.03  17
  -1   7   9 15602.6 2161.75   3
  -1   7   9 14216.9 910.015  17
  -1   7  10 174278. 3127.11  17
  -1   8  -9 13269.6 868.859  10
  -1   8  -8 40897.8 1929.03  10
  -1   8  -7 63625.2 2804.28  10
  -1   8  -6 2583.63 605.790  10
  -1   8  -5 133614. 4059.25   8
  -1   8  -5 131508. 4664.28  10
  -1   8  -4 2669.81 644.539   8
  -1   8  -4 2351.74 701.649  10
  -1   8  -3 87176.1 3369.39   8
  -1   8  -3 86914.2 3859.20  10
  -1   8  -2 111848. 3764.27   8
  -1   8  -2 118744. 3194.63  12
  -1   8  -2 114147. 4368.36  10
  -1   8  -1 31794.7 1595.83  12
  -1   8  -1 29277.5 2157.54  10
  -1   8   0 107839. 2910.92  12
  -1   8   0 104537. 6280.80   5
  -1   8   0 102356. 3921.79  10
  -1   8   1 11394.2 899.482  17
  -1   8   1 11801.2 934.603  12
  -1   8   1 9593.18 1118.84  10
  -1   8   1 10818.4 2066.41   5
  -1   8   2 90274.0 5746.22   5
  -1   8   2 94538.5 2648.27  17
  -1   8   3 26779.0 3123.74   5
  -1   8   3 31098.4 1525.57  17
  -1   8   4 56285.3 4595.41   5
  -1   8   4 59493.9 2122.06  17
  -1   8   5 59569.2 4798.81   5
  -1   8   5 57469.7 2069.27  17
  -1   8   6 5743.70 651.748  17
  -1   8   6 5721.59 1475.88   5
  -1   8   7 44918.7 4289.98   5
  -1   8   7 40105.3 1698.32  17
  -1   8   8 2445.05 423.067  17
  -1   8   9 121623. 2831.03  17
  -1   8  10 69444.4 2069.00  17
  -1   8  11 28121.7 1250.07  17
  -1   9  -7 1291.39 268.005  10
  -1   9  -6 48100.7 2277.36  10
  -1   9  -5 57004.8 2765.92  10
  -1   9  -4 37061.5 2032.28   8
  -1   9  -4 37463.9 2384.73  10
  -1   9  -3 28225.1 1867.50   8
  -1   9  -3 29344.9 2176.46  10
  -1   9  -2 60.9622 404.741   8
  -1   9  -2 338.308 353.604  10
  -1   9  -1 105023. 3677.73   8
  -1   9  -1 109052. 4181.84  10
  -1   9   0 9508.66 862.192  12
  -1   9   0 7980.15 1101.88  10
  -1   9   1 53642.3 2748.90  10
  -1   9   1 54599.5 2052.35  17
  -1   9   2 45874.8 1953.90  17
  -1   9   3 28070.8 1557.50  17
  -1   9   4 114939. 3155.69  17
  -1   9   5 4292.54 604.775  17
  -1   9   6 85609.0 2675.21  17
  -1   9   7 15113.8 1092.61  17
  -1   9   8 84585.1 2533.32  17
  -1   9   9 99050.8 2669.56  17
  -1   9  10 1494.59 349.473  17
  -1   9  11 117282. 2602.18  17
  -1  10  -6 20858.7 1072.27  10
  -1  10  -5 2479.13 444.748  10
  -1  10  -4 65589.7 2634.10  10
  -1  10  -3 723.461 377.443   8
  -1  10  -3 393.351 278.651  10
  -1  10  -2 26498.0 1689.10   8
  -1  10  -2 28009.5 1939.69  10
  -1  10  -1 13647.0 1243.05   8
  -1  10  -1 14955.8 1457.86  10
  -1  10   0 31946.6 1965.90   8
  -1  10   0 32616.0 2102.27  10
  -1  10   1 81041.3 3211.81  10
  -1  10   1 75904.9 2347.57  17
  -1  10   2 1070.44 317.770  17
  -1  10   3 109519. 3087.68  17
  -1  10   4 18149.0 1263.84  17
  -1  10   5 50660.1 2119.21  17
  -1  10   6 27990.7 1558.38  17
  -1  10   7 43865.5 1891.27  17
  -1  10   8 119774. 3070.63  17
  -1  10   9 332.678 272.425  17
  -1  10  10 60825.8 1943.11  17
  -1  10  11 27646.8 1190.57  17
  -1  10  12 44898.1 1287.48  17
  -1  11  -3 26975.7 1339.17  10
  -1  11  -2 16670.6 1076.53   8
  -1  11  -2 15541.7 1135.92  10
  -1  11  -1 8676.91 865.374   8
  -1  11  -1 8725.38 904.214  10
  -1  11   0 57922.9 2296.26   8
  -1  11   0 56071.7 2297.94  10
  -1  11   1 3235.50 577.024   8
  -1  11   2 51532.2 1789.76  17
  -1  11   3 11355.2 905.302  17
  -1  11   4 54976.1 2059.92  17
  -1  11   5 79075.6 2495.72  17
  -1  11   6 355.687 208.100  17
  -1  11   7 110257. 2863.36  17
  -1  11   8 10606.0 870.695  17
  -1  11   9 43101.8 1630.07  17
  -1  11  10 31540.9 1292.49  17
  -1  11  11 11838.1 690.841  17
  -1  12   0 8885.51 681.764   8
  -1  12   1 35273.7 1466.83   8
  -1  12   2 42930.5 1709.25   8
  -1  12   3 3150.45 463.764   8
  -1  12   3 2888.00 351.177  17
  -1  12   4 28025.7 1197.05  17
  -1  12   5 2498.00 383.278  17
  -1  12   6 54222.2 1743.53  17
  -1  12   7 54403.1 1729.60  17
  -1  12   8 11964.1 780.319  17
  -1  12   9 33615.8 1206.58  17
  -1  12  10 251.804 133.166  17
   0 -11 -12 3790.87 384.266  14
   0 -11 -11 36933.1 1309.19  14
   0 -10 -14 37679.9 1245.79  14
   0 -10 -13 15956.2 949.798  14
   0 -10 -12 16773.6 1063.30  14
   0 -10 -11 35142.1 1634.66  14
   0 -10 -10 6291.91 707.640  14
   0 -10  -9 63181.7 2282.16  14
   0  -9 -15 36395.6 1243.26  14
   0  -9 -14 20580.4 1099.65  14
   0  -9 -13 12574.2 967.469  14
   0  -9 -12 68716.3 2423.36  14
   0  -9 -11 450.217 305.020  14
   0  -9 -10 53145.0 2251.69  14
   0  -9  -9 2154.51 499.030  14
   0  -9  -8 86267.2 2863.47  14
   0  -8 -15 40883.0 1485.20  14
   0  -8 -14 2956.57 454.982  14
   0  -8 -13 77625.0 2564.08  14
   0  -8 -12 4147.73 665.784  14
   0  -8 -11 86508.7 2919.75  14
   0  -8 -10 29262.4 1684.85  14
   0  -8  -9 68729.1 2581.03  14
   0  -8  -8 49582.5 2153.17  14
   0  -8  -7 11787.2 1013.21  14
   0  -7 -16 41637.7 1238.71  14
   0  -7 -15 539.226 218.373  14
   0  -7 -14 49251.1 1966.66  14
   0  -7 -13 16936.7 1242.30  14
   0  -7 -12 67886.2 2550.69  14
   0  -7 -11 47155.3 2132.17  14
   0  -7 -10 33492.9 1795.81  14
   0  -7  -9 239674. 4788.12  14
   0  -7  -8 1294.10 343.926  14
   0  -7  -7 105246. 2925.48  14
   0  -6 -15 44628.7 1690.13  14
   0  -6 -14 42496.7 1852.50  14
   0  -6 -14 45728.9 2090.50  11
   0  -6 -13 27609.6 1586.67  14
   0  -6 -13 28817.1 1770.02  11
   0  -6 -12 60456.3 2374.13  14
   0  -6 -11 12432.7 1067.19  14
   0  -6 -10 185171. 4109.06  14
   0  -6  -9 100970. 2933.21  14
   0  -6  -8 100094. 2811.39  14
   0  -5 -16 45404.8 1657.66  11
   0  -5 -15 54868.9 1829.71  14
   0  -5 -15 54089.3 2215.30  11
   0  -5 -14 289.139 208.241  14
   0  -5 -14 46.2393 284.251  11
   0  -5 -13 136850. 3530.40  14
   0  -5 -13 141148. 4161.88  11
   0  -5 -12 6408.00 774.250  14
   0  -5 -12 7987.84 990.605  11
   0  -5 -11 144048. 3577.63  14
   0  -5 -11 142783. 4176.06  11
   0  -5 -10 199066. 4137.46  14
   0  -5 -10 197499. 4659.01  11
   0  -5  -9 13237.2 1002.94  14
   0  -4 -16 89255.5 2550.59  11
   0  -4 -15 1973.06 426.676  11
   0  -4 -14 59648.9 2085.66  14
   0  -4 -14 57126.9 2629.33  11
   0  -4 -13 92522.8 2812.47  14
   0  -4 -13 88052.3 3405.78  11
   0  -4 -12 181987. 4057.06  14
   0  -4 -11 117643. 3797.31   7
   0  -4 -11 122815. 3257.59  14
   0  -4 -10 2665.04 438.592  14
   0  -4 -10 2064.69 507.621   7
   0  -3 -16 12315.6 967.506  11
   0  -3 -15 56831.7 2426.68  11
   0  -3 -14 75412.6 3067.84  11
   0  -3 -13 8611.57 1085.85   7
   0  -3 -12 394667. 7465.78   7
   0  -3 -12 396159. 5796.23  14
   0  -3 -11 12900.3 1293.70   7
   0  -3 -11 12199.2 965.340  14
   0  -3 -11 13033.8 1803.00   1
   0  -3 -10 76664.5 2938.20   7
   0  -3 -10 80826.3 2431.14  14
   0  -2 -16 29442.3 1458.35  11
   0  -2 -15 58703.1 2451.13  11
   0  -2 -14 1673.40 503.328   7
   0  -2 -13 167289. 4862.31   7
   0  -2 -12 56233.7 2828.03   7
   0  -2 -11 118783. 3986.98   7
   0  -2 -11 122207. 5735.12   1
   0  -2 -10 78557.5 3027.09   7
   0  -2 -10 83372.1 4567.27   1
   0  -2   3 2630.92 207.014   3
   0  -2   4 793580. 5716.69   3
   0  -1 -16 84680.8 2321.13  11
   0  -1 -15 654.502 290.968   7
   0  -1 -15 1286.19 409.468  11
   0  -1 -14 101574. 3541.13   7
   0  -1 -13 103746. 3843.15   7
   0  -1 -12 31204.5 2137.95   7
   0  -1 -11 79822.0 4789.99   1
   0  -1 -11 77897.3 3278.24   7
   0  -1 -10 1257.74 349.958   7
   0  -1 -10 2000.51 759.769   1
   0  -1  -9 114371. 5256.56   1
   0  -1   2 1396.08 163.118   3
   0  -1   2 2306.96 242.298   2
   0  -1   3 460949. 4289.75   3
   0  -1   3 451477. 4610.52   2
   0  -1   4 71509.0 1908.02   3
   0  -1   4 68368.3 1948.64   2
   0  -1   5 521245. 6271.00   3
   0  -1   6 652731. 7927.67   3
   0   0 -16 28247.5 1176.11  11
   0   0 -15 44367.6 1933.05   7
   0   0 -15 42343.5 1887.31  11
   0   0 -14 82149.5 3118.87   7
   0   0 -13 7405.87 1026.17   7
   0   0 -12 111311. 4050.33   7
   0   0 -11 2246.68 597.588   7
   0   0 -11 559.786 370.950   1
   0   0 -10 127964. 6112.26   1
   0   0 -10 125048. 4050.94   7
   0   0  -9 61280.5 4001.30   1
   0   0  -8 112204. 5071.17   1
   0   0  -7 410812. 9041.98   1
   0   0   1 78235.7 2619.22   2
   0   0   2 90869.8 2804.56   2
   0   0   3 205939. 4222.51   2
   0   0   4 141203. 3518.48   2
   0   0   5 387286. 6058.24   3
   0   0   5 380191. 6184.98   2
   0   0   6 4091.04 664.692   3
   0   0   6 5047.41 723.419   2
   0   0   7 283695. 6183.28   3
   0   0   8 82894.9 3531.97   3
   0   1 -15 76426.3 2335.27   7
   0   1 -15 73419.2 2183.69  11
   0   1 -14 2855.62 567.431   7
   0   1 -13 137495. 4294.89   7
   0   1 -12 51763.6 2757.66   7
   0   1 -11 28539.1 2037.08   7
   0   1 -10 118395. 6153.32   1
   0   1 -10 116501. 4019.79   7
   0   1  -9 89464.9 5099.51   1
   0   1  -9 88341.8 3260.80   7
   0   1  -8 464014. 11050.8   1
   0   1  -7 18149.2 1979.07   1
   0   1  -6 668308. 11302.8   1
   0   1  -5 519949. 9037.47   1
   0   1  -4 79116.6 3044.90   1
   0   1  -3 511600. 6933.16   1
   0   1  -2 1426.82 303.401   1
   0   1  -1 563269. 5111.88   1
   0   1   0 486894. 3742.34   2
   0   1   0 458234. 3911.51   1
   0   1   1 717150. 10433.6   2
   0   1   1 659312. 9482.31   4
   0   1   2 453967. 7541.33   2
   0   1   3 69639.2 2784.50   2
   0   1   4 559229. 8280.24   2
   0   1   5 42884.7 2173.29   2
   0   1   6 304847. 6173.12   2
   0   1   6 311839. 6373.63   3
   0   1   7 163077. 4819.91   3
   0   1   7 159796. 4750.08   2
   0   1   8 40454.6 2556.03   3
   0   1   9 103206. 4361.05   3
   0   1  10 767.808 230.210  15
   0   1  11 78606.1 2670.74  15
   0   1  12 32886.4 1701.51  15
   0   2 -15 8241.79 659.629   7
   0   2 -14 48543.4 2083.21   7
   0   2 -13 45201.7 2327.08   7
   0   2 -12 63824.4 2995.92   7
   0   2 -11 206255. 5591.41   7
   0   2 -10 35136.8 2239.60   7
   0   2  -9 182135. 7766.77   1
   0   2  -9 181870. 4940.10   7
   0   2  -8 103342. 5511.05   1
   0   2  -7 276956. 8417.63   1
   0   2  -6 344725. 8619.33   1
   0   2  -5 81874.7 3761.03   1
   0   2  -4 852829. 11330.9   1
   0   2  -3 2868.73 582.037   1
   0   2  -2 704067. 8231.49   1
   0   2  -2 713019. 8951.78   5
   0   2  -1 866934. 8275.75   1
   0   2  -1 872523. 8908.19   5
   0   2   0 5370.98 397.845   2
   0   2   0 4994.62 528.025   1
   0   2   1 452280. 5188.09   1
   0   2   1 455123. 8271.04   4
   0   2   2 435.348 305.114   2
   0   2   3 234687. 5264.26   2
   0   2   4 142507. 4081.89   2
   0   2   5 41426.6 2192.22   2
   0   2   6 517632. 8607.06   2
   0   2   7 16273.0 1596.54   3
   0   2   7 11699.4 1348.76   2
   0   2   8 244292. 6517.58   3
   0   2   8 232098. 6273.21   2
   0   2   9 8221.41 1251.29   3
   0   2  10 75592.4 4038.16   3
   0   2  10 79463.1 2668.41  15
   0   2  11 116658. 3378.57  15
   0   2  12 59094.5 2394.75  15
   0   2  13 167839. 3873.21  15
   0   3 -14 70472.2 2143.41   7
   0   3 -14 62422.2 1646.87  11
   0   3 -13 4459.22 687.099   7
   0   3 -12 73391.4 3082.54   7
   0   3 -11 2005.63 566.898   7
   0   3 -10 206892. 5605.36   7
   0   3  -9 247099. 5992.88   7
   0   3  -9 247607. 9550.10   1
   0   3  -8 3932.85 1117.97   1
   0   3  -8 6029.91 884.577   7
   0   3  -8 5492.60 791.661  10
   0   3  -7 340827. 10179.6   1
   0   3  -6 6857.49 1300.69   1
   0   3  -5 184055. 6341.58   1
   0   3  -4 332746. 7820.67   1
   0   3  -3 235835. 6004.78   1
   0   3  -3 245597. 6438.49   5
   0   3  -2 639946. 9202.64   1
   0   3  -2 639019. 9800.46   5
   0   3  -1 61000.6 2732.48   5
   0   3  -1 65308.1 2624.31   1
   0   3   0 148169. 3744.26   1
   0   3   0 148919. 4029.58   5
   0   3   1 27631.6 1588.39   1
   0   3   1 23898.6 1294.58   2
   0   3   1 26109.9 1656.46   5
   0   3   2 118668. 3448.33   2
   0   3   3 227122. 5037.64   2
   0   3   4 2868.50 626.366   2
   0   3   5 187637. 4947.94   2
   0   3   6 92669.5 3695.87   2
   0   3   7 373766. 7878.65   2
   0   3   8 122893. 4740.41   3
   0   3   8 115402. 4559.70   2
   0   3   9 80514.2 4012.63   3
   0   3  10 75393.8 4111.07   3
   0   3  10 81640.0 2812.17  15
   0   3  11 13028.2 1768.60   3
   0   3  11 13818.2 1194.61  15
   0   3  12 399055. 6579.78  15
   0   3  13 8641.08 900.708  15
   0   4 -13 84449.6 2479.75   7
   0   4 -12 16631.6 1322.81   7
   0   4 -11 39319.9 2254.82   7
   0   4 -10 134282. 4404.83   7
   0   4 -10 135789. 3972.14  10
   0   4  -9 1138.14 470.453   7
   0   4  -9 1116.93 418.836  10
   0   4  -8 154750. 4646.78   7
   0   4  -8 149360. 7524.40   1
   0   4  -8 150132. 4438.52  10
   0   4  -7 51290.3 4178.16   1
   0   4  -7 49340.0 2434.50  10
   0   4  -6 93929.2 5360.81   1
   0   4  -5 75421.8 4473.78   1
   0   4  -4 2659.15 845.085   1
   0   4  -3 649233. 11943.5   5
   0   4  -3 656498. 11665.7   1
   0   4  -2 56133.6 3211.98   5
   0   4  -2 56788.0 3091.13   1
   0   4  -1 252562. 6166.27   1
   0   4  -1 264952. 6614.25   5
   0   4   0 266601. 6007.46   1
   0   4   0 269532. 6412.56   5
   0   4   1 172849. 4692.37   1
   0   4   1 165211. 4965.28   5
   0   4   2 214126. 4664.08   2
   0   4   2 221329. 5753.83   5
   0   4   3 46065.3 2433.82   2
   0   4   4 338838. 6824.46   2
   0   4   5 67571.7 3135.30   2
   0   4   6 313867. 7078.65   2
   0   4   7 134469. 4869.09   2
   0   4   8 72238.6 3766.91   3
   0   4   8 66197.3 3546.82   2
   0   4   9 338651. 8592.77   3
   0   4  10 1879.93 439.144  15
   0   4  10 2137.02 735.679   3
   0   4  11 123524. 5541.97   3
   0   4  11 125804. 3683.90  15
   0   4  12 184847. 4464.28  15
   0   4  13 91669.1 3016.40  15
   0   5 -12 13150.0 980.723   7
   0   5 -11 64196.2 2582.91   7
   0   5 -10 12630.3 1281.01   7
   0   5 -10 12192.3 1114.18  10
   0   5  -9 129387. 4265.87   7
   0   5  -9 130922. 4184.34  10
   0   5  -8 79980.9 3386.26  10
   0   5  -8 81318.3 3396.02   7
   0   5  -7 45411.2 2467.94   7
   0   5  -7 45077.9 2497.93  10
   0   5  -7 47262.9 4243.69   1
   0   5  -6 123476. 3684.42   8
   0   5  -6 127379. 4061.43  10
   0   5  -6 123905. 6659.89   1
   0   5  -5-327.081 559.862   1
   0   5  -5 134.752 204.118  10
   0   5  -4 203151. 7642.96   1
   0   5  -3 127973. 5799.00   5
   0   5  -3 129418. 5721.32   1
   0   5  -2 37354.5 2876.46   1
   0   5  -2 37775.8 2937.66   5
   0   5  -1 250722. 7078.10   1
   0   5  -1 257996. 7426.50   5
   0   5   0 67454.3 3632.42   5
   0   5   0 70445.5 3546.28   1
   0   5   1 469496. 8944.59   1
   0   5   1 462499. 9460.03   5
   0   5   2 21474.0 2029.18   5
   0   5   3 548188. 10539.5   5
   0   5   4 345448. 7356.22   2
   0   5   4 374002. 8812.58   5
   0   5   5 120575. 4454.00   2
   0   5   6 172504. 5535.62   2
   0   5   7 20477.9 2022.88   2
   0   5   8 187182. 6078.82   3
   0   5   9 12926.3 1678.31   3
   0   5   9 12381.6 1111.01  15
   0   5  10 201565. 6955.05   3
   0   5  10 208642. 4804.97  15
   0   5  11 153885. 6253.08   3
   0   5  11 154398. 4167.86  15
   0   6 -11 27665.8 1382.15   7
   0   6 -10 13630.6 1163.37   7
   0   6 -10 13322.3 1040.92  10
   0   6  -9 94278.8 3373.05   7
   0   6  -9 94875.9 3376.02  10
   0   6  -8 11195.8 1237.54   7
   0   6  -8 11308.2 1271.90  10
   0   6  -7 163185. 4705.25   7
   0   6  -7 162197. 4938.65  10
   0   6  -6 5723.95 870.639   8
   0   6  -6 5543.13 907.422  10
   0   6  -5 136180. 3935.70   8
   0   6  -5 138294. 7040.52   1
   0   6  -5 138267. 4398.40  10
   0   6  -4 107344. 3345.16   8
   0   6  -4 110874. 6087.99   1
   0   6  -4 110097. 3732.68  10
   0   6  -3 87403.7 5188.91   1
   0   6  -3 87568.1 5197.01   5
   0   6  -2 282829. 8950.73   1
   0   6  -2 280067. 8976.97   5
   0   6  -1 5356.35 1163.90   1
   0   6  -1 5933.65 1270.72   5
   0   6   0 194701. 6770.57   1
   0   6   0 184903. 6782.94   5
   0   6   1 12657.9 1751.94   5
   0   6   2 171489. 6419.18   5
   0   6   3 250601. 7851.69   5
   0   6   4 32973.7 2868.26   5
   0   6   5 481767. 11480.8   5
   0   6   6 5074.64 1222.75   5
   0   6   6 5706.65 996.159   3
   0   6   7 125218. 4838.94   3
   0   6   8 94577.6 4387.06   3
   0   6   9 94680.4 4562.60   3
   0   6  10 187285. 6731.72   3
   0   7 -10 57716.0 1817.45   7
   0   7 -10 59668.2 1762.76  10
   0   7  -9 2198.73 466.707   7
   0   7  -9 1343.35 320.398  10
   0   7  -8 108463. 3431.57   7
   0   7  -8 106655. 3650.18  10
   0   7  -7 41365.7 2248.42   7
   0   7  -7 41806.4 2474.98  10
   0   7  -6 42819.8 2323.28   7
   0   7  -6 41086.9 2520.18  10
   0   7  -5 83855.5 3173.55   8
   0   7  -5 87840.8 3684.59  10
   0   7  -4 20269.8 1553.65   8
   0   7  -4 18252.4 2576.65   1
   0   7  -4 18622.4 1666.51  10
   0   7  -3 214135. 4914.20   8
   0   7  -3 209512. 8623.75   1
   0   7  -3 211344. 5447.15  10
   0   7  -2 6606.97 1446.23   1
   0   7  -2 5772.98 871.573  10
   0   7  -2 5261.60 1346.06   5
   0   7  -1 303996. 9670.54   1
   0   7  -1 298796. 9729.89   5
   0   7  -1 310610. 6029.16  10
   0   7   0 73571.0 4756.64   5
   0   7   1 57060.3 4066.04   5
   0   7   2 177724. 7177.97   5
   0   7   3 13888.5 2021.83   5
   0   7   4 187384. 5248.50   3
   0   7   4 196011. 7727.88   5
   0   7   5 104127. 4155.11   3
   0   7   5 112019. 5904.00   5
   0   7   6 66136.2 3457.40   3
   0   7   6 71976.5 4851.34   5
   0   7   7 96155.0 4391.15   3
   0   7   7 95001.5 2497.66  17
   0   7   7 102232. 6017.52   5
   0   7   8 1198.13 515.114   3
   0   7   8 1063.30 264.305  17
   0   7   8 1310.74 706.659   5
   0   7   9 232414. 7359.62   3
   0   7   9 220328. 3739.55  17
   0   8  -9 45271.3 1550.00  10
   0   8  -8 42860.5 1680.45   7
   0   8  -8 43901.5 1978.43  10
   0   8  -7 27024.1 1540.86   7
   0   8  -7 25858.2 1760.69  10
   0   8  -6 84643.7 2994.69   7
   0   8  -6 93310.7 3602.68  10
   0   8  -5 5021.14 804.316   8
   0   8  -5 3501.58 626.590   7
   0   8  -5 3718.41 775.411  10
   0   8  -4 91547.8 3299.69   8
   0   8  -4 90761.7 3800.09  10
   0   8  -3 39061.4 2162.62   8
   0   8  -3 38900.3 2455.76  10
   0   8  -2 49715.5 2439.59   8
   0   8  -2 50781.5 2742.14  10
   0   8  -1 130495. 6791.91   5
   0   8  -1 137897. 4373.75  10
   0   8   0 25569.2 2956.01   5
   0   8   0 26848.4 1452.56  17
   0   8   0 25439.3 1813.47  10
   0   8   1 116550. 6318.52   5
   0   8   1 121285. 3236.22  17
   0   8   1 124386. 3836.43  10
   0   8   2 47174.9 2018.89  17
   0   8   2 49061.4 2296.59  10
   0   8   3 103791. 5875.31   5
   0   8   3 114616. 3182.60  17
   0   8   4 64220.4 2385.19  17
   0   8   4 64903.3 4676.32   5
   0   8   5 21353.5 2813.41   5
   0   8   5 20754.1 1313.38  17
   0   8   6 185694. 8251.65   5
   0   8   6 174567. 3787.07  17
   0   8   7 11398.9 1528.93   3
   0   8   7 11531.0 944.315  17
   0   8   7 13641.6 2345.07   5
   0   8   8 49123.9 3307.05   3
   0   8   8 48657.5 1894.09  17
   0   8   9 64444.0 2140.52  17
   0   8  10 27713.3 1358.42  17
   0   9  -7 48681.4 1967.19  10
   0   9  -6 3338.53 615.147  10
   0   9  -5 38077.0 2217.34  10
   0   9  -4 44661.9 2165.07   8
   0   9  -4 48842.6 2655.63  10
   0   9  -3 9710.43 1038.73   8
   0   9  -3 9519.24 1245.24  10
   0   9  -2 89031.9 3254.05   8
   0   9  -2 90410.7 3746.09  10
   0   9  -1 3729.14 658.660   8
   0   9  -1 4588.32 849.492  10
   0   9   0 155063. 3668.36  17
   0   9   0 159729. 4776.95  10
   0   9   1 74344.6 2684.29  17
   0   9   1 79376.9 3255.25  10
   0   9   2 12438.7 1113.95  17
   0   9   2 12759.6 1256.55  10
   0   9   3 134416. 3710.97  17
   0   9   3 133326. 3879.51  10
   0   9   4 2634.42 553.224  17
   0   9   5 128848. 3557.39  17
   0   9   6 9650.37 967.271  17
   0   9   7 98950.0 2965.80  17
   0   9   8 82511.6 2629.81  17
   0   9   9 2460.86 478.127  17
   0   9  10 49737.3 1864.88  17
   0   9  11 216.411 123.909  17
   0  10  -6 15806.0 974.701  10
   0  10  -5 73157.3 2520.74  10
   0  10  -4 405.779 314.608  10
   0  10  -3 36338.5 1784.36   8
   0  10  -3 37658.1 2153.16  10
   0  10  -2 6490.38 810.299   8
   0  10  -2 6401.68 955.613  10
   0  10  -1 52538.7 2395.63   8
   0  10  -1 55817.6 2798.22  10
   0  10   0 81868.1 3065.28   8
   0  10   0 83816.2 3413.98  10
   0  10   1 4598.61 649.761  17
   0  10   1 4678.11 811.721  10
   0  10   2 69161.3 2603.11  17
   0  10   2 68506.8 2914.33  10
   0  10   3 15645.3 1280.04  17
   0  10   3 14951.1 1300.36  10
   0  10   4 87281.8 3058.54  17
   0  10   5 48049.8 2242.47  17
   0  10   6 36474.6 1901.07  17
   0  10   7 51194.7 2181.42  17
   0  10   8 2087.57 459.435  17
   0  10   9 58989.3 2148.72  17
   0  10  10 5933.29 633.147  17
   0  10  11 31717.9 1318.49  17
   0  11  -4 62824.4 1903.39  10
   0  11  -3 21293.1 1273.87  10
   0  11  -2 9118.74 777.966   8
   0  11  -2 8793.47 901.202  10
   0  11  -1 48608.8 1939.75   8
   0  11  -1 47736.0 2222.43  10
   0  11   0 2266.46 465.760   8
   0  11   0 2387.58 536.554  10
   0  11   1 69669.7 2573.01   8
   0  11   1 63530.4 2010.17  17
   0  11   1 66635.3 2678.40  10
   0  11   2 8406.79 823.119  17
   0  11   2 9248.76 963.754  10
   0  11   3 25028.0 1487.90  17
   0  11   4 44194.4 2041.20  17
   0  11   5 11078.2 1022.61  17
   0  11   6 56653.2 2273.11  17
   0  11   7 964.330 313.335  17
   0  11   8 45771.3 1880.75  17
   0  11   9 22763.2 1234.84  17
   0  11  10 16596.6 975.341  17
   0  11  11 34238.5 1214.34  17
   0  12   0 36568.6 1291.97   8
   0  12   0 30671.0 1301.54  10
   0  12   1 10882.7 790.220   8
   0  12   2 22214.8 1204.27   8
   0  12   3 43348.2 1750.05   8
   0  12   3 39750.3 1485.17  17
   0  12   4 44.4878 174.571  17
   0  12   5 33767.5 1522.70  17
   0  12   6 6976.56 703.085  17
   0  12   7 12108.2 891.042  17
   0  12   8 25643.9 1218.61  17
   0  12   9 2814.46 379.535  17
   0  12  10 30140.3 1072.23  17
   1 -10 -13 45208.9 1475.74  14
   1 -10 -12 46703.9 1644.45  14
   1 -10 -11 28467.6 1365.50  14
   1 -10 -10 64631.8 2113.55  14
   1 -10  -9 456.451 267.887  14
   1  -9 -14 30447.4 1255.28  14
   1  -9 -13 41246.2 1633.00  14
   1  -9 -12 7093.61 754.999  14
   1  -9 -11 120307. 3120.29  14
   1  -9 -10 1015.20 295.781  14
   1  -9  -9 103995. 2950.40  14
   1  -9  -8 88443.6 2683.33  14
   1  -8 -15 22438.8 1029.99  14
   1  -8 -14 93991.1 2461.17  14
   1  -8 -13 4242.07 585.168  14
   1  -8 -12 81001.1 2611.18  14
   1  -8 -11 29370.0 1601.18  14
   1  -8 -10 71996.6 2541.93  14
   1  -8  -9 131017. 3415.56  14
   1  -8  -8 2840.23 524.212  14
   1  -8  -7 43615.4 1847.23  14
   1  -7 -15 60827.2 1817.54  14
   1  -7 -14 8744.07 787.565  14
   1  -7 -13 27888.2 1502.95  14
   1  -7 -12 61356.9 2310.85  14
   1  -7 -11 31122.7 1661.67  14
   1  -7 -10 196820. 4210.29  14
   1  -7  -9 16671.8 1205.56  14
   1  -7  -8 71037.8 2435.43  14
   1  -7  -7 13125.9 1013.80  14
   1  -6 -15 20873.2 1081.40  14
   1  -6 -14 27034.8 1385.40  14
   1  -6 -13 57036.2 2160.32  14
   1  -6 -12 769.030 289.014  14
   1  -6 -11 144552. 3576.62  14
   1  -6 -10 44268.9 1925.35  14
   1  -6  -9 54120.3 2118.42  14
   1  -5 -15 6923.16 617.568  14
   1  -5 -14 59334.0 2048.57  14
   1  -5 -13 2596.72 447.940  14
   1  -5 -12 121113. 3208.65  14
   1  -5 -11 59663.7 2234.50  14
   1  -5 -10 57062.8 2159.32  14
   1  -4 -16 1023.64 256.193  11
   1  -4 -15 107684. 2999.67  11
   1  -4 -14 27833.7 1345.90  14
   1  -4 -14 28251.2 1715.78  11
   1  -4 -13 70662.2 2343.47  14
   1  -4 -12 158139. 3600.74  14
   1  -4 -11 26938.7 1461.31  14
   1  -3 -16 38088.3 1506.29  11
   1  -3 -15 20022.5 1342.77  11
   1  -3 -12 1080.36 270.108  14
   1  -3 -11 162465. 3548.84  14
   1  -3   2 476801. 5008.90   2
   1  -2 -16 47644.5 1705.98  11
   1  -2 -14 77579.6 2800.06   7
   1  -2 -13 28870.6 1851.86   7
   1  -2 -12 182393. 4840.46   7
   1  -2 -11 33370.0 1987.23   7
   1  -2 -10 10713.5 1055.00   7
   1  -2   2 8980.11 684.155   2
   1  -2   3 175002. 2907.66   2
   1  -2   4 1040.35 255.503   2
   1  -1 -16 201.743 183.483  11
   1  -1 -15 75328.4 2333.18   7
   1  -1 -14 11459.7 1087.32   7
   1  -1 -13 49638.4 2503.79   7
   1  -1 -12 245097. 5805.87   7
   1  -1 -11 33176.4 2057.74   7
   1  -1 -11 35773.6 3180.03   1
   1  -1 -10 96705.0 3369.83   7
   1  -1   2 55313.1 1726.67   2
   1  -1   3 27501.2 1224.91   2
   1  -1   4 699160. 7276.03   2
   1  -1   5 9797.88 1131.91   2
   1  -1   6 59331.4 3072.95   2
   1   0 -15 43230.7 1704.34   7
   1   0 -14 9027.09 964.723   7
   1   0 -13 103466. 3659.95   7
   1   0 -12 7438.76 1002.74   7
   1   0 -11 236454. 5787.69   7
   1   0 -10 18439.8 1543.35   7
   1   0 -10 14996.2 2050.25   1
   1   0  -9 80018.8 4518.99   1
   1   0   1 517218. 5560.74   2
   1   0   2 27867.0 1209.91   2
   1   0   3 563994. 6147.42   2
   1   0   4 228379. 4226.94   2
   1   0   5 259473. 6117.75   2
   1   0   6 106921. 5157.77   2
   1   0   7 73749.7 3514.77   2
   1   1 -15 1789.43 324.970   7
   1   1 -14 66274.5 2495.84   7
   1   1 -13 38075.7 2155.35   7
   1   1 -12 89876.5 3548.16   7
   1   1 -11 130705. 4369.60   7
   1   1 -10 44890.0 3622.35   1
   1   1 -10 47321.6 2536.98   7
   1   1  -9 204557. 5003.17   7
   1   1  -9 185602. 7124.87   1
   1   1  -8 16147.8 1951.98   1
   1   1  -7 211232. 6681.55   1
   1   1  -4 79794.0 1951.20   4
   1   1   0 316354. 4089.46   2
   1   1   0 317490. 2305.02   5
   1   1   1 174951. 3031.70   2
   1   1   2 98303.3 2357.83   2
   1   1   3 111012. 2760.35   2
   1   1   4 16435.4 1226.88   2
   1   1   5 512538. 9291.91   2
   1   1   5 491544. 4939.31   4
   1   1   6 93153.4 5435.50   2
   1   1   7 222811. 7184.19   2
   1   1   8 277505. 6835.70   2
   1   1   9 8461.51 1133.69   3
   1   1   9 8592.47 1145.73   2
   1   2 -14 30789.3 1557.25   7
   1   2 -13 15344.6 1316.27   7
   1   2 -12 83854.7 3376.97   7
   1   2 -11 14296.5 1474.12   7
   1   2 -10 174573. 5104.08   7
   1   2  -9 41590.6 3515.09   1
   1   2  -9 42220.9 2402.72   7
   1   2  -8 84461.8 4719.94   1
   1   2  -8 94468.0 3290.45   7
   1   2  -7 130796. 5469.63   1
   1   2  -6 72898.4 3768.90   1
   1   2  -5 372903. 7843.85   1
   1   2  -4 11932.4 1248.99   1
   1   2  -4 8635.83 1303.04   4
   1   2  -3 492351. 7283.49   1
   1   2  -3 504040. 7180.03   4
   1   2  -2 12760.4 677.580   2
   1   2  -2 12948.3 1000.89   1
   1   2  -2 14162.2 1089.95   4
   1   2  -1 12033.5 839.093   5
   1   2  -1 11345.3 666.977   2
   1   2  -1 12332.2 813.031   1
   1   2   0 303276. 3181.24   1
   1   2   0 304362. 3967.64   5
   1   2   1 616826. 6130.70   2
   1   2   2 733282. 7416.30   2
   1   2   3 722839. 8155.06   2
   1   2   4 59121.8 2773.07   2
   1   2   4 59292.5 2114.07   4
   1   2   5 493574. 10797.0   2
   1   2   5 493812. 7185.74   4
   1   2   6 7474.68 1502.47   2
   1   2   6 9973.44 1603.12   4
   1   2   7 289500. 8606.65   2
   1   2   8 779.443 418.886   2
   1   2   9 218994. 6061.25   2
   1   2  10 83868.8 3832.66   3
   1   2  10 77869.6 3726.13   2
   1   3 -14 15791.2 951.807   7
   1   3 -13 87492.3 2852.23   7
   1   3 -12 606.215 328.711   7
   1   3 -11 100220. 3801.84   7
   1   3 -10 54826.1 2878.87   7
   1   3  -9 18483.8 2395.81   1
   1   3  -9 21681.4 1780.92   7
   1   3  -8 66863.6 4412.99   1
   1   3  -7 4210.63 1043.85   1
   1   3  -6 253340. 7555.03   1
   1   3  -5 55096.8 3195.88   1
   1   3  -4 242661. 6159.16   1
   1   3  -3 337339. 6575.04   1
   1   3  -3 336066. 13558.2   4
   1   3  -2 3387.21 573.587   1
   1   3  -2 3185.00 634.201   5
   1   3  -2 4353.69 1024.15   4
   1   3  -1 191984. 3892.79   1
   1   3  -1 191000. 4385.25   5
   1   3  -1 199469. 5800.01   4
   1   3  -1 196724. 2800.98   2
   1   3   0 557405. 7256.24   5
   1   3   0 564786. 6131.48   1
   1   3   0 566686. 8973.52   4
   1   3   0 577486. 5845.47   2
   1   3   1 783699. 6378.14   1
   1   3   1 784403. 8708.73   5
   1   3   2 258391. 5161.42   2
   1   3   2 259836. 5802.99   4
   1   3   3 297717. 6609.18   2
   1   3   3 281566. 6325.99   4
   1   3   4 941433. 15373.7   2
   1   3   4 999999. 13410.2   4
   1   3   5 94269.7 5770.09   2
   1   3   5 97364.8 5374.54   4
   1   3   6 147346. 6767.29   2
   1   3   6 198594. 6770.36   4
   1   3   7 32518.7 2805.53   2
   1   3   8 126043. 4929.95   2
   1   3   9 97394.7 4113.11   2
   1   3  10 41293.2 2823.34   2
   1   3  10 44572.3 2031.82  15
   1   3  10 43340.3 2908.55   3
   1   3  11 142638. 5326.22   3
   1   3  11 137178. 5262.77   2
   1   4 -13 11822.7 884.932   7
   1   4 -12 64038.2 2531.27   7
   1   4 -11 41172.6 2307.29   7
   1   4 -10 19514.4 1685.32   7
   1   4  -9 204162. 5550.59   7
   1   4  -8 28435.8 3029.53   1
   1   4  -7 51189.4 3893.68   1
   1   4  -7 51531.0 2328.75  10
   1   4  -6 36026.7 3080.45   1
   1   4  -5 37680.0 2934.92   1
   1   4  -4 175588. 5872.91   1
   1   4  -3 6945.58 1077.06   1
   1   4  -2 477126. 8232.61   1
   1   4  -2 463128. 8737.33   5
   1   4  -1 257392. 6101.58   5
   1   4  -1 261212. 5485.59   1
   1   4   0 241045. 4710.19   1
   1   4   0 232218. 5499.23   5
   1   4   1 442306. 10373.4   2
   1   4   1 502303. 6292.70   1
   1   4   1 491692. 8101.77   5
   1   4   1 460954. 13549.9   4
   1   4   2 128371. 6084.64   2
   1   4   2 141270. 4298.41   5
   1   4   2 145072. 7446.73   4
   1   4   3 185897. 8396.90   2
   1   4   3 204772. 9245.29   4
   1   4   4 5840.29 1474.21   2
   1   4   4 7040.69 1974.24   4
   1   4   5 245163. 8835.60   2
   1   4   5 300339. 10807.2   4
   1   4   6 71760.2 4275.28   2
   1   4   6 88957.2 4420.04   4
   1   4   7 90618.3 4359.72   2
   1   4   8 104193. 4494.98   2
   1   4   9 11995.9 1514.91   2
   1   4  10 91007.9 4293.06   2
   1   4  11 21765.7 2155.08   3
   1   4  11 19775.2 2059.32   2
   1   5 -12 60556.5 2080.04   7
   1   5 -11 751.512 325.122   7
   1   5 -10 53966.3 2648.64   7
   1   5  -9 11332.4 1296.23   7
   1   5  -8 157091. 4802.51   7
   1   5  -8 157562. 4429.63  10
   1   5  -7 245235. 8932.36   1
   1   5  -7 252137. 5625.38  10
   1   5  -6 2241.93 753.926   1
   1   5  -6 3127.37 595.014  10
   1   5  -5 90586.9 4987.88   1
   1   5  -5 92632.3 3069.99  10
   1   5  -4 9265.92 1503.81   1
   1   5  -3 235981. 7102.72   1
   1   5  -2 108630. 4770.98   5
   1   5  -2 109006. 4435.48   1
   1   5  -1 30581.4 2131.99   1
   1   5  -1 30145.8 2360.27   5
   1   5  -1 33723.3 3348.85   4
   1   5   0 245091. 5703.77   1
   1   5   0 236066. 6460.94   5
   1   5   1 678.538 325.420   2
   1   5   1 739.478 312.890   5
   1   5   1 771.805 869.510   4
   1   5   2 319784. 7112.75   2
   1   5   2 311567. 7467.07   5
   1   5   3 45750.0 2980.50   2
   1   5   3 41266.0 2719.80   5
   1   5   3 49128.9 4814.83   4
   1   5   4 103820. 4577.29   2
   1   5   4 96772.3 4258.40   5
   1   5   5 76713.5 3962.77   2
   1   5   5 100224. 5280.45   4
   1   5   6 15800.2 1785.60   2
   1   5   7 174153. 5870.86   2
   1   5   8 12122.2 1519.31   2
   1   5   9 103145. 4572.11   2
   1   5  10 12962.9 1665.77   2
   1   6 -11 27927.6 1388.84   7
   1   6 -10 55670.3 2364.44   7
   1   6  -9 6973.12 945.294   7
   1   6  -9 7549.52 854.650  10
   1   6  -8 93502.8 3567.23   7
   1   6  -8 92331.7 3329.26  10
   1   6  -7 469.201 260.395  10
   1   6  -6 200219. 5188.61  10
   1   6  -5 13663.8 1136.42   8
   1   6  -5 14116.3 1354.63  10
   1   6  -4 57882.5 2551.50  10
   1   6  -3 136574. 3726.28  10
   1   6  -2 64435.4 4017.94   5
   1   6  -1 124228. 5382.90   5
   1   6   0 466.904 449.449   5
   1   6   1 172630. 6098.27   5
   1   6   2 69570.9 3895.15   5
   1   6   3 17953.1 1535.26   2
   1   6   3 17650.9 2018.97   5
   1   6   4 48701.4 2716.06   2
   1   6   4 52842.7 3536.18   5
   1   6   5 7521.93 1117.79   2
   1   6   5 9184.79 1499.58   5
   1   6   6 152744. 5309.05   2
   1   6   7 42350.6 2894.81   2
   1   6   8 111173. 4829.37   2
   1   6   9 56774.8 3531.06   2
   1   6  10 33632.8 2779.19   2
   1   6  10 36126.9 2800.81   3
   1   7 -10 815.608 267.615   7
   1   7  -9 57932.8 2293.26   7
   1   7  -9 58827.5 2034.29  10
   1   7  -8 3524.46 673.552   7
   1   7  -8 3793.78 657.293  10
   1   7  -7 62428.8 2814.65   7
   1   7  -7 63037.1 2818.96  10
   1   7  -6 41526.4 2380.28  10
   1   7  -5 40175.6 2017.45   8
   1   7  -5 38597.8 2298.55  10
   1   7  -4 98785.9 3186.88   8
   1   7  -4 100865. 3644.06  10
   1   7  -3 3051.93 593.984   8
   1   7  -3 2739.94 592.325  10
   1   7  -2 139182. 3614.96   8
   1   7  -2 144160. 4127.01  10
   1   7  -1 12653.5 1887.12   5
   1   7  -1 13959.3 1041.76  17
   1   7   0 103916. 5307.55   5
   1   7   1 83460.4 4690.66   5
   1   7   2 20937.7 2358.97   5
   1   7   3 106911. 5388.74   5
   1   7   4 9559.08 1229.07   2
   1   7   4 10043.0 1731.90   5
   1   7   5 80282.4 3756.58   2
   1   7   5 85336.5 5015.26   5
   1   7   6 105511. 4532.64   2
   1   7   6 107706. 3125.38  17
   1   7   6 114535. 5934.05   5
   1   7   7 23702.5 2251.24   2
   1   7   7 25122.0 1462.77  17
   1   7   7 28648.4 3068.05   5
   1   7   8 101222. 4746.21   2
   1   7   8 100322. 2871.61  17
   1   7   8 102918. 6014.44   5
   1   8  -9 15294.4 850.302   7
   1   8  -8 18418.9 1183.27   7
   1   8  -8 19724.8 1197.73  10
   1   8  -7 20091.0 1417.69   7
   1   8  -7 22016.4 1487.46  10
   1   8  -6 13128.9 1284.57  10
   1   8  -5 76171.9 3208.71  10
   1   8  -4 13970.9 1208.42   8
   1   8  -4 13931.2 1416.74  10
   1   8  -3 49944.7 2289.91   8
   1   8  -3 46513.6 2545.31  10
   1   8  -2 51673.2 2340.83   8
   1   8  -2 53918.6 2675.37  10
   1   8  -1 25682.0 1603.96   8
   1   8  -1 24544.5 1474.52  17
   1   8  -1 26918.7 1865.23  10
   1   8   0 165808. 4097.79  17
   1   8   1 1475.65 395.464  17
   1   8   2 64002.1 4396.24   5
   1   8   2 66517.1 2705.18  17
   1   8   3 13047.8 1184.14  17
   1   8   3 10193.0 1779.87   5
   1   8   4 95336.2 5454.15   5
   1   8   4 93416.9 3251.73  17
   1   8   5 121502. 6290.93   5
   1   8   5 115435. 3553.54  17
   1   8   6 31229.3 1803.84  17
   1   8   6 32928.1 3332.24   5
   1   8   7 113504. 3337.53  17
   1   8   7 125980. 6641.39   5
   1   8   8 12155.6 1054.64  17
   1   8   9 73304.5 2477.50  17
   1   9  -7 219.957 137.586   7
   1   9  -7 308.742 197.493  10
   1   9  -6 44583.1 1847.37   7
   1   9  -6 48980.9 2131.90  10
   1   9  -5 16633.3 1251.97   7
   1   9  -5 17826.2 1425.39  10
   1   9  -4 16292.3 1468.28  10
   1   9  -3 49546.2 2617.90  10
   1   9  -2 1807.03 421.140   8
   1   9  -2 1436.55 519.334  10
   1   9  -1 102199. 3316.70   8
   1   9  -1 102136. 3731.86  10
   1   9   0 15416.0 1259.72  17
   1   9   0 15530.3 1450.59  10
   1   9   1 110969. 3553.59  17
   1   9   2 93109.3 3331.68  17
   1   9   3 9577.30 1095.21  17
   1   9   4 129667. 4016.51  17
   1   9   5-70.4094 237.035  17
   1   9   6 122586. 3713.95  17
   1   9   7 7644.04 889.214  17
   1   9   8 43060.8 2029.15  17
   1   9   9 70733.9 2483.13  17
   1   9  10 8287.39 781.913  17
   1  10  -6 32160.7 1270.56  10
   1  10  -5 7529.49 762.265  10
   1  10  -4 60408.5 1941.02   7
   1  10  -4 73885.5 2669.69  10
   1  10  -3 4033.58 717.238  10
   1  10  -2 46467.3 2381.38  10
   1  10  -1 22372.0 1686.62  10
   1  10   0 43298.8 2077.60   8
   1  10   0 40402.4 1853.93  17
   1  10   0 42124.8 2328.11  10
   1  10   1 44880.4 2163.92   8
   1  10   1 44100.5 2141.39  17
   1  10   1 43680.0 2352.92  10
   1  10   2 1689.39 484.542  17
   1  10   2 1976.10 518.896  10
   1  10   3 78794.1 3086.77  17
   1  10   3 76012.4 2941.07  10
   1  10   4 14081.6 1326.86  17
   1  10   4 13897.9 1222.49  10
   1  10   5 48691.5 2389.75  17
   1  10   6 36830.4 2022.29  17
   1  10   7 32302.8 1822.52  17
   1  10   8 63991.1 2446.54  17
   1  10   9 1960.89 404.805  17
   1  10  10 40269.7 1666.98  17
   1  10  11 4422.68 483.753  17
   1  11  -4 8719.00 672.816  10
   1  11  -3 31980.0 1500.91  10
   1  11  -2 30367.2 1613.87  10
   1  11  -1 8639.67 917.898  10
   1  11   0 56748.1 2416.23  10
   1  11   1 966.168 286.111  17
   1  11   1 785.954 334.475  10
   1  11   2 37559.4 1766.75   8
   1  11   2 35909.2 1774.96  17
   1  11   2 33895.3 1856.86  10
   1  11   3 24298.5 1563.56  17
   1  11   3 21943.5 1452.38  10
   1  11   4 18379.8 1389.71  17
   1  11   4 16865.3 1229.11  10
   1  11   5 30542.7 1788.56  17
   1  11   6 2305.24 513.744  17
   1  11   7 53411.0 2204.08  17
   1  11   8 4809.16 642.966  17
   1  11   9 27737.2 1383.21  17
   1  11  10 34934.5 1386.40  17
   1  11  11 4134.78 388.453  17
   1  12  -1 22645.3 1045.66  10
   1  12   0 4003.01 481.773  10
   1  12   1 24004.1 1230.87  10
   1  12   2 13359.2 935.076  10
   1  12   3 2588.79 398.925  17
   1  12   4 32811.1 1492.43  17
   1  12   5 53.2217 159.032  17
   1  12   6 30637.0 1473.82  17
   1  12   7 13871.9 947.693  17
   1  12   8 7092.97 642.481  17
   1  12   9 20433.2 981.344  17
   1  12  10 530.139 141.304  17
   2 -10 -12 29204.1 1122.80  14
   2 -10 -11 23974.4 1092.64  14
   2 -10 -10 14291.0 874.498  14
   2  -9 -14 10892.3 641.539  14
   2  -9 -13 24558.8 1124.26  14
   2  -9 -12 52537.0 1801.97  14
   2  -9 -11 5385.41 609.671  14
   2  -9 -10 101519. 2735.29  14
   2  -9  -9 12997.1 975.742  14
   2  -9  -8 30272.4 1467.91  14
   2  -8 -15 37175.8 1113.73  14
   2  -8 -14 7576.63 626.470  14
   2  -8 -13 27461.1 1317.75  14
   2  -8 -12 1094.18 313.606  14
   2  -8 -11 118829. 3113.04  14
   2  -8 -10 49887.9 2047.06  14
   2  -8  -9 29614.2 1589.22  14
   2  -8  -8 103585. 2939.09  14
   2  -8  -7 1983.00 430.199  14
   2  -7 -15 4143.65 414.298  14
   2  -7 -14 97688.4 2387.69  14
   2  -7 -13 24065.8 1309.22  14
   2  -7 -12 9499.97 901.349  14
   2  -7 -11 89982.9 2806.72  14
   2  -7 -10 24386.2 1494.68  14
   2  -6 -15 53480.1 1530.43  14
   2  -6 -14 29684.1 1344.99  14
   2  -6 -13 38107.8 1689.40  14
   2  -6 -12 130184. 3335.33  14
   2  -6 -11 21506.8 1393.72  14
   2  -5 -15 69997.5 1716.27  14
   2  -5 -14 1749.00 321.767  14
   2  -5 -13 85686.3 2525.84  14
   2  -5 -12 15588.5 1152.81  14
   2  -4 -14 78909.2 2124.76  14
   2  -4 -13 30186.9 1466.60  14
   2  -4 -12 37782.2 1750.84  14
   2  -3 -15 51084.0 1781.30  11
   2  -3 -13 12301.9 873.356  14
   2  -3 -12 96429.6 2711.97  14
   2  -3   2 474122. 7544.83   2
   2  -3   3 186616. 4230.35   2
   2  -2   2 495919. 7620.84   2
   2  -2   3 144822. 3895.50   2
   2  -2   4 271297. 5213.43   2
   2  -1   2 43071.6 2157.33   2
   2  -1   3 536337. 7715.19   2
   2  -1   4 60568.9 2489.43   2
   2  -1   5 90840.5 3193.88   2
   2  -1   6 61143.8 2909.45   2
   2   0 -13 1760.88 363.125   7
   2   0 -12 172037. 4497.23   7
   2   0 -11 1700.55 484.544   7
   2   0 -10 181320. 4719.63   7
   2   0 -10 171611. 6914.40   1
   2   0  -9 132583. 3812.60   7
   2   0   1 91099.5 3187.55   2
   2   0   2 732818. 9179.27   2
   2   0   3 109722. 3428.81   2
   2   0   4 179677. 4461.07   2
   2   0   5 413615. 7179.12   2
   2   0   6 1064.13 452.926   2
   2   0   7 72271.2 4258.81   2
   2   0   8 9856.43 1749.42   2
   2   1 -14 865.173 246.323   7
   2   1 -13 50309.0 2184.31   7
   2   1 -12 69428.1 2878.14   7
   2   1 -11 176302. 4869.94   7
   2   1 -10 103426. 3760.56   7
   2   1  -9 610.326 313.099   7
   2   1  -9 498.503 511.311   1
   2   1   0 126116. 3673.64   2
   2   1   1 64515.6 2576.93   2
   2   1   2 256443. 5245.12   2
   2   1   3 14993.7 1267.75   2
   2   1   4 536210. 8051.40   2
   2   1   5 10942.5 1195.79   2
   2   1   6 217190. 5956.90   2
   2   1   7 140959. 6176.29   2
   2   1   8 102459. 6624.76   2
   2   1   9 313657. 9188.65   2
   2   2 -14 35546.3 1328.58   7
   2   2 -13 28531.5 1558.98   7
   2   2 -12 4220.12 713.466   7
   2   2 -11 118379. 4011.86   7
   2   2 -10 32522.0 2154.50   7
   2   2  -9 88775.4 4918.08   1
   2   2  -9 100968. 3724.22   7
   2   2  -8 72127.8 4275.36   1
   2   2  -7 108834. 4958.62   1
   2   2  -6 269802. 7318.59   1
   2   2  -3 3368.60 552.842   2
   2   2  -2 531377. 7403.68   2
   2   2  -1 301166. 5440.73   2
   2   2   0 72808.7 2634.29   2
   2   2   1 283480. 2714.63   5
   2   2   1 308172. 5598.25   2
   2   2   2 32002.1 1821.39   2
   2   2   3 525072. 7900.81   2
   2   2   4 347628. 6610.61   2
   2   2   5 236039. 5813.33   2
   2   2   6 108970. 4638.26   2
   2   2   6 109236. 3303.81   4
   2   2   7 1262.96 736.678   2
   2   2   8 403857. 13822.9   2
   2   2   9 11802.4 1922.00   2
   2   2  10 206006. 6710.22   2
   2   3 -13 336.908 199.282   7
   2   3 -12 70811.4 2698.86   7
   2   3 -11 8597.65 1065.95   7
   2   3 -10 122864. 4192.63   7
   2   3  -9 26543.4 1966.43   7
   2   3  -8 7094.67 1383.60   1
   2   3  -7 123561. 5451.39   1
   2   3  -6 10526.2 1500.68   1
   2   3  -5 301010. 7372.74   1
   2   3  -4 70367.4 3593.33   4
   2   3  -4 66663.8 3159.45   1
   2   3  -3 155677. 4707.18   4
   2   3  -3 152618. 4294.80   1
   2   3  -2 443524. 5896.31   2
   2   3  -2 450596. 7934.20   4
   2   3  -2 465338. 6701.05   1
   2   3  -1 4711.95 543.674   1
   2   3  -1 4224.23 577.777   2
   2   3   0 480986. 6762.94   2
   2   3   1 28363.6 1227.98   5
   2   3   1 28355.9 1673.59   2
   2   3   2 517126. 6455.19   5
   2   3   2 530992. 7772.62   2
   2   3   3 280809. 5816.13   2
   2   3   4 149693. 4586.33   2
   2   3   5 286633. 7168.37   2
   2   3   5 275935. 6156.88   4
   2   3   6 38039.7 3192.25   2
   2   3   6 35749.5 2268.84   4
   2   3   7 240889. 10119.8   2
   2   3   8 98962.3 6921.19   2
   2   3   9 186889. 7861.97   2
   2   3  10 161960. 6148.23   2
   2   4 -13 39415.4 1335.74   7
   2   4 -12 36874.3 1719.96   7
   2   4 -11 43385.6 2223.25   7
   2   4 -10 95125.1 3597.39   7
   2   4  -9 16525.2 1591.95   7
   2   4  -7 27230.6 2667.79   1
   2   4  -6 142510. 5797.83   1
   2   4  -5 134753. 5279.19   1
   2   4  -4 113905. 4446.00   1
   2   4  -3 316188. 6789.46   1
   2   4  -3 302823. 10859.5   4
   2   4  -2 7089.18 1393.61   4
   2   4  -1 272718. 7440.33   4
   2   4   0 275442. 7194.22   4
   2   4   0 277466. 4998.34   2
   2   4   1 453932. 9139.25   4
   2   4   1 445878. 7049.13   2
   2   4   2 360918. 6286.35   5
   2   4   2 373682. 8208.26   4
   2   4   2 367270. 6739.66   2
   2   4   3 141682. 4576.65   2
   2   4   3 142885. 5076.58   4
   2   4   4 611663. 11040.7   2
   2   4   4 594166. 10851.9   4
   2   4   5 102536. 5291.11   2
   2   4   5 91493.1 4433.52   4
   2   4   6 143747. 7749.60   2
   2   4   6 153214. 6766.12   4
   2   4   7 78414.1 6560.90   2
   2   4   7 96623.2 7547.00   4
   2   4   8 28265.5 3563.89   2
   2   4   9 145791. 6624.29   2
   2   4  10 463.749 419.989   2
   2   5 -12 11995.1 797.367   7
   2   5 -11 123594. 3295.54   7
   2   5 -10 7428.79 952.936   7
   2   5  -9 100097. 3696.90   7
   2   5  -6 179523. 4343.20  10
   2   5  -5 21023.1 1439.77  10
   2   5  -3 51002.0 4699.77   4
   2   5  -2 163596. 12597.8   4
   2   5  -1 83885.9 7238.92   4
   2   5   0 4158.14 1387.98   4
   2   5   1 544170. 10749.4   2
   2   5   1 507105. 13986.1   4
   2   5   2 263.341 342.136   2
   2   5   2 942.179 840.757   4
   2   5   3 46977.5 3745.55   2
   2   5   3 45647.7 2706.50   5
   2   5   3 44911.2 4146.67   4
   2   5   4 44057.0 4168.31   2
   2   5   4 45197.1 2851.88   5
   2   5   4 46799.1 4437.63   4
   2   5   5 214003. 10408.6   2
   2   5   5 228343. 10957.1   4
   2   5   6 363485. 13558.4   2
   2   5   6 405688. 18813.9   4
   2   5   7 2579.17 1310.78   2
   2   5   7 5796.46 1650.35   4
   2   5   8 125661. 6464.14   2
   2   5   9 16819.8 2140.39   2
   2   5  10 78051.3 4196.69   2
   2   6 -11 12226.7 818.068   7
   2   6 -10 39861.1 1862.76   7
   2   6  -9 67895.6 2767.12   7
   2   6  -8 18596.7 1602.80   7
   2   6  -7 188606. 4558.25  10
   2   6  -6 21470.9 1584.13  10
   2   6  -5 111303. 3561.13  10
   2   6  -4 58572.9 2539.11  10
   2   6  -1 27607.3 3905.20   4
   2   6   0 182050. 11314.2   4
   2   6   1 127130. 11053.9   4
   2   6   2 222194. 16137.0   4
   2   6   3 50923.5 4130.48   2
   2   6   3 51629.7 7760.97   4
   2   6   4 15711.6 2472.73   2
   2   6   4 18381.7 4086.35   4
   2   6   5 160669. 7601.41   2
   2   6   5 172439. 10686.8   4
   2   6   6 4875.94 1219.51   2
   2   6   6 5764.06 1179.89   5
   2   6   6 5631.45 1679.40   4
   2   6   7 222704. 8031.13   2
   2   6   7 253944. 5785.96  17
   2   6   8 121699. 5660.27   2
   2   6   9 37011.7 2909.92   2
   2   7 -10 33204.5 1284.62   7
   2   7  -9 98.9815 167.269   7
   2   7  -8 52088.7 2332.64   7
   2   7  -7 7454.96 870.884  10
   2   7  -6 103905. 3454.17  10
   2   7  -5 161991. 4461.85  10
   2   7  -4 11799.8 1181.55  10
   2   7  -3 86400.6 3205.44  10
   2   7  -1 81686.2 2901.04  17
   2   7   0 86081.2 3085.28  17
   2   7   1 57123.1 2615.50  17
   2   7   2 238342. 5701.32  17
   2   7   2 303529. 12026.1   4
   2   7   3 1588.85 496.276  17
   2   7   3 2893.58 1331.43   4
   2   7   4 102121. 4145.63  17
   2   7   4 134529. 8004.45   4
   2   7   5 50090.4 3195.26   2
   2   7   5 46779.9 2922.36  17
   2   7   6 59827.6 3628.73   2
   2   7   6 61380.3 3138.93  17
   2   7   7 102106. 4696.21   2
   2   7   7 117610. 3985.31  17
   2   7   8 15665.7 1888.26   2
   2   7   8 16855.2 1358.86  17
   2   8  -8 32463.3 1479.02   7
   2   8  -7 4922.93 708.855   7
   2   8  -7 4450.85 579.938  10
   2   8  -6 42146.4 2037.63  10
   2   8  -5 1113.11 408.216  10
   2   8  -4 66706.1 2848.27  10
   2   8  -3 64612.0 2862.73  10
   2   8  -2 30452.5 1969.54  10
   2   8   0 7630.50 972.996  17
   2   8   1 177911. 4838.19  17
   2   8   2 14389.8 1442.21  17
   2   8   3 148233. 4688.72  17
   2   8   4 58735.4 3022.02  17
   2   8   5 36982.3 2416.22  17
   2   8   6 103472. 3868.29  17
   2   8   7 2081.20 569.250  17
   2   8   8 166828. 4350.73  17
   2   8   9 25910.7 1561.59  17
   2   9  -7 46624.9 1498.72   7
   2   9  -6 8652.54 804.275   7
   2   9  -6 8581.44 775.573  10
   2   9  -5 38916.2 1894.05  10
   2   9  -4 19585.3 1451.74  10
   2   9  -3 11433.8 1186.59  10
   2   9  -2 92174.9 3343.31  10
   2   9  -1 1040.33 451.111  10
   2   9   1 41643.0 2310.19  17
   2   9   2 53039.5 2730.61  17
   2   9   3 89538.0 3613.33  17
   2   9   4 15333.9 1548.06  17
   2   9   5 142561. 4563.00  17
   2   9   6 10387.9 1230.07  17
   2   9   7 82924.9 3211.21  17
   2   9   8 54674.2 2421.71  17
   2   9   9 17786.3 1260.39  17
   2  10  -5 24288.3 1042.18   7
   2  10  -5 26811.2 1207.80  10
   2  10  -4 6835.09 719.537  10
   2  10  -3 57704.4 2316.81  10
   2  10  -2 2993.34 569.962  10
   2  10  -1 76129.2 2887.87  10
   2  10   0 41725.3 2174.83  10
   2  10   1 16606.7 1409.07  10
   2  10   2 64147.1 2782.90  17
   2  10   3 562.487 344.761  17
   2  10   4 54331.0 2703.54  17
   2  10   5 23389.8 1755.10  17
   2  10   6 39334.0 2171.21  17
   2  10   7 78855.1 2935.82  17
   2  10   8 485.316 294.045  17
   2  10   9 62209.5 2205.43  17
   2  10  10 8277.31 693.865  17
   2  11  -3 7927.81 656.815  10
   2  11  -2 30955.1 1464.52  10
   2  11  -1 57346.7 2138.11  10
   2  11   0 1470.74 431.428  10
   2  11   1 47462.1 2086.58  10
   2  11   2 2263.21 503.865  10
   2  11   3 37729.7 1843.05  10
   2  11   4 51710.4 2288.62  17
   2  11   4 47065.5 1991.17  10
   2  11   5 1297.89 419.608  17
   2  11   5 2019.21 435.118  10
   2  11   6 56003.4 2301.30  17
   2  11   6 49800.2 1809.12  10
   2  11   7 3102.01 533.986  17
   2  11   8 23398.7 1308.88  17
   2  11   9 24125.2 1183.74  17
   2  12   1 12586.8 828.515  10
   2  12   2 9678.55 740.752  10
   2  12   3 28673.1 1248.72  10
   2  12   4-17.8005 119.334  10
   3  -9 -12 8403.69 599.792  14
   3  -9 -11 71700.8 1925.55  14
   3  -9 -10 3666.76 477.286  14
   3  -9  -9 49676.1 1725.68  14
   3  -9  -8 49515.6 1713.42  14
   3  -8 -14 56802.8 1339.18  14
   3  -8 -13 282.152 143.607  14
   3  -8 -12 58122.6 1830.77  14
   3  -8 -11 11957.2 917.338  14
   3  -8 -10 65008.2 2199.67  14
   3  -8  -9 77345.3 2483.69  14
   3  -7 -14 4015.94 399.288  14
   3  -7 -13 61327.2 1856.37  14
   3  -7 -12 44040.4 1756.43  14
   3  -7 -11 24413.3 1433.48  14
   3  -6 -14 53772.2 1556.82  14
   3  -6 -13 71248.0 2097.85  14
   3  -6 -12 3450.72 567.629  14
   3  -5 -14 108770. 2230.97  14
   3  -5 -13 5228.13 592.453  14
   3  -4 -14 11310.4 680.725  14
   3  -4 -13 83305.8 2249.21  14
   3  -4   1 13755.4 1635.64   2
   3  -3 -13 83933.7 2128.16  14
   3  -3   1 261828. 7267.55   2
   3  -3   2 75165.3 3631.25   2
   3  -3   3 180477. 5324.28   2
   3  -2   1 229332. 6648.00   2
   3  -2   2 102634. 4273.76   2
   3  -2   3 144532. 4908.23   2
   3  -2   4 3452.41 704.488   2
   3  -1   1 41456.5 2716.24   2
   3  -1   2 586075. 10244.8   2
   3  -1   3 8022.49 1180.53   2
   3  -1   4 252634. 6410.61   2
   3  -1   5 220501. 6025.16   2
   3  -1   6 40551.3 2560.16   2
   3   0   0 49873.9 2981.67   2
   3   0   1 21613.7 1917.52   2
   3   0   2 189615. 5658.43   2
   3   0   3 247705. 6455.55   2
   3   0   4 345998. 7622.94   2
   3   0   5 5368.79 939.878   2
   3   0   6 197035. 5899.79   2
   3   0   7 8837.70 1397.01   2
   3   1  -2 337276. 7863.54   2
   3   1  -1 58024.8 3167.03   2
   3   1   0 66894.4 3353.50   2
   3   1   1 148627. 4951.65   2
   3   1   2 12798.0 1462.23   2
   3   1   3 640296. 10537.9   2
   3   1   4 9088.92 1247.41   2
   3   1   5 275538. 7016.78   2
   3   1   6 126839. 4898.11   2
   3   1   7 60029.8 3769.08   2
   3   1   8 143196. 7359.01   2
   3   1   9 12913.5 2413.38   2
   3   2 -12 96707.3 2616.18   7
   3   2 -11 794.276 308.472   7
   3   2 -10 122763. 3788.17   7
   3   2  -9 31680.3 1961.79   7
   3   2  -7 158716. 6042.46   1
   3   2  -6 24821.6 2257.58   1
   3   2  -3 381855. 7857.14   2
   3   2  -2 225279. 5994.27   2
   3   2  -1 93756.3 3823.93   2
   3   2   0 163317. 5086.85   2
   3   2   1 5177.94 927.269   2
   3   2   2 275616. 6690.24   2
   3   2   3 3821.77 818.312   2
   3   2   4 219812. 6217.84   2
   3   2   5 146781. 5260.19   2
   3   2   6 43035.6 2968.92   2
   3   2   7 224981. 7836.00   2
   3   2   8 19959.5 2986.01   2
   3   2   9 62886.4 6087.56   2
   3   3 -12 7088.65 648.892   7
   3   3 -11 158824. 3834.85   7
   3   3 -10 57262.3 2570.23   7
   3   3  -9 11624.2 1237.50   7
   3   3  -4 37946.5 2568.89   4
   3   3  -3 174034. 5487.18   4
   3   3  -2 69063.0 2994.94   2
   3   3  -1 245734. 5873.77   2
   3   3   0 127.075 203.066   2
   3   3   1 256110. 6236.16   2
   3   3   2 161280. 5076.24   2
   3   3   3 191872. 5694.17   2
   3   3   4 98858.8 4295.20   2
   3   3   5 26674.2 2295.75   2
   3   3   6 160838. 6205.95   2
   3   3   6 167908. 5415.38   4
   3   3   7 3056.35 1043.55   2
   3   3   8 83719.6 6711.27   2
   3   3   9 81864.0 7064.55   2
   3   4 -11 144511. 3326.97   7
   3   4 -10 8466.76 959.172   7
   3   4  -9 39361.0 2223.92   7
   3   4  -3 1726.90 818.128   4
   3   4  -2 66560.9 3815.05   4
   3   4  -1 3618.99 941.788   4
   3   4   0 171488. 6003.04   4
   3   4   0 177308. 4884.36   2
   3   4   1 197442. 6427.37   4
   3   4   1 202055. 5479.01   2
   3   4   2 26977.9 2365.28   4
   3   4   2 25163.1 2017.30   2
   3   4   3 266241. 7531.70   4
   3   4   3 263377. 6877.85   2
   3   4   4 12300.5 1571.00   2
   3   4   4 10548.8 1523.25   4
   3   4   5 242807. 7726.02   2
   3   4   5 245403. 7359.81   4
   3   4   6 38632.0 3529.20   2
   3   4   6 40744.9 3064.22   4
   3   4   7 25273.0 3588.52   2
   3   4   8 100374. 8586.93   2
   3   4   9 286.284 1056.06   2
   3   5 -11 11597.9 777.909   7
   3   5 -10 73993.7 2490.68   7
   3   5  -9 4305.11 716.494   7
   3   5  -3 88372.8 8202.88   4
   3   5  -2 38666.4 4315.69   4
   3   5  -1 54831.8 4467.32   4
   3   5   0 108439. 5863.40   4
   3   5   1 4057.64 1237.05   4
   3   5   2 222145. 6408.02   2
   3   5   2 216747. 7969.44   4
   3   5   3 91121.4 4520.16   2
   3   5   3 92739.7 5197.56   4
   3   5   4 47585.9 3663.68   2
   3   5   4 48798.2 3911.31   4
   3   5   5 145829. 7341.06   2
   3   5   5 141386. 7063.50   4
   3   5   6 37430.4 4499.39   2
   3   5   6 40648.8 4208.15   4
   3   5   7 105530. 8902.91   2
   3   5   7 125468. 9040.45   4
   3   5   8 29388.1 4208.12   2
   3   6 -10 18810.7 1024.52   7
   3   6  -9 26494.8 1510.96   7
   3   6  -8 35859.5 2016.82   7
   3   6  -5 34198.4 1875.55  10
   3   6  -2 23488.9 4031.59   4
   3   6  -1 112509. 11755.3   4
   3   6   0 6386.73 2290.10   4
   3   6   1 166145. 10819.6   4
   3   6   2 137665. 5089.06  17
   3   6   2 116196. 8549.99   4
   3   6   3 19310.5 2293.87  17
   3   6   3 11460.2 2326.06   2
   3   6   3 14495.6 3026.88   4
   3   6   4 107963. 7765.74   2
   3   6   4 132224. 7781.13  17
   3   6   4 129513. 9480.45   4
   3   6   5-748.088 1017.02   2
   3   6   5-375.136 925.440  17
   3   6   5-125.186 1700.49   4
   3   6   6 136895. 9259.94   2
   3   6   6 152239. 5551.39  17
   3   6   6 159934. 14110.7   4
   3   6   7 71791.7 6190.42   2
   3   6   7 68437.3 3011.21  17
   3   6   7 80831.2 7347.86   4
   3   7  -9 54789.0 1705.53   7
   3   7  -8 2827.84 502.839   7
   3   7  -6 39529.0 1805.63  10
   3   7  -5 17221.5 1302.57  10
   3   7  -4 104960. 3370.55  10
   3   7   0 64897.7 6302.22   4
   3   7   1 290185. 14588.4   4
   3   7   2 5698.37 1020.65  17
   3   7   2 6189.77 2366.67   4
   3   7   3 84994.5 4344.35  17
   3   7   3 95925.3 9555.46   4
   3   7   4 6175.88 1292.79  17
   3   7   4 7372.64 2367.33   4
   3   7   5 50364.4 4695.90  17
   3   7   5 76906.1 7618.98   4
   3   7   6 28719.7 3026.35   2
   3   7   6 37508.0 3073.08  17
   3   7   7 54440.4 3039.91  17
   3   8  -7 48883.4 1839.13   7
   3   8  -6 1148.87 279.137  10
   3   8  -5 71504.2 2472.03  10
   3   8  -4 14060.9 1189.28  10
   3   8  -3 44105.7 2184.54  10
   3   8   3 5850.49 1072.40  17
   3   8   4 31824.2 2550.86  17
   3   8   5 89309.2 4343.72  17
   3   8   6 1227.99 485.579  17
   3   8   7 43276.4 2517.20  17
   3   9  -6 41196.9 1464.10   7
   3   9  -5 9317.64 745.275  10
   3   9  -4 43651.4 1844.26  10
   3   9  -3 89141.3 2872.63  10
   3   9  -2 266.534 266.632  10
   3   9  -1 45129.1 2214.62  10
   3   9   5 5295.87 890.001  17
   3   9   6 52648.7 2728.31  17
   3  10  -4 19147.5 952.579   7
   3  10  -3 434.971 215.616  10
   3  10  -2 65708.6 2278.51  10
   3  10  -1 26778.2 1532.84  10
   3  10   0 2921.04 544.931  10
   3  10   1 12785.4 1157.57  10
   3  11  -1 4029.44 484.967  10
   3  11   0 23712.2 1244.67  10
   3  11   1 325.952 218.686  10
   3  11   2 27879.7 1424.83  10
   3  11   3 9561.71 848.889  10
   3  11   4 15495.4 1041.78  10
   4  -9 -10 54635.9 1321.87  14
   4  -9  -9 15591.6 745.761  14
   4  -8 -12 4770.51 395.696  14
   4  -8 -11 27122.1 1092.28  14
   4  -8 -10 42512.5 1513.86  14
   4  -8  -9 12590.6 893.649  14
   4  -7 -13 10128.6 562.784  14
   4  -7 -12 57550.6 1627.01  14
   4  -7 -11 60897.6 1906.29  14
   4  -6 -13 16177.4 787.997  14
   4  -6 -12 69284.8 1965.99  14
   4  -5 -13 81558.0 1854.96  14
   4  -5  -1 130949. 6369.83   2
   4  -4 -13 25801.3 1016.19  14
   4  -4  -1 50617.1 4111.04   2
   4  -4   0 80905.9 4846.42   2
   4  -4   1 69635.0 4155.34   2
   4  -3  -1 11534.7 1921.07   2
   4  -3   0 200454. 7713.87   2
   4  -3   1 3056.73 873.214   2
   4  -3   2 35967.1 2942.21   2
   4  -3   3 7995.25 1303.96   2
   4  -2  -1 211568. 8059.80   2
   4  -2   0 9429.80 1610.18   2
   4  -2   1 142641. 6076.34   2
   4  -2   2 30895.6 2731.88   2
   4  -2   3 35689.2 2849.78   2
   4  -2   4 120811. 5032.54   2
   4  -1  -1 86248.1 4926.65   2
   4  -1   0 58191.8 3947.97   2
   4  -1   1 103461. 5081.85   2
   4  -1   2 12906.6 1757.55   2
   4  -1   3 302197. 8354.90   2
   4  -1   4 18252.6 1993.43   2
   4  -1   5 80390.0 4139.07   2
   4  -1   6 201630. 6369.86   2
   4   0  -3 99275.3 5396.26   2
   4   0  -2 124307. 5889.70   2
   4   0  -1 27950.8 2697.74   2
   4   0   0 116119. 5369.35   2
   4   0   1 3143.91 873.224   2
   4   0   2 248485. 7640.06   2
   4   0   3 172799. 6291.73   2
   4   0   4 68495.0 3939.92   2
   4   0   5 187380. 6458.21   2
   4   0   6 2910.69 871.778   2
   4   0   7 266349. 7988.98   2
   4   1  -4 25205.8 2578.97   2
   4   1  -3 216283. 7505.39   2
   4   1  -2 13198.3 1806.13   2
   4   1  -1 300247. 8534.49   2
   4   1   0 21165.3 2210.42   2
   4   1   1 90802.5 4549.91   2
   4   1   2 166159. 6157.56   2
   4   1   3 59294.6 3636.44   2
   4   1   4 293878. 8254.66   2
   4   1   5 48847.7 3358.70   2
   4   1   6 154077. 6048.22   2
   4   1   7 81752.1 4607.63   2
   4   2  -3 23506.5 2247.63   2
   4   2  -2 230382. 7119.03   2
   4   2  -1 119947. 5139.84   2
   4   2   0 165544. 6025.74   2
   4   2   1 253556. 7454.01   2
   4   2   2 30129.4 2545.83   2
   4   2   3 155010. 5905.19   2
   4   2   4 13344.6 1745.23   2
   4   2   5 80321.6 4371.80   2
   4   2   6 86540.2 4682.05   2
   4   2   7 27801.3 2874.95   2
   4   3  -1 19130.9 1918.31   2
   4   3   0 251168. 7140.86   2
   4   3   1 6518.40 1159.80   2
   4   3   2 95003.6 4514.49   2
   4   3   3 201186. 6719.64   2
   4   3   4 33373.1 2788.83   2
   4   3   5 70794.0 4182.09   2
   4   3   6 13253.5 1951.17   2
   4   3   6 12859.2 1699.09   4
   4   3   7 142438. 7018.03   2
   4   4  -9 4149.36 587.828   7
   4   4  -8 106547. 3234.83   7
   4   4  -3 157545. 6556.77   4
   4   4  -2 971.542 505.518   4
   4   4  -1 97601.1 5114.55   4
   4   4   0 38036.0 3208.58   4
   4   4   0 35457.3 2529.93   2
   4   4   1 24875.9 2588.47   4
   4   4   1 25286.8 2206.51   2
   4   4   2 154533. 6424.59   4
   4   4   2 153430. 5674.53   2
   4   4   3 10141.5 1630.43   4
   4   4   3 9666.14 1478.00   2
   4   4   4 106432. 5300.52   4
   4   4   4 104778. 5026.70   2
   4   4   5 3557.71 1039.44   2
   4   4   5 2925.36 889.898   4
   4   4   6 169474. 7586.88   2
   4   4   6 155186. 6414.91   4
   4   5  -9 67350.3 2030.16   7
   4   5  -8 59270.7 2271.32   7
   4   5  -1 38732.6 3789.14   4
   4   5   0 28227.2 3076.15   4
   4   5   1 100554. 5780.33   4
   4   5   2 16506.5 1865.74   2
   4   5   2 18329.9 2410.22   4
   4   5   3 87114.8 4601.22   2
   4   5   3 94757.2 5574.52   4
   4   5   4 27193.0 2862.36   2
   4   5   4 28725.5 3099.98   4
   4   5   5 80668.5 5418.75   2
   4   5   5 81365.7 5376.83   4
   4   5   6 132119. 7401.80   4
   4   6  -8 576.242 242.542   7
   4   7  -7 25760.0 1292.45   7
   4   7  -4 9130.92 858.324  10
   4   7  -3 80169.6 2777.03  10
   4   8  -6 41500.7 1495.68   7
   4   8  -4 50214.2 1780.76  10
   4   8  -3 5261.02 657.477  10
   4   8  -2 39203.8 1924.61  10
   4   9  -3 19201.2 1060.25  10
   4   9  -2 42277.7 1746.08  10
   4   9  -1 551.613 281.803  10
   4  10  -1 19737.6 1078.59  10
   4  10   0 13023.2 944.124  10
   4  10   1 6897.03 748.642  10
   4  11   2 6050.87 542.752  10
   4  11   3 22706.1 1028.69  10
   4  11   4 8764.58 649.712  10
   4  11   5 1622.82 282.705  10
   5  -8  -8 10549.1 572.091  14
   5  -7 -10 63791.0 1582.43  14
   5  -6 -11 60982.2 1536.83  14
   5  -5 -12 53446.7 1230.64  14
   5  -4 -12 28849.3 922.861  14
   5  -2  -1 16216.9 2378.14   2
   5  -2   0 127557. 6527.64   2
   5  -1  -2 80431.9 5424.79   2
   5  -1  -1 92027.9 5604.63   2
   5  -1   0 206316. 8165.94   2
   5  -1   1 6604.17 1415.04   2
   5  -1   2 144613. 6384.86   2
   5   0  -3 22320.1 2761.06   2
   5   0  -2 31671.9 3223.85   2
   5   0  -1 141504. 6704.93   2
   5   0   0 902.955 595.919   2
   5   0   1 215664. 7927.07   2
   5   0   2 27164.5 2738.06   2
   5   0   3 54380.3 3826.18   2
   5   1  -2 111240. 5752.00   2
   5   1  -1 1267.90 761.664   2
   5   1   0 189230. 7326.88   2
   5   1   1 59688.3 4052.76   2
   5   1   2 63497.7 4143.49   2
   5   1   3 113351. 5536.74   2
   5   2  -1 105312. 5221.17   2
   5   2   0 113040. 5410.60   2
   5   2   1 23107.5 2444.36   2
   5   2   2 165895. 6613.02   2
   5   7  -2 67228.0 2142.50  10
   5   8  -1 11112.2 861.355  10
   5   9   0 1311.31 287.131  10
   0   0   0    0.00    0.00   0
;
_shelx_hkl_checksum              52832
loop_
_space_group_symop_operation_xyz
'x, y, z'
'-x, -y, -z'
loop_
_atom_site_label
_atom_site_type_symbol
_atom_site_fract_x
_atom_site_fract_y
_atom_site_fract_z
_atom_site_U_iso_or_equiv
_atom_site_adp_type
_atom_site_occupancy
_atom_site_site_symmetry_order
_atom_site_calc_flag
_atom_site_refinement_flags_posn
_atom_site_refinement_flags_adp
_atom_site_refinement_flags_occupancy
Pr1 Pr 0.25128(3) 0.66056(2) 0.70878(2) 0.02001(12) Uani 1 1 d . . .
N1 N 0.0782(7) 0.8870(4) 0.5755(3) 0.0270(8) Uani 1 1 d . . .
N2 N 0.4340(7) 0.5569(4) 0.8984(3) 0.0275(8) Uani 1 1 d . . .
N3 N 0.0896(7) 0.5722(4) 0.5582(3) 0.0253(8) Uani 1 1 d . . .
O1 O 0.4534(6) 0.7712(4) 0.5472(3) 0.0333(8) Uani 1 1 d . . .
O3 O 0.0633(7) 0.6982(4) 0.8568(3) 0.0373(9) Uani 1 1 d . . .
O5 O -0.1542(6) 0.6414(4) 0.6992(3) 0.0291(7) Uani 1 1 d . . .
O2 O 0.5028(7) 0.9113(4) 0.3898(3) 0.0425(10) Uani 1 1 d . . .
O4 O -0.0019(8) 0.6792(5) 1.0208(3) 0.0493(12) Uani 1 1 d . . .
O6 O -0.4399(5) 0.5239(4) 0.6754(3) 0.0268(7) Uani 1 1 d . . .
O1W O 0.1538(7) 0.4181(4) 0.7818(3) 0.0353(8) Uani 1 1 d . . .
O2W O 0.4379(8) 0.8465(4) 0.7471(3) 0.0417(9) Uani 1 1 d . . .
C1 C 0.4000(8) 0.8682(5) 0.4730(4) 0.0268(10) Uani 1 1 d . . .
C2 C 0.1867(8) 0.9400(5) 0.4861(4) 0.0260(9) Uani 1 1 d . . .
C3 C -0.1090(9) 0.9474(5) 0.5890(4) 0.0306(10) Uani 1 1 d . . .
H3 H -0.1895 0.9137 0.6497 0.037 Uiso 1 1 calc R U .
C4 C 0.1096(9) 0.6578(5) 0.9506(4) 0.0297(10) Uani 1 1 d . . .
C5 C 0.3183(8) 0.5732(5) 0.9773(4) 0.0264(10) Uani 1 1 d . . .
C6 C 0.6176(9) 0.4827(5) 0.9213(4) 0.0305(11) Uani 1 1 d . . .
H6 H 0.7037 0.4684 0.8685 0.037 Uiso 1 1 calc R U .
C7 C -0.2469(8) 0.5677(5) 0.6562(3) 0.0220(9) Uani 1 1 d . . .
C8 C -0.1172(7) 0.5289(5) 0.5746(3) 0.0230(9) Uani 1 1 d . . .
C9 C -0.2049(8) 0.4565(5) 0.5148(4) 0.0263(10) Uani 1 1 d . . .
H9 H -0.3494 0.4277 0.5268 0.032 Uiso 1 1 calc R U .
O6W O 0.6250(15) 0.8401(8) 0.9285(7) 0.101(3) Uani 1 1 d . . .
O5W O 0.009(5) 1.019(3) 0.836(2) 0.183(13) Uani 0.5 1 d . . P
O3W O 0.173(3) 0.2282(11) 0.6839(12) 0.201(8) Uani 1 1 d . . .
O4W O -0.380(6) 1.171(4) 0.868(4) 0.28(3) Uani 0.5 1 d . . P
loop_
_atom_site_aniso_label
_atom_site_aniso_U_11
_atom_site_aniso_U_22
_atom_site_aniso_U_33
_atom_site_aniso_U_23
_atom_site_aniso_U_13
_atom_site_aniso_U_12
Pr1 0.01716(16) 0.02685(17) 0.01464(16) -0.00444(10) 0.00154(10) 0.00292(10)
N1 0.021(2) 0.032(2) 0.023(2) -0.0017(16) 0.0021(16) 0.0024(16)
N2 0.029(2) 0.034(2) 0.0173(18) -0.0044(16) 0.0019(16) -0.0003(17)
N3 0.0161(18) 0.038(2) 0.0220(19) -0.0091(16) -0.0006(15) 0.0014(15)
O1 0.0269(18) 0.0381(19) 0.0265(18) 0.0022(15) 0.0047(14) 0.0056(15)
O3 0.033(2) 0.056(2) 0.0241(18) -0.0149(17) -0.0032(15) 0.0107(17)
O5 0.0203(16) 0.043(2) 0.0268(17) -0.0155(15) 0.0026(14) 0.0026(14)
O2 0.042(2) 0.043(2) 0.033(2) 0.0021(17) 0.0149(18) 0.0108(18)
O4 0.051(3) 0.070(3) 0.0236(19) -0.0108(19) 0.0076(18) 0.021(2)
O6 0.0172(15) 0.0352(18) 0.0271(17) -0.0083(14) 0.0059(13) 0.0022(13)
O1W 0.041(2) 0.0338(19) 0.0289(19) -0.0062(15) 0.0076(16) -0.0043(16)
O2W 0.051(2) 0.037(2) 0.036(2) -0.0070(17) 0.0007(18) -0.0151(18)
C1 0.023(2) 0.030(2) 0.026(2) -0.0062(19) 0.0032(19) 0.0001(19)
C2 0.021(2) 0.030(2) 0.024(2) -0.0038(19) 0.0010(18) 0.0013(18)
C3 0.029(3) 0.036(3) 0.022(2) -0.001(2) 0.0050(19) 0.001(2)
C4 0.029(3) 0.038(3) 0.022(2) -0.008(2) 0.0042(19) 0.002(2)
C5 0.023(2) 0.033(2) 0.022(2) -0.0054(19) 0.0022(18) -0.0015(18)
C6 0.031(3) 0.041(3) 0.018(2) -0.007(2) 0.0034(19) 0.004(2)
C7 0.018(2) 0.029(2) 0.016(2) -0.0038(17) -0.0013(16) 0.0053(17)
C8 0.013(2) 0.037(2) 0.018(2) -0.0077(18) 0.0012(16) 0.0015(17)
C9 0.018(2) 0.039(3) 0.023(2) -0.012(2) 0.0013(18) 0.0003(18)
O6W 0.107(6) 0.093(5) 0.116(6) -0.049(5) -0.065(5) 0.037(5)
O5W 0.21(3) 0.127(18) 0.17(2) 0.015(17) 0.10(2) -0.043(18)
O3W 0.267(16) 0.099(7) 0.263(16) -0.100(9) 0.189(14) -0.050(8)
O4W 0.19(3) 0.30(5) 0.49(7) -0.32(5) 0.06(4) -0.05(3)
loop_
_atom_type_symbol
_atom_type_description
_atom_type_scat_dispersion_real
_atom_type_scat_dispersion_imag
_atom_type_scat_source
C C 0.0181 0.0091 'International Tables Vol C Tables 4.2.6.8 and 6.1.1.4'
H H 0.0000 0.0000 'International Tables Vol C Tables 4.2.6.8 and 6.1.1.4'
N N 0.0311 0.0180 'International Tables Vol C Tables 4.2.6.8 and 6.1.1.4'
Pr Pr -2.4164 10.2820 'International Tables Vol C Tables 4.2.6.8 and 6.1.1.4'
O O 0.0492 0.0322 'International Tables Vol C Tables 4.2.6.8 and 6.1.1.4'
loop_
_geom_angle_atom_site_label_1
_geom_angle_atom_site_label_2
_geom_angle_atom_site_label_3
_geom_angle
_geom_angle_site_symmetry_1
_geom_angle_site_symmetry_3
O3 Pr1 O6 137.90(12) . 1_655
O3 Pr1 O2W 72.72(15) . .
O6 Pr1 O2W 102.97(14) 1_655 .
O3 Pr1 O1 144.01(14) . .
O6 Pr1 O1 67.19(12) 1_655 .
O2W Pr1 O1 76.49(14) . .
O3 Pr1 O5 68.27(13) . .
O6 Pr1 O5 132.37(12) 1_655 .
O2W Pr1 O5 124.55(14) . .
O1 Pr1 O5 117.58(12) . .
O3 Pr1 O1W 87.70(14) . .
O6 Pr1 O1W 71.34(13) 1_655 .
O2W Pr1 O1W 143.61(14) . .
O1 Pr1 O1W 128.27(13) . .
O5 Pr1 O1W 71.83(13) . .
O3 Pr1 N3 129.47(13) . .
O6 Pr1 N3 78.09(12) 1_655 .
O2W Pr1 N3 145.03(14) . .
O1 Pr1 N3 71.81(13) . .
O5 Pr1 N3 61.78(12) . .
O1W Pr1 N3 70.54(13) . .
O3 Pr1 N1 92.91(13) . .
O6 Pr1 N1 127.15(12) 1_655 .
O2W Pr1 N1 74.74(14) . .
O1 Pr1 N1 60.92(12) . .
O5 Pr1 N1 69.66(13) . .
O1W Pr1 N1 138.12(14) . .
N3 Pr1 N1 77.20(13) . .
O3 Pr1 N2 61.49(13) . .
O6 Pr1 N2 76.95(12) 1_655 .
O2W Pr1 N2 73.48(14) . .
O1 Pr1 N2 125.75(13) . .
O5 Pr1 N2 116.66(12) . .
O1W Pr1 N2 70.21(13) . .
N3 Pr1 N2 138.43(13) . .
N1 Pr1 N2 143.90(13) . .
C3 N1 C2 116.6(4) . .
C3 N1 Pr1 126.0(3) . .
C2 N1 Pr1 117.3(3) . .
C5 N2 C6 116.5(4) . .
C5 N2 Pr1 116.1(3) . .
C6 N2 Pr1 127.2(3) . .
C9 N3 C8 118.1(4) 2_566 .
C9 N3 Pr1 126.0(3) 2_566 .
C8 N3 Pr1 114.4(3) . .
C1 O1 Pr1 130.2(3) . .
C4 O3 Pr1 130.4(3) . .
C7 O5 Pr1 124.3(3) . .
C7 O6 Pr1 122.7(3) . 1_455
O1 C1 O2 126.4(5) . .
O1 C1 C2 116.0(4) . .
O2 C1 C2 117.6(4) . .
N1 C2 C3 122.1(5) . 2_576
N1 C2 C1 115.3(4) . .
C3 C2 C1 122.6(4) 2_576 .
N1 C3 C2 121.3(5) . 2_576
O4 C4 O3 125.3(5) . .
O4 C4 C5 119.0(5) . .
O3 C4 C5 115.7(4) . .
N2 C5 C6 122.5(5) . 2_667
N2 C5 C4 116.1(4) . .
C6 C5 C4 121.4(5) 2_667 .
N2 C6 C5 121.1(5) . 2_667
O5 C7 O6 125.5(4) . .
O5 C7 C8 117.0(4) . .
O6 C7 C8 117.5(4) . .
N3 C8 C9 120.1(4) . .
N3 C8 C7 116.6(4) . .
C9 C8 C7 123.2(4) . .
N3 C9 C8 121.8(5) 2_566 .
loop_
_geom_bond_atom_site_label_1
_geom_bond_atom_site_label_2
_geom_bond_distance
_geom_bond_site_symmetry_2
Pr1 O3 2.432(4) .
Pr1 O6 2.464(3) 1_655
Pr1 O2W 2.468(4) .
Pr1 O1 2.473(4) .
Pr1 O5 2.486(3) .
Pr1 O1W 2.516(4) .
Pr1 N3 2.702(4) .
Pr1 N1 2.728(4) .
Pr1 N2 2.731(4) .
N1 C3 1.331(7) .
N1 C2 1.343(6) .
N2 C5 1.327(7) .
N2 C6 1.337(7) .
N3 C9 1.312(7) 2_566
N3 C8 1.336(6) .
O1 C1 1.243(6) .
O3 C4 1.255(7) .
O5 C7 1.249(6) .
O2 C1 1.247(6) .
O4 C4 1.237(7) .
O6 C7 1.262(6) .
O6 Pr1 2.464(3) 1_455
C1 C2 1.525(7) .
C2 C3 1.392(7) 2_576
C3 C2 1.392(7) 2_576
C4 C5 1.522(7) .
C5 C6 1.388(7) 2_667
C6 C5 1.388(7) 2_667
C7 C8 1.503(6) .
C8 C9 1.389(7) .
C9 N3 1.312(7) 2_566
