#------------------------------------------------------------------------------
#$Date: 2017-04-21 01:37:33 +0300 (Fri, 21 Apr 2017) $
#$Revision: 195632 $
#$URL: file:///home/coder/svn-repositories/cod/cif/4/34/57/4345717.cif $
#------------------------------------------------------------------------------
#
# This file is available in the Crystallography Open Database (COD),
# http://www.crystallography.net/
#
# All data on this site have been placed in the public domain by the
# contributors.
#
data_4345717
loop_
_publ_author_name
'Zhang, Lei'
'Matsushita, Yoshitaka'
'Yamaura, Kazunari'
'Belik, Alexei A.'
_publ_section_title
;
 Five-Fold Ordering in High-Pressure Perovskites RMn3O6 (R = Gd--Tm and Y)
;
_journal_name_full               'Inorganic Chemistry'
_journal_paper_doi               10.1021/acs.inorgchem.7b00347
_journal_year                    2017
_chemical_formula_sum            'Dy Mn3 O6'
_chemical_formula_weight         423.32
_space_group_crystal_system      orthorhombic
_space_group_IT_number           59
_space_group_name_Hall           '-P 2ab 2a'
_space_group_name_H-M_alt        'P m m n'
_symmetry_space_group_name_Hall  '-P 2ab 2a'
_symmetry_space_group_name_H-M   'P m m n :2'
_audit_creation_method           SHELXL-2014/7
_cell_angle_alpha                90
_cell_angle_beta                 90
_cell_angle_gamma                90
_cell_formula_units_Z            4
_cell_length_a                   7.2479(2)
_cell_length_b                   7.4525(3)
_cell_length_c                   7.8022(2)
_cell_measurement_reflns_used    5295
_cell_measurement_temperature    213(2)
_cell_measurement_theta_max      46.23
_cell_measurement_theta_min      2.61
_cell_volume                     421.44(2)
_computing_cell_refinement       'CrystalClear (Rigaku, 1997--2002)'
_computing_data_collection       'CrystalClear (Rigaku, 1997--2002)'
_computing_data_reduction        'CrystalClear (Rigaku, 1997--2002)'
_computing_structure_refinement  'SHELXL-2014/7 (Sheldrick, 2014)'
_computing_structure_solution    'SHELXT (Sheldrick, 2014)'
_diffrn_ambient_temperature      213(2)
_diffrn_detector_area_resol_mean 28.5714
_diffrn_measured_fraction_theta_full 0.993
_diffrn_measured_fraction_theta_max 0.964
_diffrn_measurement_device
;
Rigaku AFC11 Saturn724+ (4x4 bin mode)
;
_diffrn_measurement_method       dtprofit.ref
_diffrn_radiation_detector       CCD
_diffrn_radiation_monochromator  Confocal
_diffrn_radiation_source         'Rotating Anode'
_diffrn_radiation_type           MoK\a
_diffrn_radiation_wavelength     0.71073
_diffrn_reflns_av_R_equivalents  0.0345
_diffrn_reflns_av_unetI/netI     0.0272
_diffrn_reflns_Laue_measured_fraction_full 0.993
_diffrn_reflns_Laue_measured_fraction_max 0.964
_diffrn_reflns_limit_h_max       12
_diffrn_reflns_limit_h_min       -14
_diffrn_reflns_limit_k_max       14
_diffrn_reflns_limit_k_min       -10
_diffrn_reflns_limit_l_max       15
_diffrn_reflns_limit_l_min       -15
_diffrn_reflns_number            11532
_diffrn_reflns_point_group_measured_fraction_full 0.993
_diffrn_reflns_point_group_measured_fraction_max 0.964
_diffrn_reflns_theta_full        25.242
_diffrn_reflns_theta_max         46.335
_diffrn_reflns_theta_min         3.781
_exptl_absorpt_coefficient_mu    26.248
_exptl_absorpt_correction_T_max  0.5056
_exptl_absorpt_correction_T_min  0.4348
_exptl_absorpt_correction_type   multi-scan
_exptl_absorpt_process_details
;
CrystalClear (Rigaku, 1997--2002)
;
_exptl_crystal_colour            Black
_exptl_crystal_density_diffrn    6.672
_exptl_crystal_description       Chunk
_exptl_crystal_F_000             756
_exptl_crystal_size_max          0.034
_exptl_crystal_size_mid          0.033
_exptl_crystal_size_min          0.031
_refine_diff_density_max         5.478
_refine_diff_density_min         -3.255
_refine_diff_density_rms         0.597
_refine_ls_extinction_coef       0.0025(3)
_refine_ls_extinction_expression Fc^*^=kFc[1+0.001xFc^2^\l^3^/sin(2\q)]^-1/4^
_refine_ls_extinction_method     'SHELXL-2014/7 (Sheldrick 2014'
_refine_ls_goodness_of_fit_ref   1.151
_refine_ls_hydrogen_treatment    undef
_refine_ls_matrix_type           full
_refine_ls_number_parameters     74
_refine_ls_number_reflns         1974
_refine_ls_number_restraints     0
_refine_ls_restrained_S_all      1.151
_refine_ls_R_factor_all          0.0564
_refine_ls_R_factor_gt           0.0462
_refine_ls_shift/su_max          0.000
_refine_ls_shift/su_mean         0.000
_refine_ls_structure_factor_coef Fsqd
_refine_ls_weighting_details
'w=1/[\s^2^(Fo^2^)+(0.0341P)^2^+9.8547P] where P=(Fo^2^+2Fc^2^)/3'
_refine_ls_weighting_scheme      calc
_refine_ls_wR_factor_gt          0.1011
_refine_ls_wR_factor_ref         0.1063
_reflns_Friedel_coverage         0.000
_reflns_number_gt                1613
_reflns_number_total             1974
_reflns_threshold_expression     'I > 2\s(I)'
_cod_data_source_file            ic7b00347_si_002.cif
_cod_data_source_block           shelx
_cod_database_code               4345717
_shelx_shelxl_version_number     2014/7
_shelx_space_group_comment
;
The symmetry employed for this shelxl refinement is uniquely defined
by the following loop, which should always be used as a source of
symmetry information in preference to the above space-group names.
They are only intended as comments.
;
_shelx_estimated_absorpt_t_min   0.469
_shelx_estimated_absorpt_t_max   0.497
_shelx_res_file
;

    shelx.res created by SHELXL-2014/7


TITL shelxt_f.res in Pmn2(1)          New: Pmmn
CELL  0.71073    7.2479    7.4525    7.8022    90.000    90.000    90.000
ZERR        4    0.0002    0.0003    0.0002     0.000     0.000     0.000
LATT   1
SYMM     0.50000 - X ,    0.50000 - Y ,              Z
SYMM     0.50000 + X ,            - Y ,            - Z
SYMM             - X ,    0.50000 + Y ,            - Z
SFAC Dy Mn  O
UNIT 4 12 24
LIST 6 ! automatically inserted. Change 6 to 4 for CHECKCIF!!
L.S. 100
FMAP 2
SIZE     0.031   0.033   0.034
temp -60
PLAN 5
ACTA
omit 0 1 6
omit 0 1 4
omit 1 12 9
BOND $H
CONF
REM RESI 0
twin
rem 01 03
WGHT    0.034100    9.854700
EXTI    0.002515
BASF   9.99900
FVAR       0.25167   0.95904   0.95952   0.98141   0.97609   0.98677   0.97708
FVAR       0.99718   0.98420   0.90000   0.90000
DY1   1    0.250000    0.250000    0.779108    10.25000    0.00852    0.00475 =
         0.00349    0.00000    0.00000    0.00000
DY2   1    0.250000    0.250000    0.283091    10.25000    0.00424    0.01017 =
         0.00390    0.00000    0.00000    0.00000
Mn1  2    0.750000    0.250000    0.719923    10.25000    0.00463    0.00504 =
         0.00902    0.00000    0.00000    0.00000
MN2   2    0.750000    0.250000    0.239839    10.25000    0.00237    0.00212 =
         0.00220    0.00000    0.00000    0.00000
MN3   2    0.500000    0.000000    0.000000    10.50000    0.00301    0.00369 =
         0.00474   -0.00039   -0.00027    0.00037
MN4   2    0.000000    0.500000    0.500000    10.50000    0.00352    0.00368 =
         0.00364   -0.00015    0.00001    0.00029
O1    3    0.436173   -0.068513    0.267622    11.00000    0.00673    0.00797 =
         0.00491   -0.00088   -0.00075   -0.00220
O2    3    0.056898    0.250000    0.040310    10.50000    0.00759    0.00417 =
         0.00627    0.00000   -0.00247    0.00000
O3    3    0.250000    0.529225    0.923076    10.50000    0.00186    0.00515 =
         0.00792   -0.00011    0.00000    0.00000
O4    3    0.539771    0.250000    0.415706    10.50000    0.00580    0.02346 =
         0.00566    0.00000   -0.00019    0.00000
O5    3    0.250000    0.432914    0.539229    10.50000    0.00245    0.00628 =
         0.00727    0.00183    0.00000    0.00000
HKLF 4 1 -1.0000  0.0000  0.0000  0.0000  0.0000 -1.0000  0.0000 -1.0000  0.0000

REM  shelxt_f.res in Pmn2(1)          New: Pmmn
REM R1 =  0.0462 for    1613 Fo > 4sig(Fo)  and  0.0564 for all    1974 data
REM     74 parameters refined using      0 restraints

END

WGHT      0.0341      9.8547

REM Highest difference peak  5.478,  deepest hole -3.255,  1-sigma level  0.597
Q1    1   0.7500  0.2500  0.7815  10.25000  0.05    5.48
Q2    1   0.1895  0.3039  0.2822  11.00000  0.05    4.42
Q3    1   0.1898  0.3112  0.7850  11.00000  0.05    4.29
Q4    1   0.7500  0.2500  0.8588  10.25000  0.05    2.99
Q5    1   0.2500  0.2500  0.6852  10.25000  0.05    2.55
;
_shelx_res_checksum              44084
_shelx_hkl_file
;
  -1   0   0    0.80    0.90
   1   0   0   -0.40    0.70
   2   0   0  902.01   35.30
  -2   0   0  930.41   35.40
  -2   0   0  960.10   35.10
   2   0   0  916.81   35.00
  -3   0   0    1.00    1.70
   3   0   0   -0.50    1.50
   3   0   0   -0.60    0.70
  -3   0   0   -1.50    0.70
  -4   0   0 9108.19  333.17
   4   0   0 8862.61  333.07
   4   0   0 8984.70  323.97
  -4   0   0 9154.98  329.77
   5   0   0    0.00    1.60
   5   0   0   -1.70    0.60
   5   0   0    0.70    1.50
  -5   0   0   -0.90    0.60
  -5   0   0    0.20    1.90
  -6   0   0 1367.76   49.99
  -6   0   0 1355.96   52.49
   6   0   0 1280.27   48.90
   6   0   0 1323.97   50.69
  -7   0   0    2.20    2.10
   7   0   0   -1.00    2.10
   7   0   0    3.10    1.90
   8   0   0 3195.88  116.69
   8   0   0 3326.67  120.39
  -8   0   0 3214.68  123.19
   9   0   0    2.80    3.10
   9   0   0    1.10    2.00
  -9   0   0    3.50    2.30
  10   0   0  527.65   24.50
  11   0   0    1.60    3.70
  12   0   0 1511.15   61.39
  13   0   0    2.60    4.20
  14   0   0  106.79    9.40
   0   0  -1   -1.50    0.60
   0   0  -1   -1.50    0.50
   0   0   1   -0.70    0.60
   0   0   1   -2.00    0.60
  -1   0  -1 1163.28   44.50
  -1   0   1 1177.58   44.10
  -1   0   1 1142.19   44.50
  -1   0  -1 1272.07   44.00
   1   0  -1 1192.48   44.50
   1   0   1 1147.99   44.50
  -2   0   1    0.60    1.20
   2   0  -1   -1.80    1.40
   2   0  -1   -0.70    0.80
  -2   0  -1   -1.30    1.30
  -2   0   1   -0.90    0.70
   2   0   1   -0.80    1.00
  -2   0  -1   -1.70    0.90
  -2   0  -1    0.70    1.30
  -3   0  -1 1440.46   53.49
  -3   0   1 1452.05   53.49
  -3   0  -1 1366.26   53.59
   3   0   1 1440.36   53.49
   3   0  -1 1397.56   53.39
   3   0  -1 1382.96   53.69
   3   0   1 1488.55   52.59
  -3   0   1 1422.06   53.79
   4   0  -1   -0.60    0.70
  -4   0  -1    1.00    1.70
  -4   0   1    0.20    0.70
   4   0   1   -0.30    0.90
  -4   0  -1   -0.10    0.80
   4   0  -1   -1.40    1.30
   4   0  -1   -0.70    1.30
  -4   0   1   -0.20    1.60
   4   0   1   -1.40    1.30
   5   0   1  596.24   23.40
  -5   0  -1  628.14   26.00
   5   0  -1  619.34   24.10
   5   0   1  608.94   24.10
   5   0   1  661.43   25.00
   5   0  -1  634.14   24.20
  -5   0   1  639.84   24.10
  -5   0  -1  598.34   24.10
   5   0  -1  642.94   24.90
  -5   0   1  622.64   26.00
   6   0   1   -1.30    1.10
   6   0  -1    0.50    1.80
   6   0  -1    2.60    2.10
   6   0   1    2.50    2.10
  -6   0  -1    2.40    2.20
  -6   0  -1    0.40    0.70
  -6   0   1    0.00    0.60
   6   0  -1    0.50    0.60
   6   0   1    0.80    0.40
  -6   0   1    0.20    1.80
   7   0   1  602.34   24.20
   7   0   1  548.65   22.10
   7   0  -1  539.65   23.70
  -7   0  -1  574.14   25.30
   7   0  -1  578.54   22.90
  -7   0   1  558.44   25.10
   8   0  -1    1.30    2.20
  -8   0   1    3.40    2.20
   8   0  -1   -2.00    2.40
  -8   0  -1    1.00    2.10
   8   0   1    1.50    2.80
   9   0  -1  308.27   15.60
  -9   0  -1  295.57   16.20
  -9   0   1  313.37   16.70
   9   0  -1  288.87   14.20
   9   0   1  297.47   15.60
  10   0  -1    3.00    2.50
  10   0  -1    0.80    3.00
  10   0   1   -5.40    2.40
  11   0  -1  200.48   13.10
  11   0   1  207.78   13.10
  12   0   1    1.10    3.90
  12   0  -1   -3.40    3.10
  13   0  -1  101.89    9.40
  13   0   1  108.39    9.80
  14   0   1    6.10    3.60
  14   0  -1    3.60    3.50
   0   0   2 1028.90   40.00
   0   0   2 1052.09   39.40
   0   0  -2 1025.40   39.30
   0   0  -2 1064.09   39.90
  -1   0   2   -1.40    1.00
   1   0  -2   -2.20    1.20
  -1   0  -2   -0.90    1.10
  -1   0  -2    0.20    1.00
   1   0  -2   -1.30    0.90
  -1   0  -2   -1.50    1.30
   1   0   2   -1.10    1.20
  -1   0   2    1.10    1.50
  -2   0  -2 7931.71  286.77
   2   0   2 7778.02  282.57
  -2   0   2 7554.44  286.67
  -2   0   2 7858.11  282.67
  -2   0  -2 7781.12  282.47
   2   0   2 7656.43  286.77
   2   0  -2 7690.43  286.67
   3   0   2   -1.00    1.10
  -3   0   2    0.00    0.90
   3   0  -2    0.80    1.50
   3   0   2   -0.60    1.10
   3   0  -2   -0.70    0.80
  -3   0  -2   -0.10    1.20
  -3   0   2    3.20    1.80
  -3   0  -2   -0.50    1.50
   4   0  -2  716.13   28.30
   4   0  -2  735.63   28.90
  -4   0   2  760.02   30.10
  -4   0  -2  751.52   29.90
  -4   0  -2  784.22   29.10
   4   0   2  726.53   28.90
   4   0   2  775.32   28.80
   4   0  -2  711.23   28.50
  -4   0   2  752.82   28.90
  -5   0   2    4.40    2.30
   5   0  -2    1.20    0.90
  -5   0   2    1.30    0.90
   5   0  -2    0.60    1.80
   5   0  -2    2.60    1.80
  -5   0  -2    0.80    1.00
   5   0   2    3.20    1.20
   5   0   2    1.10    1.60
  -5   0  -2    2.70    1.80
  -6   0   2 4979.00  172.98
   6   0  -2 4445.46  168.58
  -6   0  -2 4654.53  172.38
  -6   0  -2 4725.03  172.48
  -6   0   2 4379.26  172.28
   6   0   2 4368.06  164.08
   6   0  -2 4774.52  165.68
   6   0   2 4837.92  168.98
  -7   0  -2   -1.00    1.80
   7   0  -2    7.30    2.90
   7   0  -2   -1.30    2.00
  -7   0   2   -2.50    1.90
   7   0   2    0.30    2.20
  -8   0  -2  282.07   15.30
   8   0   2  284.27   14.30
  -8   0   2  284.37   15.50
   8   0  -2  283.17   13.50
   8   0  -2  276.07   14.00
   9   0  -2    3.50    2.80
  -9   0  -2    3.30    2.30
   9   0   2   -0.80    3.00
   9   0  -2    0.20    2.60
  -9   0   2    4.30    2.80
  10   0   2 1960.60   76.39
  10   0  -2 1932.51   76.09
  10   0  -2 2020.80   74.09
  11   0  -2    1.40    2.70
  11   0   2   -1.70    3.20
  11   0  -2    1.70    3.20
  12   0  -2   58.89    7.30
  12   0   2   67.99    7.80
  13   0   2    2.60    3.60
  13   0  -2   -3.40    2.60
  14   0  -2  891.81   39.00
  14   0   2  864.71   39.00
   0   0  -3   -3.00    1.20
   0   0  -3   -1.10    1.30
   0   0   3   -2.10    1.40
   0   0  -3   -1.40    1.70
   1   0   3 1369.86   48.90
  -1   0   3 1255.97   49.40
   1   0  -3 1281.27   48.80
   1   0  -3 1241.68   49.30
  -1   0   3 1293.97   48.90
  -1   0  -3 1276.17   49.40
  -1   0  -3 1312.07   48.80
  -1   0  -3 1316.77   49.60
  -2   0   3    1.00    1.20
   2   0   3   -1.60    1.20
   2   0  -3   -1.20    1.50
  -2   0   3    6.60    2.20
  -2   0  -3   -0.40    1.00
  -2   0  -3    0.20    1.50
   2   0  -3    0.20    1.10
  -3   0   3  381.06   15.80
   3   0  -3  379.56   15.50
  -3   0  -3  398.06   16.00
  -3   0  -3  384.36   15.80
   3   0   3  358.06   15.20
   3   0  -3  384.26   16.10
   3   0   3  369.46   16.40
  -3   0   3  365.96   16.40
  -4   0   3    1.00    1.10
  -4   0   3    4.40    2.10
   4   0   3   -0.80    1.00
   4   0  -3   -0.20    1.20
   4   0  -3    2.60    1.90
  -4   0  -3    2.20    1.90
  -4   0  -3   -2.10    1.20
  -5   0  -3  836.52   34.80
   5   0  -3  850.41   33.20
  -5   0   3  839.52   33.60
  -5   0  -3  910.51   33.90
   5   0  -3  840.82   33.10
   5   0   3  879.91   33.50
  -5   0   3  867.11   35.10
   6   0  -3   -0.90    2.10
  -6   0  -3    1.20    1.20
  -6   0   3   -1.10    1.80
  -6   0   3    1.50    1.10
   6   0  -3    1.20    1.70
  -6   0  -3   -0.20    1.90
   6   0   3    0.70    2.10
   7   0  -3  350.56   16.10
   7   0   3  349.47   16.40
  -7   0  -3  358.16   17.70
  -7   0   3  367.46   17.90
   7   0  -3  366.26   16.40
  -8   0  -3   -0.80    1.70
   8   0  -3    2.40    2.60
   8   0   3   -3.20    2.30
  -8   0   3    2.70    2.40
   8   0  -3    0.70    2.70
   9   0  -3  197.78   11.40
  -9   0  -3  184.88   12.10
   9   0   3  192.28   11.70
   9   0  -3  190.58   11.10
  10   0  -3    1.80    3.20
  10   0   3    3.50    3.40
  10   0  -3   -2.20    2.80
  11   0  -3  230.08   13.20
  11   0   3  237.88   14.20
  11   0  -3  217.68   13.70
  12   0   3    2.30    4.00
  12   0  -3    8.80    3.70
  13   0  -3   51.29    6.80
  13   0   3   58.79    6.90
  14   0  -3    0.70    2.60
   0   0   4 9035.20  346.87
   0   0  -4 9999.00  352.96
  -1   0  -4   -0.60    1.60
   1   0   4   -0.80    1.40
   1   0  -4   -0.40    1.40
  -1   0   4   -1.20    1.40
  -2   0  -4  796.22   31.40
  -2   0   4  808.52   31.30
  -2   0   4  763.12   31.20
   2   0   4  777.32   31.10
   2   0  -4  781.42   29.80
   3   0   4    2.00    1.80
   3   0   4   -0.10    0.90
   3   0  -4    1.50    2.00
  -3   0   4    2.70    1.50
  -3   0  -4    0.00    1.70
  -3   0   4    0.80    1.60
   4   0  -4 7316.87  241.88
  -4   0  -4 7308.77  253.77
   4   0   4 6688.93  245.38
  -4   0   4 6112.49  253.17
   4   0  -4 7427.16  245.28
  -4   0   4 6059.99  250.17
  -5   0  -4   -1.90    1.80
   5   0   4    2.40    1.70
   5   0  -4   -0.40    2.30
  -5   0   4    7.60    2.70
  -5   0  -4    1.30    1.80
   5   0  -4    2.10    1.60
  -6   0  -4  649.74   25.60
  -6   0  -4  623.04   27.10
   6   0  -4  608.84   25.10
   6   0   4  642.34   25.60
  -6   0   4  606.94   27.30
  -6   0   4  605.84   25.40
   7   0  -4   -1.50    2.50
  -7   0  -4    0.60    2.00
   7   0   4   -3.30    1.90
  -7   0   4   -1.80    1.90
   7   0  -4    0.40    1.80
   8   0  -4 2738.33  102.39
   8   0  -4 2784.62  101.29
  -8   0  -4 2762.82  106.09
   8   0   4 2716.73  102.69
   9   0   4   -0.80    2.90
   9   0  -4   -2.50    2.80
  -9   0  -4    4.70    2.10
   9   0  -4    1.00    2.60
  -9   0   4    3.60    2.00
  10   0  -4  277.17   15.10
  10   0   4  280.47   15.50
  10   0  -4  290.17   15.40
  11   0  -4    2.20    3.40
  11   0  -4    1.40    2.80
  11   0   4    0.90    3.50
  12   0  -4 1166.88   48.20
  12   0  -4 1154.98   47.00
  12   0   4 1165.28   48.80
  13   0   4    5.30    3.20
  13   0  -4    9.50    3.30
  14   0   4   98.69    8.50
  14   0  -4   90.79    7.80
   0   0   5   -0.80    1.60
   0   0  -5    2.30    1.40
   0   0  -5   -0.70    2.00
   1   0  -5  650.43   25.00
  -1   0   5  657.43   26.50
  -1   0  -5  643.94   24.40
   1   0  -5  642.94   27.00
  -1   0  -5  656.93   27.00
   1   0   5  643.74   26.40
   2   0  -5   -1.20    1.60
   2   0   5   -0.50    1.50
  -2   0  -5   -1.90    1.80
  -2   0   5   -1.00    1.60
   3   0   5  907.91   35.30
   3   0  -5  868.81   33.60
  -3   0   5  879.01   35.20
  -3   0   5  845.12   35.10
   3   0   5  857.01   32.90
  -3   0  -5  883.91   35.30
  -4   0  -5   -1.90    1.80
   4   0  -5   -0.80    1.00
   4   0   5    1.00    1.40
   4   0  -5    1.00    2.20
   4   0   5   -2.20    1.90
  -4   0   5    0.70    1.90
  -4   0   5   -0.30    1.40
  -5   0  -5  387.06   18.40
   5   0  -5  373.56   17.20
   5   0  -5  367.46   16.00
   5   0   5  387.56   16.40
  -5   0   5  393.86   18.50
  -5   0  -5  397.06   17.40
  -6   0  -5    0.50    2.20
   6   0  -5   -0.10    1.70
  -6   0   5    0.30    2.30
   6   0  -5    1.80    1.60
  -6   0  -5    0.30    1.80
   6   0  -5   -1.20    2.80
   6   0   5    0.70    2.00
   7   0  -5  388.46   19.20
   7   0  -5  409.66   18.30
   7   0   5  415.86   18.70
  -7   0   5  428.26   20.90
  -7   0  -5  454.25   20.90
  -8   0  -5    2.00    2.10
   8   0  -5   -1.50    2.90
  -8   0   5    7.60    2.70
   8   0  -5   -0.70    2.00
   8   0   5   -0.20    2.40
   9   0   5  229.88   13.20
   9   0  -5  244.08   12.90
   9   0  -5  235.58   13.60
  10   0   5   -2.20    2.70
  10   0  -5    5.20    3.90
  10   0  -5   -3.80    1.80
  11   0  -5  131.19    9.20
  11   0  -5  127.99   10.00
  11   0   5  122.39    9.80
  12   0   5    1.70    3.30
  12   0  -5    0.80    2.20
  13   0  -5   76.19    7.60
  13   0   5   98.19    8.30
   0   0  -6 1320.47   49.10
   0   0  -6 1308.17   52.79
   0   0   6 1379.96   51.79
   1   0   6    2.80    2.10
  -1   0  -6    2.70    1.50
   1   0  -6    2.90    2.40
   1   0  -6   -1.10    1.50
  -1   0   6    2.00    1.90
  -1   0  -6    4.80    2.70
   2   0  -6 4904.31  181.48
   2   0   6 4936.91  178.38
  -2   0   6 4827.42  178.38
  -2   0  -6 4922.41  181.38
  -2   0  -6 4535.65  170.28
   2   0  -6 4799.02  171.78
   3   0   6    3.10    1.20
   3   0  -6    1.80    2.50
  -3   0   6    0.60    2.00
   3   0   6    2.20    2.10
   3   0  -6    2.30    2.50
  -3   0  -6    0.20    2.50
   4   0  -6  615.74   26.20
   4   0   6  631.24   27.50
  -4   0  -6  671.83   27.50
   4   0   6  625.94   25.00
  -4   0   6  643.04   27.70
   4   0  -6  650.13   27.50
   5   0  -6    3.10    2.90
  -5   0   6    4.20    2.50
   5   0   6    1.50    1.50
  -5   0  -6    2.10    2.30
   5   0  -6    2.60    2.40
  -6   0  -6 3851.01  144.59
  -6   0  -6 3900.51  144.29
   6   0  -6 3857.71  139.09
   6   0  -6 3794.62  144.99
  -6   0   6 3831.72  144.49
   6   0   6 3725.03  139.69
   7   0   6    1.40    2.10
   7   0  -6   -0.80    3.20
  -7   0   6   -1.90    1.60
  -7   0  -6    0.80    1.90
  -8   0  -6  150.38   10.60
   8   0   6  160.68    9.70
   8   0  -6  148.39   10.60
   9   0   6   -1.00    2.20
   9   0  -6    0.70    3.90
  10   0  -6 1814.02   71.49
  10   0   6 1876.71   71.89
  11   0   6    2.20    2.90
  11   0  -6    1.30    4.20
  12   0  -6   61.39    7.60
  12   0   6   85.49    7.40
  13   0   6   14.00    3.50
  13   0  -6   -2.60    2.70
   0   0  -7    0.60    1.70
   0   0   7   -0.20    1.80
   0   0  -7    1.00    2.60
  -1   0  -7  583.44   23.10
   1   0  -7  619.64   26.50
  -1   0  -7  590.64   26.20
  -1   0   7  610.64   25.70
   1   0   7  582.14   25.40
   1   0  -7  579.44   23.80
  -2   0   7    0.70    2.10
   2   0  -7   -1.70    2.40
   2   0  -7    1.20    2.30
  -2   0  -7    0.00    2.60
   2   0   7    1.90    2.30
  -3   0  -7  438.86   20.60
  -3   0   7  436.66   20.30
   3   0   7  440.66   20.30
   3   0  -7  441.86   19.30
   3   0  -7  439.06   20.70
  -4   0  -7    0.80    2.60
   4   0   7    2.60    2.40
   4   0  -7   -3.70    2.00
  -4   0   7   -0.30    2.00
   4   0  -7    0.70    2.80
   5   0  -7  453.65   21.10
  -5   0  -7  444.66   20.80
   5   0  -7  448.76   20.50
   5   0   7  445.16   21.50
  -5   0   7  445.16   21.50
   6   0  -7    1.80    3.50
  -6   0  -7    3.00    2.20
  -6   0  -7    2.40    2.50
  -6   0   7    1.40    2.00
   6   0  -7    0.00    2.20
   6   0   7    2.20    1.60
   7   0   7  312.07   14.80
  -7   0   7  324.37   17.40
   7   0  -7  306.27   16.60
  -7   0  -7  303.67   16.90
   8   0   7    0.30    2.20
   8   0  -7    5.30    4.00
   9   0  -7  167.38   12.30
   9   0   7  171.68   10.40
  10   0   7    6.30    2.50
  10   0  -7    3.20    4.20
  11   0   7  155.78   10.30
  11   0  -7  148.69   11.80
  12   0  -7    0.80    3.70
  12   0   7   14.50    3.40
  13   0  -7   67.09    7.50
   0   0  -8 3501.65  125.99
   0   0  -8 3497.55  134.49
   0   0   8 3527.35  131.99
   1   0  -8   -0.90    2.10
  -1   0   8   -1.30    1.70
   1   0  -8    5.40    3.10
   1   0   8    0.80    2.10
  -1   0  -8   -0.20    2.90
  -1   0  -8    1.50    1.50
   2   0  -8  336.47   15.50
  -2   0  -8  328.07   17.20
   2   0  -8  323.47   17.10
  -2   0   8  344.47   16.80
   2   0   8  321.37   16.40
   3   0   8    5.00    2.50
   3   0  -8   -1.60    2.50
  -3   0  -8    2.80    2.90
   3   0  -8    0.80    2.30
  -3   0   8    1.30    2.00
   4   0  -8 2751.62  101.99
   4   0   8 2805.42  105.99
  -4   0  -8 2716.13  107.29
  -4   0   8 2790.52  106.19
   4   0  -8 2789.92  107.59
   5   0   8    1.10    1.90
  -5   0   8   -0.80    1.90
   5   0  -8   -0.60    3.40
   5   0  -8    1.20    2.50
  -6   0  -8  140.69   10.60
  -6   0   8  180.48   11.60
   6   0  -8  192.18   11.20
   7   0  -8    5.70    4.30
   8   0  -8 1736.53   68.09
   9   0  -8    3.60    4.70
  10   0  -8  103.19   10.20
  11   0  -8    3.60    4.40
  12   0  -8  708.23   32.60
   0   0   9    5.70    2.50
   0   0  -9    3.50    2.20
   0   0  -9   -2.70    2.70
  -1   0   9  243.88   13.90
   1   0  -9  250.07   14.90
   1   0  -9  268.07   12.90
   1   0   9  260.47   14.20
  -1   0  -9  257.07   15.00
  -2   0   9   -1.70    1.70
   2   0  -9    4.30    3.20
   2   0   9   -1.70    2.00
  -2   0  -9    0.80    3.00
   2   0  -9   -5.60    2.40
   3   0  -9  155.38   10.60
  -3   0   9  140.09    9.80
  -3   0  -9  132.39   10.30
   3   0  -9  148.59    9.60
   3   0   9  129.19    9.40
   4   0   9    1.50    1.90
   4   0  -9    3.60    3.70
  -4   0  -9    1.60    2.80
  -4   0   9    3.20    2.40
   4   0  -9   -1.70    2.10
   5   0  -9  227.48   13.40
   5   0   9  208.98   13.20
  -5   0  -9  198.18   13.00
   5   0  -9  229.18   13.40
   6   0  -9    0.20    4.00
   7   0  -9  101.79    9.80
   8   0  -9   -5.70    3.40
   9   0  -9   57.49    9.00
  10   0  -9    3.10    4.50
  11   0  -9   90.49    9.50
   0   0 -10  417.96   21.80
   0   0  10  410.46   20.70
  -1   0 -10   -0.10    3.10
   1   0 -10   -0.30    2.60
   1   0  10    1.50    1.80
   1   0 -10   -0.30    2.50
  -1   0  10    6.10    2.80
   2   0 -10 2059.09   74.29
  -2   0 -10 2005.70   79.79
   2   0 -10 1973.20   79.89
  -2   0  10 1899.91   77.59
   2   0  10 1898.41   77.39
   3   0 -10    0.50    3.30
   3   0  10    2.80    2.00
   4   0 -10  246.48   14.30
   5   0 -10    4.70    4.00
   6   0 -10 1742.73   68.49
   7   0 -10    0.80    4.40
   8   0 -10   87.49   10.10
   9   0 -10   -6.00    3.70
  10   0 -10 1105.59   47.30
  11   0 -10    7.70    4.40
   2   0 -11   -4.80    2.20
   3   0 -11  258.97   14.70
   4   0 -11    6.00    4.20
   5   0 -11  162.78   12.00
   6   0 -11    3.20    4.80
   7   0 -11  185.98   13.80
   8   0 -11   -0.40    5.10
   9   0 -11  137.09   11.60
  10   0 -11   -0.60    4.10
   3   0 -12    0.10    2.60
   4   0 -12 1280.17   51.99
   5   0 -12   -4.40    3.40
   6   0 -12   93.99    9.50
   7   0 -12   -2.10    4.10
   8   0 -12  685.43   32.00
   9   0 -12    5.20    4.40
   4   0 -13    4.30    3.60
   5   0 -13   87.99    8.70
   6   0 -13    0.40    3.80
   7   0 -13   42.20    7.70
  -1   1   0   -9.30    0.90
  -1  -1   0   -9.80    1.00
   1  -1   0   -9.40    0.90
   1  -1   0   -8.80    0.60
  -1  -1   0  -10.20    1.00
   1   1   0   -8.50    1.00
   1   1   0  -11.10    0.90
  -1   1   0   -8.20    0.60
   2   1   0    4.20    1.60
  -2  -1   0    1.80    1.50
   2  -1   0    2.70    1.40
  -2   1   0    1.60    1.40
  -2  -1   0    2.40    1.20
   2   1   0    2.20    1.20
   3  -1   0  214.18    8.90
   3   1   0  181.48    9.30
  -3  -1   0  198.58    9.60
   3   1   0  192.48    8.70
   3  -1   0  194.48    9.20
  -3   1   0  197.38    9.30
   3   1   0  210.08    9.00
  -3  -1   0  199.68    8.80
  -4  -1   0   17.30    3.10
   4  -1   0   10.90    1.90
  -4  -1   0    9.70    1.60
  -4   1   0    9.50    2.20
   4   1   0   15.30    2.60
   4   1   0    9.20    1.60
   4  -1   0   13.10    2.40
  -5  -1   0    5.50    1.50
  -5  -1   0    5.20    2.60
  -5   1   0    3.70    2.20
   5   1   0    6.20    1.90
   5  -1   0    4.20    2.40
   5  -1   0    5.90    2.00
   5   1   0    4.30    1.60
   5   1   0    3.10    2.10
   6   1   0    3.20    2.20
   6  -1   0    2.10    1.80
  -6  -1   0    0.40    0.90
  -6   1   0   -1.50    1.60
   6   1   0   -2.10    1.40
   6   1   0   -1.60    1.10
  -6  -1   0   -0.90    1.80
   6  -1   0   -1.20    1.80
  -7  -1   0    3.70    1.20
   7   1   0    4.00    2.70
  -7  -1   0    1.70    2.30
   7  -1   0   -0.30    2.30
  -7   1   0   -1.30    1.90
   7   1   0    6.30    2.20
   7  -1   0    1.60    2.00
   8  -1   0    1.80    2.20
   8   1   0    1.70    2.00
  -8  -1   0   -0.30    1.90
   8  -1   0    4.40    3.00
   8   1   0    6.00    3.10
  -8   1   0    0.50    2.20
   9  -1   0    5.00    2.30
  -9  -1   0    4.60    2.80
  -9   1   0    7.50    2.90
   9   1   0    2.80    3.30
   9  -1   0    8.00    3.60
  10  -1   0    3.60    3.80
  10   1   0   -1.30    3.10
 -10   1   0    1.00    1.70
  11   1   0    3.20    4.20
  11  -1   0   12.40    4.70
  12   1   0   -4.50    3.00
  12  -1   0   -2.70    3.30
  13   1   0    0.00    3.50
  13  -1   0    0.50    3.90
  14  -1   0   11.80    4.20
  14   1   0    6.20    3.60
   0   1   1  -11.80    1.00
   0   1   1  -11.10    0.90
   0  -1   1  -11.70    0.60
   0   1  -1  -11.70    0.50
   0  -1  -1  -12.20    0.90
   0  -1   1  -12.50    0.80
   0   1  -1  -11.90    0.70
   0  -1  -1  -11.40    0.80
  -1  -1   1   -2.00    1.20
  -1   1  -1   -2.70    0.60
   1   1   1   -2.00    1.10
  -1   1  -1   -2.70    0.70
   1   1   1   -3.00    1.20
  -1  -1   1   -3.10    0.90
   1  -1  -1   -2.70    1.00
   1  -1  -1   -3.10    1.10
  -1  -1  -1   -3.20    1.00
  -1  -1  -1   -1.80    1.20
  -1   1   1   -3.40    1.20
   1   1  -1   -4.30    1.00
   1  -1   1   -1.50    0.80
   1   1  -1   -2.20    1.00
   1  -1   1   -3.60    0.80
  -1   1   1   -2.80    0.90
  -2   1  -1   -9.50    0.60
  -2  -1   1  -10.70    1.40
  -2  -1   1   -9.60    1.10
   2   1   1   -8.80    1.30
  -2   1  -1   -9.90    0.80
   2  -1  -1  -11.00    1.40
   2  -1  -1  -10.40    0.80
  -2   1  -1   -9.60    1.20
   2  -1  -1   -9.70    0.60
  -2  -1  -1   -9.20    1.30
   2   1  -1   -9.20    1.10
   2   1  -1   -9.10    1.40
  -2   1   1  -10.20    1.20
  -2  -1  -1   -9.00    1.20
  -2  -1  -1   -9.50    1.50
   3   1   1  116.19    5.80
  -3  -1   1  121.69    5.70
  -3   1  -1  133.39    5.00
   3  -1  -1  110.29    5.60
   3  -1  -1  113.49    5.80
   3  -1  -1  118.79    5.00
   3   1   1  123.19    6.00
   3  -1  -1  115.69    6.20
  -3  -1   1  114.19    6.30
  -3   1  -1  130.19    4.90
  -3   1  -1  130.19    6.30
  -3   1   1  121.39    6.40
   3  -1   1  114.39    5.70
  -3  -1  -1  107.19    6.30
  -3  -1  -1  118.89    5.70
   3  -1   1  119.29    6.10
   3   1  -1  118.69    5.70
   4  -1  -1    0.60    0.70
   4  -1  -1    2.40    2.10
   4   1   1    0.80    2.00
   4  -1  -1    1.20    1.90
  -4  -1   1    2.00    1.50
   4   1   1    0.50    1.60
  -4  -1   1    0.50    2.30
  -4   1  -1    1.70    0.70
  -4   1  -1   -0.50    2.00
   4  -1  -1    1.40    0.90
  -4   1   1    4.20    2.20
   4  -1   1    2.50    2.00
  -4  -1  -1    2.60    1.60
  -4  -1  -1    1.90    2.10
   4   1  -1    0.30    1.80
   4   1  -1   -0.40    1.70
   4   1  -1    2.00    1.50
   5  -1  -1   18.60    2.70
   5  -1  -1   21.70    3.00
  -5  -1   1   20.00    2.10
  -5  -1   1   20.40    3.70
   5   1   1   16.30    2.20
   5   1   1   19.30    2.80
  -5   1  -1   20.20    3.40
   5   1  -1   15.10    1.90
   5  -1   1   22.70    3.50
  -5   1   1   14.90    3.10
   5  -1   1   19.20    2.30
   5   1  -1   21.30    3.20
  -5  -1  -1   18.20    2.00
   5   1  -1   23.00    3.00
  -5  -1  -1   11.80    2.90
   6   1   1   -2.20    1.10
   6  -1  -1   -2.20    1.70
   6   1   1   -1.00    2.00
  -6  -1   1   -4.00    1.60
  -6  -1   1   -1.50    0.90
  -6   1  -1   -1.40    2.00
   6  -1  -1   -3.40    1.70
   6   1   1   -2.40    1.20
   6   1  -1   -2.60    1.80
  -6  -1  -1   -2.50    0.80
   6  -1   1   -2.80    1.20
  -6  -1  -1   -2.40    1.90
   6   1  -1   -2.50    1.80
  -6   1   1    0.00    2.10
   6   1  -1   -1.20    0.70
   6  -1   1   -3.80    1.80
   7   1   1   21.10    2.70
   7  -1  -1   16.00    3.60
  -7  -1   1   17.90    4.10
   7   1   1   22.30    4.10
  -7  -1   1   18.10    2.00
   7  -1  -1   20.90    3.60
  -7   1  -1   24.90    4.40
   7  -1   1   28.90    4.60
  -7  -1  -1   20.80    4.40
   7  -1   1   21.30    3.00
   7   1  -1   26.40    3.80
   7   1  -1   25.80    4.50
  -7   1   1   23.70    4.60
  -7  -1  -1   15.10    1.90
   8  -1  -1    3.40    2.80
   8  -1  -1    8.20    3.00
  -8   1  -1    4.70    2.40
  -8  -1   1    5.20    2.60
   8   1   1    5.60    3.10
   8  -1   1    6.40    2.30
   8   1  -1    4.20    2.50
   8   1  -1    5.80    3.00
  -8  -1  -1    4.50    2.60
   8  -1   1    3.20    2.80
  -8   1   1    4.80    3.00
  -9  -1   1    6.20    2.40
  -9   1  -1    0.40    1.60
   9  -1  -1   -0.10    2.30
   9   1   1   -0.60    2.70
   9  -1  -1    0.00    2.50
   9  -1   1   -2.90    2.10
  -9  -1  -1    0.20    1.50
   9   1  -1   -0.60    2.40
   9   1  -1    2.00    2.90
  -9   1   1    3.20    2.10
  10   1   1    3.50    3.90
  10  -1  -1    0.70    2.50
 -10   1  -1    2.20    1.90
  10  -1  -1    5.80    3.50
  10   1  -1    3.80    3.70
  10  -1   1   -0.80    2.90
  11   1   1    1.50    3.70
  11  -1  -1   -1.00    3.10
  11   1  -1   -2.90    3.00
  11  -1   1    0.90    3.40
  12  -1  -1   -0.70    3.60
  12   1   1    1.50    3.60
  12   1  -1    2.80    3.50
  12  -1   1    2.50    4.10
  13   1   1   14.10    5.00
  13  -1  -1    4.60    4.00
  13   1  -1    5.90    4.20
  13  -1   1   13.20    4.80
  14  -1  -1   12.40    3.90
  14   1   1   14.00    4.00
  14   1  -1    8.20    3.80
  14  -1   1   13.90    5.10
   0   1   2    0.90    1.40
   0  -1  -2    3.20    1.40
   0  -1  -2    1.80    1.50
   0   1   2    0.80    1.30
   0   1  -2    1.00    1.10
   0  -1   2    1.70    1.20
   0   1  -2    3.10    1.10
   0  -1   2    2.80    1.20
  -1  -1   2   -8.70    1.20
  -1   1  -2   -8.10    1.00
   1  -1  -2   -7.20    1.50
   1   1   2   -7.20    1.30
   1  -1  -2   -7.70    1.50
  -1   1  -2   -8.00    0.90
   1   1   2   -8.80    1.30
  -1  -1   2   -7.90    1.50
  -1   1   2   -6.60    1.50
   1   1  -2   -8.70    1.20
  -1  -1  -2   -8.40    1.40
   1  -1   2   -7.40    1.20
   1  -1   2   -7.40    1.30
  -1  -1  -2   -6.80    1.60
   1   1  -2   -8.10    1.30
  -2  -1   2   13.60    2.00
  -2   1  -2   10.00    1.50
   2  -1  -2   10.50    1.50
   2  -1  -2   10.70    2.00
   2   1   2   14.00    2.20
  -2   1  -2   15.10    1.90
  -2  -1   2   16.40    2.50
   2  -1  -2   17.20    2.10
  -2   1  -2   11.20    1.40
   2   1   2   13.00    2.40
   2   1  -2   13.70    2.30
   2  -1   2   11.10    2.00
   2   1  -2    9.50    1.70
  -2  -1  -2   13.30    2.30
  -2  -1  -2   13.00    2.20
  -2   1   2   14.30    2.50
   3   1   2   65.19    4.20
  -3   1  -2   63.59    4.20
   3   1   2   61.99    4.20
  -3  -1   2   65.29    4.80
  -3   1  -2   72.99    4.60
   3  -1  -2   69.69    3.70
   3  -1  -2   64.79    4.30
  -3  -1   2   68.79    4.20
  -3   1  -2   71.89    3.90
  -3   1  -2   65.89    3.60
   3  -1  -2   61.49    3.90
   3  -1  -2   63.79    3.90
   3   1  -2   64.69    4.10
   3  -1   2   62.99    4.00
   3   1  -2   57.19    4.20
  -3  -1  -2   66.19    4.80
  -3  -1  -2   75.59    4.50
  -3   1   2   64.89    4.80
  -4   1  -2   13.80    1.70
  -4   1  -2   12.10    2.60
  -4  -1   2   10.60    1.90
   4  -1  -2   11.00    2.50
   4   1   2   14.50    2.60
   4  -1  -2   13.70    2.40
   4  -1  -2   15.50    1.90
   4   1   2    9.80    1.90
   4  -1  -2   10.50    1.30
  -4   1  -2   10.50    1.20
  -4  -1   2   11.20    2.60
  -4   1   2   16.30    3.00
   4   1  -2   11.90    1.90
   4   1  -2   15.30    2.60
   4  -1   2   11.80    2.30
  -4  -1  -2   10.10    2.60
  -4  -1  -2   13.10    2.10
   4   1  -2   16.60    2.50
   5  -1  -2    5.30    1.40
  -5  -1   2    6.40    2.80
  -5   1  -2    3.30    1.20
   5  -1  -2    5.60    1.10
   5  -1  -2    5.70    2.40
   5   1   2    4.10    2.10
   5  -1  -2    6.30    2.10
  -5  -1   2    7.60    1.80
  -5   1  -2    3.40    2.30
  -5   1  -2    2.90    1.00
   5  -1   2    4.90    1.60
  -5  -1  -2    6.80    1.80
  -5   1   2    6.40    2.60
   5   1  -2    5.40    2.10
  -5  -1  -2    5.50    2.60
   5  -1   2    3.40    2.10
   5   1  -2    2.60    2.20
   6   1   2    0.80    1.80
  -6  -1   2    2.10    2.10
   6  -1  -2   -0.10    1.70
   6  -1  -2    1.00    0.80
  -6  -1   2    0.60    1.00
  -6   1  -2    1.00    1.90
   6  -1  -2    1.00    2.10
  -6  -1  -2    0.30    1.10
   6  -1   2    0.00    1.10
  -6   1   2    2.30    2.10
   6  -1   2    1.40    1.90
   6   1  -2    0.90    2.10
  -6  -1  -2    0.20    1.80
   6   1  -2    1.60    1.90
   7  -1  -2   12.10    3.30
  -7  -1   2    2.90    2.60
  -7   1  -2   12.00    3.50
   7   1   2   18.40    4.10
   7  -1  -2   12.40    3.40
  -7  -1   2    8.50    1.80
   7  -1   2   11.70    2.20
   7  -1   2   10.20    3.10
  -7  -1  -2   11.90    3.60
  -7  -1  -2    8.10    1.80
  -7   1   2   15.60    3.90
   7   1  -2    9.70    3.10
   7   1  -2    8.80    3.10
   8  -1  -2   10.50    3.40
   8   1   2    0.60    2.80
   8  -1  -2    8.10    3.20
  -8   1  -2    5.40    2.80
  -8  -1   2    6.20    3.20
   8  -1   2   10.80    3.70
  -8  -1  -2    9.30    3.30
   8   1  -2    5.60    2.80
   8   1  -2    7.60    3.40
  -8   1   2    6.10    3.10
  -9  -1   2    3.20    2.30
  -9   1  -2    9.90    3.10
   9   1   2    5.80    3.50
   9  -1  -2    9.70    3.60
   9  -1  -2    6.20    3.30
   9   1  -2    3.80    2.90
  -9   1   2    5.90    2.70
   9  -1   2    6.50    3.30
   9   1  -2    6.30    3.30
  -9  -1  -2    6.20    2.90
  10  -1  -2    1.70    3.00
  10   1   2    4.70    3.30
  10  -1  -2    7.20    3.70
  10  -1   2    3.10    3.60
  10   1  -2   -0.40    2.50
  10   1  -2    6.30    3.60
  11  -1  -2    1.10    2.80
  11   1   2    5.90    4.10
  11  -1  -2    4.70    3.70
  11  -1   2   -2.40    3.20
  11   1  -2    1.70    3.20
  12  -1  -2    1.30    3.70
  12   1   2    4.00    3.90
  12   1  -2    4.20    3.40
  12  -1   2    6.10    4.10
  13  -1  -2    9.30    4.70
  13   1   2   22.20    5.70
  13  -1   2   12.50    4.60
  13   1  -2   10.50    4.20
  14   1   2    7.70    3.10
  14  -1  -2    5.00    3.50
  14  -1   2    8.20    3.40
  14   1  -2   15.10    4.10
   0   1  -3  230.78   10.20
   0   1   3  228.18   10.60
   0  -1   3  240.48   10.70
   0   1  -3  236.38   10.50
   0  -1  -3  250.87   10.90
   0  -1   3  231.18   10.30
   0  -1  -3  235.18   10.60
   1   1   3  119.29    6.20
  -1  -1   3  117.39    5.90
  -1  -1   3  113.99    5.90
   1  -1  -3  112.59    5.70
  -1   1  -3  121.69    5.80
   1  -1  -3  110.99    6.10
   1   1   3  105.99    5.90
  -1   1  -3  116.19    5.60
   1   1  -3  109.19    6.00
  -1  -1  -3  114.99    6.20
   1   1  -3  106.69    5.60
   1  -1   3  117.29    5.90
   1   1  -3  111.99    5.80
   1  -1   3  119.99    5.80
  -1   1   3  118.59    6.10
  -2   1  -3   77.09    4.60
  -2  -1   3   72.69    4.90
  -2   1  -3   72.19    4.40
  -2   1  -3   78.39    4.90
  -2  -1   3   76.09    4.80
   2   1   3   84.19    5.20
   2  -1  -3   73.69    4.60
   2  -1  -3   75.69    4.40
   2  -1  -3   73.39    4.90
   2  -1   3   75.99    4.80
  -2  -1  -3   80.59    5.10
   2   1  -3   76.89    4.80
  -2   1   3   72.69    5.10
  -3  -1   3    0.90    1.60
   3  -1  -3    2.20    1.50
  -3   1  -3    0.60    1.10
   3  -1  -3   -1.30    1.40
  -3  -1   3    0.70    1.20
   3   1   3    0.40    1.30
   3  -1  -3    1.10    0.90
   3  -1  -3    2.10    1.30
  -3   1  -3    0.50    0.70
   3   1   3    0.70    1.50
  -3  -1  -3    1.80    1.70
   3   1  -3    0.10    1.70
  -3   1   3   -0.50    1.60
   3  -1   3   -0.60    1.00
   4   1   3    0.60    1.60
   4  -1  -3    1.50    2.10
  -4   1  -3   -0.20    1.00
  -4  -1   3   -2.50    1.50
  -4   1  -3   -1.60    1.10
   4  -1  -3   -0.40    1.00
   4  -1  -3    1.60    1.70
  -4  -1   3   -0.10    1.40
  -4   1  -3    0.40    1.90
   4  -1  -3    0.60    1.60
   4   1  -3    2.20    1.70
   4   1  -3    0.40    2.00
  -4   1   3   -0.10    1.80
  -4  -1  -3    2.50    2.20
   4  -1   3    1.10    1.60
  -5   1  -3   74.19    5.50
   5  -1  -3   63.09    3.80
  -5  -1   3   63.69    4.40
   5  -1  -3   70.69    4.30
   5  -1  -3   68.39    4.70
  -5   1  -3   69.59    3.90
   5   1   3   68.39    4.80
   5  -1  -3   62.99    5.10
  -5  -1   3   66.19    5.50
  -5   1  -3   72.79    4.20
   5  -1   3   70.19    4.80
  -5  -1  -3   73.89    5.70
  -5   1   3   68.69    5.60
   5   1  -3   67.79    5.10
   5  -1   3   68.89    3.80
  -5  -1  -3   71.19    4.60
   5   1  -3   64.79    4.50
   6   1   3   23.30    3.90
   6  -1  -3   25.10    4.00
  -6   1  -3   25.80    4.50
  -6   1  -3   18.60    2.10
   6  -1  -3   16.50    2.30
   6  -1  -3   19.10    3.80
  -6  -1   3   15.60    2.40
  -6  -1   3   12.00    3.40
  -6   1   3   17.00    3.80
   6   1  -3   22.40    3.70
   6  -1   3   19.40    3.70
  -6  -1  -3   12.90    2.50
   6   1  -3   22.00    4.00
  -6  -1  -3   19.10    4.00
   7  -1  -3    0.10    2.60
   7  -1  -3   -0.40    1.80
  -7  -1   3    0.30    1.00
  -7   1  -3   -0.80    1.80
   7   1   3   -2.30    2.20
  -7  -1   3    0.60    2.30
  -7  -1  -3    3.60    2.50
   7   1  -3   -0.80    2.50
   7   1  -3   -1.70    1.80
  -7   1   3   -1.60    1.90
  -7  -1  -3    2.80    1.20
   7  -1   3    2.10    2.40
  -8   1  -3    2.60    2.00
   8   1   3    9.10    3.60
  -8  -1   3   14.60    4.10
   8  -1  -3    8.70    3.10
   8  -1  -3    8.00    3.30
  -8   1   3    8.20    3.10
  -8  -1  -3    8.50    3.10
   8   1  -3    8.40    3.40
   8  -1   3    5.50    3.10
   8   1  -3    8.80    3.00
   9  -1  -3    7.40    3.80
  -9  -1   3    8.40    2.80
   9   1   3    3.10    3.30
   9  -1  -3   14.00    4.10
  -9   1  -3    5.80    2.50
   9   1  -3    6.90    3.20
   9   1  -3   14.00    4.20
  -9   1   3    6.10    2.70
   9  -1   3   16.60    4.20
  -9  -1  -3   11.50    3.40
  10  -1  -3   19.60    4.60
  10  -1  -3   22.70    5.00
  10   1   3   11.40    4.20
  10  -1   3   11.00    4.40
  10   1  -3   17.70    4.60
  10   1  -3   15.90    4.40
  11  -1  -3   10.00    4.10
  11   1   3    6.20    4.10
  11  -1  -3   -1.40    2.50
  11   1  -3    6.50    3.50
  11  -1   3    2.50    3.90
  11   1  -3   -1.10    2.70
  12   1   3    2.80    3.60
  12  -1  -3   -4.10    2.20
  12  -1  -3    8.10    4.00
  12   1  -3    6.20    3.30
  12  -1   3   -2.60    3.30
  13   1   3   10.50    4.20
  13  -1   3   12.10    4.20
  13   1  -3    8.20    2.90
  14  -1  -3   10.30    3.00
  14   1   3   10.90    3.30
  14   1  -3    8.20    3.00
  14  -1   3    3.90    2.90
   0  -1   4    9.30    2.30
   0  -1   4   12.50    2.30
   0   1   4   12.30    2.50
   0   1  -4    9.90    2.00
   0  -1  -4   14.10    2.80
   1   1   4    9.50    2.70
   1  -1  -4    7.50    2.10
  -1  -1   4   10.30    2.60
  -1  -1   4    9.00    2.60
   1  -1  -4    8.00    2.60
  -1   1   4   12.20    2.80
  -1  -1  -4    9.70    2.80
   1   1  -4   11.00    2.50
   1  -1   4   11.70    2.60
   1  -1   4    6.20    2.20
  -2  -1   4   -0.40    1.50
  -2  -1   4   -0.10    1.30
   2  -1  -4    2.00    1.70
   2  -1  -4    3.20    1.80
   2   1   4    2.80    1.90
  -2   1  -4    2.40    1.80
  -2   1   4    1.70    1.70
   2  -1   4    2.30    1.60
  -2  -1  -4   -0.20    1.70
   2   1  -4    1.50    1.60
  -3   1  -4    0.70    1.70
  -3  -1   4   -1.40    1.80
   3  -1  -4   -1.70    1.90
   3  -1  -4   -1.30    1.10
   3   1   4    0.50    1.90
  -3  -1   4   -0.40    1.40
   3  -1  -4   -1.70    1.60
   3   1   4    0.90    1.50
  -3  -1  -4   -3.10    1.70
   3   1  -4   -0.90    1.70
   3  -1   4   -1.10    1.20
   3  -1   4   -0.10    1.90
  -3   1   4   -2.60    1.50
   4  -1  -4    0.10    1.60
  -4  -1   4    0.00    1.60
   4  -1  -4   -0.10    1.20
   4   1   4    0.00    1.40
  -4   1  -4    0.00    1.40
  -4  -1   4   -0.70    1.20
   4  -1  -4   -1.60    1.70
   4   1   4    0.10    1.90
  -4   1  -4   -0.20    1.70
   4   1  -4   -0.40    1.00
   4   1  -4   -2.90    1.90
  -4   1   4    0.90    1.90
   4  -1   4    0.30    1.20
  -4  -1  -4   -1.30    1.70
  -5   1  -4    7.70    2.70
   5  -1  -4    3.50    2.70
   5  -1  -4    5.50    2.20
  -5  -1   4    2.00    1.80
  -5  -1   4    4.20    2.60
   5  -1  -4    4.20    2.00
  -5   1  -4    4.70    2.10
   5   1   4    6.70    2.50
  -5  -1  -4    5.60    2.30
  -5   1   4    9.50    3.10
   5   1  -4    5.00    2.80
  -5  -1  -4    0.70    2.30
   5  -1   4    9.40    2.60
   5   1  -4    2.50    1.70
  -6  -1   4    3.00    1.50
   6  -1  -4    3.50    1.70
   6   1   4    2.70    2.20
  -6   1  -4    3.50    2.50
   6  -1  -4    3.10    2.80
  -6   1  -4    2.40    1.50
   6  -1  -4    3.40    2.10
  -6  -1   4    1.20    2.30
  -6  -1  -4    1.30    1.50
   6  -1   4    5.30    2.50
   6   1  -4    6.50    3.00
  -6   1   4    2.50    2.50
  -6  -1  -4    1.10    2.40
   6   1  -4    3.80    1.90
   7   1   4    0.10    2.40
  -7  -1   4    1.30    2.40
   7  -1  -4    0.60    2.00
   7  -1  -4   -5.40    2.30
  -7   1  -4   -0.30    2.10
  -7  -1   4    0.10    1.00
   7  -1   4    0.10    2.20
  -7   1   4    0.30    2.30
  -7  -1  -4    1.00    2.20
   7   1  -4   -0.60    2.70
   7   1  -4   -0.70    1.70
  -8  -1   4   -2.10    2.00
   8   1   4   -0.90    2.50
   8  -1  -4    4.50    2.90
   8  -1  -4    3.30    3.50
  -8   1  -4    3.40    2.00
   8   1  -4    1.00    3.00
   8  -1   4   -1.10    2.50
  -8  -1  -4    7.30    2.60
   8   1  -4    0.30    2.10
  -8   1   4    3.00    2.20
  -9   1  -4    2.90    1.50
  -9  -1   4    5.30    2.30
   9  -1  -4    0.10    3.40
   9   1   4   -4.40    2.50
   9  -1  -4    1.10    2.40
   9  -1   4    0.60    2.70
   9   1  -4    0.90    3.10
   9   1  -4    2.50    2.70
  -9   1   4    4.10    1.60
  -9  -1  -4    3.90    2.20
  10  -1  -4    1.80    3.60
  10   1   4    1.10    3.50
  10  -1  -4    3.30    2.90
  10  -1   4    1.70    2.60
  10   1  -4   -1.10    2.30
  10   1  -4   -3.40    2.70
  11  -1  -4    1.10    2.80
  11   1   4    0.50    3.10
  11  -1  -4   -2.10    2.90
  11   1  -4   -2.10    3.10
  11  -1   4    0.40    3.50
  11   1  -4    3.60    3.00
  12  -1  -4    1.60    2.70
  12   1   4    7.60    3.90
  12  -1  -4   -0.40    2.70
  12   1  -4   -0.80    2.70
  12  -1   4    3.80    3.30
  13   1   4   10.10    3.60
  13  -1  -4    9.70    3.00
  13  -1   4   16.80    4.00
  13   1  -4    3.80    2.60
  14  -1  -4    5.80    2.50
  14   1   4   10.50    3.40
  14   1  -4    3.90    2.70
  14  -1   4    0.00    2.50
   0  -1  -5    4.10    2.50
   0  -1   5    4.70    2.10
   0   1   5    3.90    2.30
   0   1  -5    8.70    2.20
   0  -1  -5    8.30    2.00
   0  -1   5   10.20    2.50
  -1   1  -5    6.50    2.50
   1  -1  -5    3.50    1.70
   1   1   5    8.20    2.40
   1  -1  -5    8.40    2.60
  -1  -1   5    9.80    2.50
  -1   1  -5    7.70    1.90
  -1  -1   5    9.60    2.40
  -1   1   5    8.80    2.50
   1   1  -5   10.70    2.40
   1  -1   5    8.70    2.20
  -1  -1  -5    9.50    2.70
   2   1   5    2.60    1.50
  -2   1  -5    2.60    1.40
   2  -1  -5   -1.20    2.10
  -2  -1   5    0.30    1.90
   2  -1  -5    3.10    2.10
   2   1   5    4.00    2.30
  -2  -1   5    1.30    1.80
  -2   1  -5    1.80    2.30
  -2  -1  -5    1.90    2.30
   2   1  -5   -0.90    1.90
   2  -1   5    1.40    1.90
  -2   1   5    0.50    1.90
   3  -1  -5   59.89    3.60
   3  -1  -5   70.39    5.20
  -3   1  -5   62.29    5.10
  -3  -1   5   66.89    5.30
   3   1   5   72.49    4.10
   3   1   5   65.79    5.40
   3  -1  -5   66.89    5.20
  -3  -1   5   62.79    4.90
   3  -1   5   66.89    3.80
   3  -1   5   63.09    5.10
   3   1  -5   73.09    5.20
   3  -1   5   61.99    3.60
  -3   1   5   68.69    5.50
  -3  -1  -5   70.09    5.50
   4  -1  -5   -0.40    1.20
   4   1   5    0.00    1.90
  -4  -1   5    2.30    2.30
   4  -1  -5    0.30    2.30
   4  -1  -5    2.70    2.30
  -4   1  -5    1.90    2.10
  -4  -1   5    0.40    1.60
   4   1   5    1.00    1.50
   4   1  -5    4.30    2.70
   4  -1   5    2.30    1.60
   4   1  -5   -0.90    1.00
  -4   1   5    1.60    2.30
   4  -1   5    2.60    2.30
  -4  -1  -5    3.20    2.60
  -5   1  -5    3.90    2.20
   5  -1  -5   -0.10    1.30
  -5  -1   5    0.80    2.30
  -5   1  -5    0.30    1.80
  -5  -1   5    1.50    1.60
   5  -1  -5   -2.70    2.30
   5   1   5   -0.40    1.40
   5  -1  -5    3.20    2.00
  -5  -1  -5   -1.70    1.90
  -5  -1  -5    0.20    2.10
   5   1  -5    1.00    1.30
   5  -1   5    1.20    1.60
  -5   1   5   -0.10    2.10
   5   1  -5   -4.50    2.30
  -6  -1   5    1.70    2.20
   6  -1  -5    2.00    1.80
  -6   1  -5    1.20    1.80
   6   1   5    4.20    2.40
   6  -1  -5    3.00    3.00
   6  -1  -5    3.20    2.10
  -6  -1   5    2.90    1.60
  -6   1  -5    3.80    2.70
   6  -1   5    3.90    2.30
   6   1  -5   -0.20    1.50
  -6  -1  -5    0.20    1.80
   6   1  -5    1.30    2.80
  -6   1   5    4.60    2.70
  -6  -1  -5    1.00    2.50
   7  -1  -5   25.70    3.60
  -7   1  -5   25.00    4.90
  -7  -1   5   28.30    5.50
   7  -1  -5   22.80    4.70
   7   1   5   32.40    4.40
   7   1  -5   29.40    5.20
   7  -1   5   27.40    4.60
  -7  -1  -5   28.90    5.30
  -7   1   5   21.70    4.60
   7   1  -5   25.90    3.40
   8  -1  -5    9.20    3.20
   8  -1  -5    7.30    4.20
  -8  -1   5   10.30    3.40
  -8   1  -5    9.60    2.90
   8   1   5    9.90    3.50
  -8  -1  -5   11.80    3.90
   8   1  -5   13.50    4.40
   8  -1   5    6.00    3.00
  -8   1   5    9.60    3.60
   8   1  -5    9.70    3.00
   9  -1  -5    1.20    2.20
  -9   1  -5    5.80    2.20
   9   1   5    4.50    3.40
   9  -1  -5    2.80    3.70
   9   1  -5    2.90    3.70
   9   1  -5    2.90    2.10
   9  -1   5    6.40    3.20
  10   1   5    1.10    3.20
  10  -1  -5   -1.10    2.70
  10  -1  -5   -1.20    3.40
  10  -1   5    9.40    3.60
  10   1  -5    0.10    3.40
  10   1  -5    4.00    2.50
  11  -1  -5    4.00    3.80
  11  -1  -5    0.40    2.60
  11   1   5    2.10    3.40
  11  -1   5   -1.30    2.70
  11   1  -5    7.60    2.70
  11   1  -5    1.10    3.50
  12  -1  -5    3.80    2.80
  12  -1  -5   -3.00    3.10
  12   1   5   -4.00    3.20
  12   1  -5    1.80    3.00
  12  -1   5    1.70    2.70
  13  -1  -5    9.00    3.70
  13   1   5    8.70    3.00
  13  -1   5   17.80    4.10
   0  -1  -6   20.60    2.80
   0   1  -6   21.10    4.10
   0   1   6   18.30    3.50
   0  -1  -6   20.30    4.10
   0   1  -6   18.60    3.00
   0  -1   6   20.90    3.50
   1   1   6   -1.40    2.00
   1  -1  -6   -2.80    1.50
  -1  -1   6   -3.20    1.60
   1  -1  -6    1.70    2.60
  -1   1  -6   -1.20    2.30
  -1  -1   6   -2.20    1.70
  -1   1  -6   -2.40    1.30
   1   1  -6   -1.30    1.90
  -1   1   6   -3.60    1.70
  -1  -1  -6   -2.60    1.10
   1  -1   6    0.30    1.80
  -1  -1  -6   -3.30    2.10
   2   1   6   17.70    3.60
   2   1   6   15.40    1.70
  -2  -1   6   11.90    2.80
  -2   1  -6   18.90    2.60
  -2  -1   6   17.50    3.30
  -2   1  -6   18.50    3.90
   2  -1  -6   17.80    3.80
   2  -1  -6   17.30    3.30
   2   1  -6   11.90    3.00
  -2   1   6   14.90    3.20
   2  -1   6   18.00    3.40
  -2  -1  -6   15.30    3.70
  -3  -1   6   23.70    3.70
  -3   1  -6   21.10    4.00
   3   1   6   17.50    2.20
  -3  -1   6   28.50    4.40
   3  -1  -6   27.90    4.40
   3   1   6   22.10    4.10
   3  -1  -6   26.20    4.40
  -3  -1  -6   24.20    4.30
   3  -1   6   22.80    3.90
  -3   1   6   20.40    3.80
   3   1  -6   29.00    4.70
  -4  -1   6   10.60    2.70
   4  -1  -6   17.80    3.90
   4  -1  -6    9.30    3.10
   4   1   6   19.30    3.90
  -4  -1   6   15.20    3.60
   4   1   6   16.60    2.60
  -4   1  -6   18.10    3.70
   4  -1   6   26.00    4.50
   4   1  -6   20.30    4.30
   4  -1   6   16.80    2.60
  -4   1   6   16.00    3.60
  -4  -1  -6   18.70    4.00
  -5  -1   6    1.50    2.20
  -5   1  -6    0.50    2.20
  -5   1  -6    1.30    2.20
   5  -1  -6    3.10    3.00
  -5  -1   6    3.50    2.20
   5  -1  -6    1.70    2.10
   5   1   6    3.80    2.00
  -5  -1  -6    3.50    2.50
   5  -1   6    3.20    1.70
   5   1  -6   -0.30    2.70
  -5   1   6    9.80    2.90
  -6   1  -6    7.40    3.00
   6   1   6    6.80    2.60
  -6  -1   6    5.70    2.70
   6  -1  -6    4.20    3.40
   6  -1  -6    3.40    2.10
  -6  -1   6    2.90    2.00
  -6   1  -6    1.40    2.20
   6   1  -6    3.50    3.30
   6  -1   6    5.20    2.40
  -6  -1  -6    3.80    2.60
  -6  -1  -6    4.80    2.50
  -6   1   6   10.90    3.50
  -7   1  -6    5.40    2.40
   7  -1  -6   10.40    4.10
   7   1   6    3.10    2.50
  -7  -1   6    3.60    2.50
  -7   1   6    3.50    2.30
   7  -1   6   -0.90    2.00
  -7  -1  -6    3.90    2.70
   7   1  -6   -1.70    3.10
   8  -1  -6   14.80    4.60
   8   1   6   13.70    3.80
  -8   1  -6   16.60    3.80
   8   1  -6    8.90    4.60
   8  -1   6   12.10    3.60
   9   1   6    8.80    3.30
   9  -1  -6   -2.90    3.70
   9   1  -6    5.00    4.30
   9  -1   6    3.20    2.50
  10   1   6    9.40    3.80
  10  -1  -6    4.40    4.30
  10  -1   6    5.00    2.60
  10   1  -6    8.20    4.50
  11  -1  -6    7.00    4.40
  11   1   6   12.20    3.80
  11   1  -6    4.20    4.00
  11  -1   6   10.00    3.40
  12   1   6    6.80    3.20
  12  -1  -6   -0.90    3.40
  12  -1   6   17.30    3.70
  12   1  -6    0.30    3.30
  13   1   6    6.40    2.70
  13  -1  -6    2.00    2.90
  13  -1   6    4.90    2.40
  13   1  -6   -3.80    2.50
   0   1  -7    1.00    1.80
   0   1  -7    2.80    2.80
   0   1   7   -0.60    1.70
   0  -1  -7    0.80    1.60
   0  -1   7    0.20    1.80
   0  -1  -7   -0.90    2.60
   1   1   7   15.40    3.50
  -1   1  -7   10.60    3.30
  -1   1  -7   18.30    3.10
  -1  -1   7   11.00    2.90
   1  -1  -7   16.70    3.20
   1  -1  -7   17.20    4.20
  -1  -1  -7   20.50    4.60
   1   1  -7   16.70    3.60
   1   1  -7   20.20    4.30
  -1  -1  -7   17.70    2.60
  -1   1   7   15.00    3.60
   1  -1   7   16.40    3.40
  -2   1  -7   10.90    2.30
  -2  -1   7    5.80    2.60
   2  -1  -7   12.80    3.60
  -2   1  -7   10.30    3.30
   2  -1  -7   10.20    3.10
   2   1   7    7.40    2.80
  -2  -1  -7    9.00    3.60
   2   1  -7   12.50    3.40
   2  -1   7    8.70    2.80
  -2   1   7    6.10    2.80
  -3   1  -7   -0.50    2.40
   3   1   7   -0.50    1.90
  -3  -1   7    2.80    2.30
   3  -1  -7    2.00    2.60
   3  -1  -7    0.30    2.30
  -3   1   7   -0.10    1.90
  -3  -1  -7    0.00    2.50
   3  -1   7   -0.80    1.90
   3   1  -7   -5.10    2.20
  -4  -1   7    1.80    1.90
  -4   1  -7    4.90    2.70
   4  -1  -7    2.60    2.50
   4  -1  -7   -0.20    2.70
   4   1   7    2.70    2.40
   4  -1   7    0.00    2.20
   4   1  -7    1.50    3.10
  -4   1   7    0.70    2.10
  -4  -1  -7   -0.50    2.50
   5   1   7   22.80    3.00
  -5   1  -7   26.30    4.40
   5  -1  -7   21.50    4.70
  -5  -1   7   23.50    4.60
   5   1   7   22.50    4.70
   5  -1  -7   22.40    4.00
  -5   1   7   20.90    4.40
  -5  -1  -7   18.30    4.20
   5   1  -7   18.30    4.30
  -6   1  -7    2.80    1.80
   6   1   7    1.40    1.70
   6  -1  -7   -0.40    3.00
  -6  -1   7   -0.60    1.30
   6  -1  -7    2.80    2.10
  -6   1   7    2.00    2.10
  -6  -1  -7    3.00    2.60
   6   1  -7   -0.90    3.00
  -6  -1  -7    0.00    2.10
   7  -1  -7    3.30    3.90
   7   1   7    3.30    2.10
  -7  -1   7    5.40    2.20
   7  -1   7    1.20    1.80
   7   1  -7    7.70    4.40
  -7  -1  -7    4.00    2.20
  -7   1   7    0.70    1.60
   8   1   7    2.40    2.50
   8  -1  -7    6.40    4.30
   8   1  -7    9.00    4.60
   8  -1   7    7.30    2.30
   9   1   7    6.90    2.70
   9  -1  -7    2.00    4.00
   9  -1   7    6.00    2.60
   9   1  -7    6.20    4.70
  10   1   7    8.30    3.00
  10  -1  -7    2.20    4.60
  10  -1   7    7.70    2.40
  10   1  -7    0.00    4.20
  11   1   7   14.10    3.20
  11  -1  -7    7.50    4.90
  11   1  -7   -0.70    3.80
  11  -1   7    5.00    2.50
  12  -1  -7    6.00    3.80
  12   1   7    9.10    3.00
  12   1  -7    0.20    3.70
  13   1  -7   -1.50    3.10
   0  -1  -8    3.90    2.10
   0   1  -8    9.40    2.70
   0   1  -8    8.80    3.60
   0  -1  -8   10.10    3.90
   0  -1   8    7.60    2.90
   0   1   8    8.40    3.40
  -1   1  -8   14.20    3.00
   1  -1  -8   14.50    3.10
  -1  -1   8    9.40    3.20
   1   1   8    3.70    2.60
   1  -1  -8    9.40    3.70
  -1   1  -8    9.60    3.60
   1  -1   8    7.20    2.70
  -1  -1  -8   14.70    4.30
   1   1  -8   13.50    4.20
  -1   1   8    8.60    3.20
   1   1  -8    8.00    2.80
  -2  -1   8   -1.30    1.60
   2   1   8    2.00    2.40
   2  -1  -8   -0.60    2.50
   2  -1  -8   -3.00    2.00
  -2   1  -8    5.10    3.20
   2   1  -8   -3.60    2.30
  -2   1   8    2.90    2.20
   2  -1   8    0.60    1.80
  -2  -1  -8   -2.30    2.60
   2   1  -8    2.00    2.80
   3   1   8    1.40    2.00
  -3   1  -8   -0.20    2.40
  -3  -1   8    3.80    2.50
   3  -1  -8    0.20    2.90
   3  -1  -8    1.40    2.80
  -3   1   8    1.70    2.40
  -3  -1  -8    2.20    3.10
   3   1  -8    6.00    3.30
   3   1  -8    4.50    3.10
   3  -1   8    1.20    1.80
  -4  -1   8    2.20    2.00
   4   1   8    3.00    2.50
   4  -1  -8   -4.60    2.50
  -4   1  -8   -1.40    2.30
   4  -1  -8    1.30    2.40
   4   1  -8   -1.30    3.20
  -4   1   8   -1.40    1.80
  -4  -1  -8    0.00    2.70
   4   1  -8    3.80    2.70
   4  -1   8    2.10    2.20
  -5   1  -8   13.00    3.50
   5   1   8   12.10    4.00
   5  -1  -8   13.70    3.70
   5  -1  -8   21.60    5.10
  -5  -1   8   20.50    4.50
   5   1  -8   10.10    3.40
  -5  -1  -8    7.30    3.30
   5   1  -8   13.00    4.40
  -5   1   8   17.10    4.00
   6  -1  -8   -3.20    3.20
  -6   1  -8    8.00    2.20
  -6  -1   8   10.30    3.00
  -6   1   8    5.10    2.40
   6   1  -8    3.50    3.80
  -6  -1  -8    2.60    2.00
   6   1  -8    5.70    2.50
   7  -1  -8   -1.00    3.60
   7   1  -8    4.80    4.30
   8  -1  -8   -1.00    4.00
   8   1  -8   -1.40    4.10
   9  -1  -8    4.70    5.10
   9   1  -8   -6.80    3.70
  10  -1  -8    4.00    4.70
  11  -1  -8    4.70    4.50
  11   1  -8   -6.50    3.40
  12  -1  -8    1.80    4.00
  12   1  -8    2.80    4.20
   0  -1  -9    6.40    2.40
   0   1  -9    0.20    2.10
   0   1   9    9.90    3.40
   0  -1  -9    4.20    3.30
   0  -1   9    4.30    2.60
   0   1  -9    5.70    3.50
  -1   1  -9   -0.30    1.80
   1  -1  -9    0.60    2.90
   1  -1  -9    0.70    2.40
  -1   1  -9    3.70    3.30
  -1  -1   9    1.50    2.10
   1   1   9   -0.70    1.90
   1   1  -9    1.00    2.50
  -1  -1  -9    1.00    3.00
   1  -1   9   -3.20    1.40
  -1   1   9    1.80    2.00
   1   1  -9    2.70    3.00
  -2  -1   9    8.10    3.10
   2  -1  -9    5.30    3.30
   2  -1  -9    9.00    3.70
  -2   1  -9    4.30    3.20
   2   1   9    6.80    2.70
  -2   1   9    9.20    3.40
  -2  -1  -9    6.40    3.40
   2   1  -9    7.80    3.50
   2  -1   9    7.80    2.80
   2   1  -9   11.30    4.00
   3  -1  -9    5.30    3.30
   3  -1  -9    4.50    3.20
  -3   1  -9    2.70    2.80
   3   1   9    3.00    2.50
   3  -1   9    7.00    3.00
  -3  -1  -9    2.70    3.30
  -3   1   9    5.50    2.40
   3   1  -9   10.90    3.70
   3   1  -9    1.30    3.40
   4  -1  -9    1.80    3.30
  -4  -1   9    2.10    2.20
   4   1   9    0.30    1.90
   4  -1  -9   -2.60    1.90
  -4   1  -9    1.20    2.70
  -4  -1  -9   -3.70    2.10
  -4   1   9    6.80    2.70
   4   1  -9    1.50    2.60
   4  -1   9    0.90    1.70
   4   1  -9    4.60    3.60
  -5   1  -9    2.00    3.00
   5  -1  -9    5.10    3.80
   5  -1  -9    4.30    2.60
   5   1  -9    4.30    2.60
  -5  -1  -9   -0.90    2.70
   5   1  -9    2.80    4.00
   6  -1  -9   -3.70    3.30
   6   1  -9   -5.80    3.40
   7  -1  -9    0.10    4.00
   7   1  -9   -0.10    4.40
   8  -1  -9    4.20    4.90
   8   1  -9    0.80    4.50
   9  -1  -9   -2.50    4.50
   9   1  -9    2.40    4.80
  10  -1  -9   10.20    5.30
  10   1  -9    3.60    4.50
  11  -1  -9    3.90    4.90
  11   1  -9    0.00    3.80
   0   1 -10    0.10    2.30
   0  -1 -10    0.10    2.80
   0   1 -10    1.00    2.90
   0  -1  10    0.60    1.80
   0   1  10   -3.20    1.40
   1   1  10    9.70    3.20
   1  -1 -10    8.20    3.70
  -1  -1  10    5.30    2.50
  -1   1 -10   11.50    4.00
   1  -1 -10    6.20    2.90
   1   1 -10    5.30    3.00
   1   1 -10    4.30    3.00
  -1  -1 -10    3.80    3.40
  -1   1  10    0.90    2.00
   1  -1  10    9.60    2.80
   2  -1 -10    7.30    3.60
  -2   1 -10   -0.20    3.10
  -2  -1  10    2.80    1.70
   2  -1 -10    4.10    3.00
   2   1  10    2.60    1.90
   2  -1  10    3.60    2.20
   2   1 -10    0.00    2.80
  -2   1  10    4.80    2.40
   3  -1 -10   13.70    4.10
   3   1 -10   17.40    4.70
   3  -1  10    8.70    2.50
   4  -1 -10    0.80    3.20
   4   1 -10    0.70    3.60
   5  -1 -10    0.20    3.90
   5   1 -10    6.30    4.40
   6  -1 -10    0.00    3.90
   6   1 -10   -2.50    4.20
   7  -1 -10   -0.30    4.30
   7   1 -10    6.70    4.90
   8  -1 -10   -1.40    4.60
   8   1 -10   -0.70    4.70
   9  -1 -10    3.50    4.70
   9   1 -10    2.10    4.90
  10  -1 -10   -3.00    3.90
  10   1 -10    1.60    4.60
  11  -1 -10    6.80    4.70
  11   1 -10   -2.00    3.20
   1   1 -11    0.80    2.70
   2  -1 -11    0.90    2.90
   2   1 -11    4.20    3.60
   3  -1 -11    1.00    3.30
   3   1 -11    6.20    3.70
   4  -1 -11    6.40    4.50
   4   1 -11    3.50    4.20
   5  -1 -11    4.40    4.10
   5   1 -11    1.10    4.20
   6  -1 -11   10.40    5.30
   6   1 -11   11.10    5.20
   7  -1 -11   -1.10    4.20
   7   1 -11   -3.20    4.20
   8  -1 -11    0.60    4.00
   8   1 -11   -1.60    4.60
   9  -1 -11   -2.00    4.10
   9   1 -11   -6.90    4.00
  10  -1 -11    5.90    4.50
  10   1 -11    3.20    4.20
   2   1 -12    6.60    3.60
   3  -1 -12   15.20    4.40
   3   1 -12    8.90    4.20
   4  -1 -12   -2.90    3.30
   4   1 -12    8.40    4.10
   5  -1 -12    2.20    3.90
   5   1 -12    7.10    4.40
   6  -1 -12    0.00    4.20
   6   1 -12   -2.40    3.90
   7  -1 -12    3.90    4.30
   7   1 -12   -2.80    3.70
   8  -1 -12   -3.50    3.80
   8   1 -12    1.40    4.10
   3   1 -13    1.40    2.70
   4   1 -13    4.90    3.50
   5  -1 -13    7.70    4.00
   5   1 -13    0.70    3.90
   6  -1 -13   -3.80    3.00
   6   1 -13   -3.00    3.40
   7  -1 -13   -1.80    3.20
   7   1 -13   -0.70    3.60
   5   1 -14   10.00    4.40
   0  -2   0  788.42   28.00
   0   2   0  657.33   28.00
   0  -2   0  811.52   29.20
   1  -2   0  843.22   31.00
  -1  -2   0  826.52   30.60
  -1   2   0  759.22   30.20
  -1   2   0  849.61   31.00
   1  -2   0  828.72   30.30
  -1  -2   0  821.42   30.60
  -1  -2   0  814.32   31.40
   2  -2   0 7276.57  272.37
   2  -2   0 7225.28  268.47
   2   2   0 7192.18  268.87
  -2  -2   0 7450.15  273.27
   2   2   0 7368.36  273.27
  -2   2   0 7722.03  272.37
  -2  -2   0 7463.05  268.97
  -2   2   0 7338.17  268.47
   3  -2   0  808.62   29.80
   3   2   0  814.02   31.30
  -3  -2   0  814.72   31.40
   3   2   0  753.42   30.40
   3  -2   0  787.82   30.90
   3  -2   0  803.62   30.40
  -3   2   0  837.92   31.00
  -3  -2   0  838.02   31.50
  -4  -2   0  354.06   15.40
   4  -2   0  293.07   14.20
   4   2   0  356.36   14.60
  -4   2   0  362.06   15.00
  -4  -2   0  356.86   14.70
   4  -2   0  342.77   14.00
   5  -2   0  299.97   12.60
   5  -2   0  282.47   12.90
   5   2   0  309.87   13.20
  -5  -2   0  295.97   14.00
  -5   2   0  292.97   13.50
  -5  -2   0  290.87   12.80
   5   2   0  286.07   11.90
   6  -2   0 4846.02  173.68
   6   2   0 4840.72  177.48
   6  -2   0 4941.71  177.48
  -6   2   0 4898.81  180.68
  -6  -2   0 4928.81  182.08
   6   2   0 4761.02  173.08
  -6  -2   0 4974.50  181.38
  -7  -2   0  319.57   13.90
  -7   2   0  319.67   15.70
   7   2   0  308.67   13.50
   7  -2   0  322.67   14.30
   7   2   0  320.97   15.20
   7  -2   0  315.97   15.10
  -7  -2   0  331.57   16.30
  -8  -2   0  186.48   11.10
   8  -2   0  179.18    9.40
   8  -2   0  151.78    9.90
  -8   2   0  160.68   10.40
   8   2   0  172.28   10.40
   9  -2   0  129.89    8.10
  -9   2   0  122.19    9.10
  -9  -2   0  129.49    9.50
   9  -2   0  129.59    9.10
   9   2   0  125.29    9.10
  10   2   0 1707.13   67.39
  10  -2   0 1698.43   67.59
  10  -2   0 1757.32   64.89
  11  -2   0  107.39    9.30
  11   2   0  102.09    9.20
  12   2   0  103.19    9.30
  12  -2   0   82.59    8.80
  13  -2   0   67.09    8.30
  13   2   0   51.09    7.20
  14  -2   0  664.13   31.10
  14   2   0  636.04   30.60
   0   2   1  312.17   12.60
   0  -2  -1  304.87   12.10
   0  -2   1  301.47   12.50
   0  -2  -1  326.47   12.60
   0  -2   1  281.47   11.40
   0   2  -1  285.07   11.40
   0   2  -1  332.97   12.60
   0   2   1  328.37   12.20
  -1  -2   1  733.93   29.80
  -1  -2   1  739.73   28.80
   1   2   1  764.32   29.20
  -1   2  -1  733.73   28.40
   1  -2  -1  742.23   29.00
   1   2   1  731.23   29.70
   1  -2  -1  760.42   29.40
  -1   2  -1  790.22   28.40
  -1   2  -1  807.42   29.40
   1   2  -1  750.12   29.80
  -1   2   1  775.92   29.00
   1  -2   1  802.62   29.40
  -1  -2  -1  818.52   29.20
   1   2  -1  744.73   28.90
  -1   2   1  772.92   29.50
  -1  -2  -1  774.52   29.80
   2  -2  -1  144.49    7.10
   2   2   1  163.98    7.40
  -2   2  -1  174.58    6.70
  -2   2  -1  175.38    6.90
  -2  -2   1  151.28    7.30
   2  -2  -1  146.19    6.70
  -2  -2   1  146.99    7.30
   2   2  -1  145.59    7.30
   2  -2   1  164.38    6.60
  -2  -2  -1  174.78    7.50
   2  -2   1  174.58    6.90
  -2  -2  -1  164.08    7.40
  -2   2   1  150.98    7.20
  -2   2   1  142.29    6.60
   2   2  -1  146.99    7.20
  -3  -2   1 1111.29   41.60
  -3   2  -1 1122.09   40.50
   3  -2  -1 1051.69   40.40
   3  -2  -1 1074.39   40.50
  -3  -2   1 1129.19   41.80
   3  -2  -1 1075.19   39.80
   3   2   1 1178.28   40.60
   3  -2  -1 1051.89   41.20
  -3   2  -1 1158.38   41.10
   3   2   1 1035.80   41.60
  -3  -2  -1 1080.29   41.60
  -3   2   1 1120.49   41.30
   3  -2   1  999.80   40.40
   3   2  -1  996.70   39.50
  -3  -2  -1 1128.39   41.80
   3  -2   1 1024.80   40.90
   3  -2   1 1084.29   40.30
   3  -2   1 1135.59   39.60
   3   2  -1 1033.80   41.60
   3   2  -1 1043.00   40.30
  -4   2  -1  195.88    9.00
  -4  -2   1  175.58    9.20
  -4  -2   1  178.68    8.50
   4   2   1  190.98    8.70
   4  -2  -1  172.98    8.40
   4  -2  -1  179.18    8.50
  -4   2   1  180.78    9.10
  -4  -2  -1  180.28    9.30
   4   2  -1  188.28    8.60
   4   2  -1  177.18    8.10
  -4  -2  -1  176.18    8.50
   4  -2   1  191.48    8.20
   4  -2   1  175.68    8.40
   5   2   1  371.36   16.20
  -5  -2   1  384.96   16.00
   5  -2  -1  355.86   16.00
   5  -2  -1  377.26   15.80
  -5   2  -1  386.86   16.70
  -5  -2   1  379.96   17.10
   5   2  -1  361.86   15.20
  -5   2   1  378.66   16.90
   5   2  -1  387.56   16.10
   5  -2   1  400.26   15.50
  -5  -2  -1  365.86   17.10
   5  -2   1  382.66   16.10
  -5  -2  -1  363.66   15.90
   6   2   1   70.19    4.10
  -6  -2   1   72.59    6.00
   6  -2  -1   75.79    5.50
  -6  -2   1   80.09    4.80
   6  -2  -1   74.89    5.40
  -6   2  -1   74.29    5.70
   6   2   1   67.39    5.30
  -6   2   1   69.69    5.70
  -6  -2  -1   69.59    4.60
   6  -2   1   73.19    4.90
   6   2  -1   68.19    5.30
   6  -2   1   73.29    5.40
   6   2  -1   75.39    4.90
  -6  -2  -1   66.39    5.80
  -7  -2   1  382.76   18.50
   7   2   1  395.66   17.50
   7  -2  -1  372.16   17.30
  -7  -2   1  397.56   16.40
  -7   2  -1  371.46   17.80
   7  -2  -1  390.86   16.80
   7   2  -1  351.26   17.00
   7  -2   1  353.76   15.90
   7   2  -1  373.26   16.10
  -7  -2  -1  377.76   16.20
  -7  -2  -1  391.46   18.60
   7  -2   1  377.66   17.20
  -7   2   1  383.06   18.20
   8  -2  -1   70.39    6.20
  -8   2  -1   65.79    6.10
   8   2   1   66.39    6.30
  -8  -2   1   70.89    6.50
   8  -2  -1   68.59    5.70
   8  -2   1   68.89    5.20
   8   2  -1   73.79    5.50
   8  -2   1   72.59    6.40
  -8  -2  -1   62.69    6.50
  -8   2   1   58.19    6.20
   8   2  -1   65.99    6.20
  -9   2  -1  250.37   14.40
  -9  -2   1  262.97   15.00
   9  -2  -1  254.17   14.20
   9   2   1  264.57   14.40
   9  -2  -1  261.97   13.40
  -9   2   1  261.47   14.80
   9  -2   1  256.27   14.20
   9   2  -1  273.97   12.80
  -9  -2  -1  250.37   15.00
   9  -2   1  265.47   12.70
   9   2  -1  278.67   14.40
  10  -2  -1   38.80    5.10
  10  -2  -1   44.80    6.90
  10   2   1   42.70    6.90
 -10   2  -1   38.50    4.60
  10  -2   1   41.70    5.80
  10   2  -1   39.90    6.30
  11  -2  -1  107.69    9.30
  11   2   1  101.89    9.00
  11  -2  -1  101.69    8.00
  11  -2   1  118.79    9.70
  11   2  -1   98.39    8.90
  12  -2  -1   17.00    5.50
  12   2   1   19.90    5.50
  12   2  -1   26.60    5.90
  12  -2   1   27.90    6.40
  13   2   1  118.39   10.10
  13  -2  -1  113.29   10.40
  13  -2   1  112.89   10.00
  13   2  -1  126.29   10.30
  14  -2  -1   21.00    5.80
  14   2   1   22.10    5.60
  14   2  -1   23.30    5.20
  14  -2   1   32.70    6.60
   0   2   2 7902.11  281.87
   0   2   2 7224.98  286.47
   0  -2  -2 7875.41  286.57
   0   2  -2 8053.69  281.17
   0  -2   2 7489.25  286.37
   0  -2  -2 8140.79  281.87
   0   2  -2 7585.94  286.37
   0  -2   2 7638.34  281.07
  -1  -2   2  416.06   16.00
   1   2   2  392.56   16.70
  -1   2  -2  417.26   16.40
  -1  -2   2  401.96   16.70
  -1   2  -2  424.36   15.70
   1  -2  -2  412.66   16.60
   1  -2  -2  411.96   16.40
   1   2   2  421.36   16.60
  -1  -2  -2  410.36   16.80
  -1   2   2  375.86   16.40
   1  -2   2  416.36   15.70
  -1   2   2  420.36   16.40
   1   2  -2  408.46   16.70
   1   2  -2  398.16   16.00
   1  -2   2  433.36   16.50
  -1  -2  -2  402.46   16.40
  -2  -2   2 1838.42   79.49
  -2   2  -2 2106.89   80.49
  -2  -2   2 2156.98   81.19
   2   2   2 2201.18   78.39
   2  -2  -2 1886.31   80.59
   2   2   2 2227.18   81.29
  -2   2  -2 2288.67   79.39
  -2   2  -2 2250.07   79.29
   2  -2  -2 2044.00   76.99
   2   2   2 2287.47   80.29
   2  -2   2 2368.26   80.69
  -2  -2  -2 1991.60   81.19
  -2   2   2 2265.57   80.09
   2   2  -2 2149.08   79.79
   2   2  -2 2180.48   81.19
   2   2  -2 2198.08   77.19
   3  -2  -2  673.93   25.70
  -3   2  -2  643.04   26.20
   3  -2  -2  680.83   26.00
  -3  -2   2  699.73   27.00
  -3  -2   2  689.23   26.90
   3  -2  -2  695.13   26.20
  -3   2  -2  729.23   26.10
   3  -2  -2  669.53   25.90
  -3   2  -2  620.54   26.00
   3   2   2  663.93   25.90
  -3  -2  -2  669.93   26.80
   3   2  -2  681.33   25.70
   3   2  -2  691.43   25.60
   3  -2   2  653.73   25.20
  -3   2   2  699.83   26.90
   3  -2   2  672.43   25.80
   4  -2  -2 7233.68  238.98
  -4  -2   2 6299.17  250.57
  -4   2  -2 6913.81  249.48
   4  -2  -2 6331.07  249.48
   4  -2  -2 6406.36  249.38
   4   2   2 6412.06  242.98
  -4   2  -2 6821.42  249.48
  -4  -2   2 7211.48  247.68
  -4   2  -2 6880.31  246.98
   4  -2  -2 6152.18  242.78
   4   2  -2 6485.15  242.68
   4  -2   2 7491.35  238.28
  -4  -2  -2 7160.78  250.77
   4  -2   2 6603.04  242.78
  -4  -2  -2 7728.03  248.08
   4   2  -2 6221.68  238.38
  -4   2   2 6427.86  247.28
  -5   2  -2  166.58    6.50
   5  -2  -2  155.98    8.10
  -5  -2   2  160.18    8.00
   5  -2  -2  156.58    8.20
  -5  -2   2  152.68    8.90
  -5   2  -2  152.38    8.50
  -5   2  -2  158.38    6.50
   5  -2  -2  154.68    6.60
   5   2   2  152.68    8.20
  -5  -2  -2  151.98    8.00
   5  -2   2  153.58    7.40
   5   2  -2  164.38    8.10
   5  -2   2  150.48    7.90
  -5   2   2  157.78    8.80
  -5  -2  -2  154.88    8.90
   5   2  -2  159.68    7.90
   6   2   2  385.86   17.50
  -6  -2   2  414.16   18.80
   6  -2  -2  412.96   17.40
  -6  -2   2  399.66   17.10
   6  -2  -2  420.46   17.60
  -6  -2  -2  400.66   17.20
  -6  -2  -2  349.27   18.40
  -6   2   2  403.46   18.50
   6  -2   2  411.26   16.40
   6   2  -2  398.26   17.30
   6   2  -2  391.96   16.80
   6  -2   2  407.36   17.40
  -7  -2   2  248.38   11.80
   7  -2  -2  269.37   12.80
  -7   2  -2  270.67   13.60
   7  -2  -2  229.48   12.50
   7   2   2  263.97   13.00
  -7  -2   2  263.07   14.10
  -7  -2  -2  251.67   11.80
  -7   2   2  274.27   13.90
  -7  -2  -2  253.17   13.90
   7   2  -2  259.87   12.70
   7   2  -2  254.77   12.10
   7  -2   2  256.07   11.50
   7  -2   2  237.48   12.60
  -8   2  -2 3496.75  134.59
   8  -2  -2 3674.83  132.09
   8  -2  -2 3592.24  129.29
  -8  -2   2 3631.54  135.49
   8   2   2 3531.45  131.99
  -8  -2  -2 3486.65  135.29
   8  -2   2 3512.65  127.99
   8   2  -2 3561.94  128.69
   8   2  -2 3610.14  131.79
   8  -2   2 3583.64  131.99
  -9   2  -2  100.19    8.00
  -9  -2   2  122.19    9.00
   9   2   2   88.99    7.90
   9  -2  -2  110.09    8.00
   9  -2  -2  106.39    8.30
  -9   2   2   94.89    8.00
   9  -2   2  112.99    8.50
   9   2  -2  100.29    7.30
   9   2  -2  101.59    8.00
  -9  -2  -2   86.39    8.20
  10  -2  -2  157.38   10.00
  10  -2  -2  143.99   10.30
  10   2   2  143.29   10.40
  10   2  -2  148.29   10.40
  10   2  -2  167.18    9.60
  10  -2   2  129.39   10.00
  11   2   2   58.19    7.30
  11  -2  -2   67.69    6.80
  11  -2  -2   82.39    7.80
  11  -2   2   52.29    7.00
  11   2  -2   73.19    7.50
  12   2   2 1344.67   55.69
  12  -2  -2 1301.97   55.49
  12  -2   2 1402.96   55.99
  12   2  -2 1354.16   55.19
  13  -2  -2   54.79    7.20
  13   2   2   65.29    7.30
  13  -2   2   58.69    7.30
  13   2  -2   60.99    7.30
  14   2   2   91.59    8.40
  14  -2  -2   85.39    8.50
  14  -2   2   70.89    8.00
  14   2  -2   79.59    7.80
   0  -2   3  566.54   21.20
   0   2   3  551.74   22.20
   0  -2   3  555.04   22.50
   0   2  -3  549.25   21.50
   0  -2   3  544.25   21.50
   0  -2  -3  586.24   22.70
   1  -2  -3 1122.79   42.50
  -1  -2   3 1182.98   44.00
  -1  -2   3 1151.48   45.10
   1   2   3 1160.08   44.60
  -1   2  -3 1147.19   43.60
   1  -2  -3 1181.98   45.10
   1   2  -3 1152.78   44.00
  -1   2   3 1150.08   44.50
   1  -2   3 1261.37   43.90
   1  -2   3 1137.19   42.40
  -1  -2  -3 1234.78   45.50
   1  -2   3 1136.59   44.90
   2  -2  -3  229.78   11.00
  -2   2  -3  270.87   10.60
  -2  -2   3  239.18   11.20
   2   2   3  256.57   10.50
   2  -2  -3  222.38   10.60
  -2  -2   3  236.38   10.90
   2  -2  -3  231.08   10.50
  -2   2  -3  263.37   10.80
   2  -2  -3  233.78   10.60
   2   2   3  271.47   11.60
   2  -2   3  281.67   10.80
   2   2  -3  228.58   10.70
  -2  -2  -3  265.17   11.60
  -2   2   3  229.68   11.20
   2  -2   3  280.07   11.00
   2  -2   3  250.27   10.10
  -3   2  -3  564.14   21.70
  -3   2  -3  544.35   22.00
   3  -2  -3  536.05   21.50
   3  -2  -3  547.75   21.40
   3  -2  -3  545.15   22.00
   3  -2  -3  519.15   21.60
   3   2   3  547.25   22.80
  -3  -2   3  521.15   22.30
   3   2   3  568.34   21.50
  -3  -2   3  545.25   22.50
  -3   2   3  538.05   22.50
   3   2  -3  540.25   21.50
   3  -2   3  563.74   21.20
  -3  -2  -3  553.94   22.60
   3  -2   3  543.35   20.70
  -4   2  -3  280.07   11.70
   4  -2  -3  281.57   12.00
  -4  -2   3  264.87   12.60
   4   2   3  296.07   12.40
   4  -2  -3  238.78   11.50
  -4  -2   3  263.67   13.00
   4  -2  -3  291.97   12.60
  -4   2  -3  311.67   12.00
   4  -2  -3  275.87   12.20
  -4   2  -3  298.57   12.80
   4  -2   3  294.07   12.10
   4  -2   3  297.47   11.60
  -4  -2  -3  276.97   13.50
   4   2  -3  254.87   11.70
   4   2  -3  259.37   12.20
  -4  -2  -3  297.47   12.90
  -4   2   3  278.37   13.20
   5  -2  -3  715.73   28.70
   5   2   3  737.43   29.40
  -5  -2   3  748.63   30.00
   5  -2  -3  736.33   29.20
  -5  -2   3  768.42   30.90
  -5   2  -3  792.72   28.90
  -5   2  -3  712.03   28.60
  -5   2  -3  733.23   30.10
   5  -2  -3  730.63   29.10
   5  -2  -3  760.82   28.90
  -5  -2  -3  748.53   30.00
  -5   2   3  727.23   30.60
   5   2  -3  703.43   28.80
   5  -2   3  758.62   29.10
  -5  -2  -3  744.03   30.90
   5   2  -3  722.23   28.80
   5  -2   3  740.63   27.90
   6  -2  -3  146.29    8.50
   6  -2  -3  129.29    6.70
   6   2   3  150.28    8.40
  -6  -2   3  141.19    7.80
   6  -2  -3  142.19    8.10
  -6   2  -3  148.69    8.70
  -6  -2   3  150.08    9.40
   6  -2   3  146.99    8.10
   6   2  -3  141.99    7.90
  -6   2   3  139.79    9.00
   6  -2   3  143.69    7.10
   6   2  -3  144.69    8.20
  -6  -2  -3  153.68    8.00
  -6  -2  -3  147.69    9.30
   7  -2  -3  332.07   15.70
   7  -2  -3  342.27   15.70
  -7   2  -3  327.47   16.40
   7   2   3  321.67   15.70
  -7  -2   3  354.56   17.30
  -7  -2   3  324.97   15.00
   7   2  -3  337.07   15.40
  -7   2   3  339.47   17.00
  -7  -2  -3  330.27   15.10
   7  -2   3  320.97   15.60
  -7  -2  -3  342.17   17.30
   7   2  -3  332.37   15.30
   8  -2  -3   74.49    6.80
   8   2   3   85.89    7.00
  -8  -2   3   77.19    7.20
   8  -2  -3   84.79    6.80
  -8   2  -3   82.89    7.00
   8   2  -3   78.79    6.50
   8   2  -3   76.59    6.50
  -8   2   3   88.59    7.20
   8  -2   3   76.29    6.70
  -8  -2  -3   83.39    7.40
   9  -2  -3  230.08   12.80
   9  -2  -3  240.68   13.00
  -9   2  -3  204.88   12.90
  -9  -2   3  232.18   13.80
   9   2   3  222.68   12.90
   9  -2   3  214.68   12.80
   9   2  -3  207.08   12.10
  -9  -2  -3  219.58   13.70
   9   2  -3  234.28   12.60
  10  -2  -3   71.99    7.30
  10   2   3   72.79    7.30
  10  -2  -3   65.09    7.00
  10   2  -3   66.99    6.80
  10  -2   3   63.99    7.00
  10   2  -3   61.09    6.40
  11   2   3  167.38   11.90
  11  -2  -3  151.78   11.50
  11  -2  -3  168.38   11.30
  11  -2   3  191.98   12.50
  11   2  -3  184.58   11.70
  11   2  -3  171.08   10.80
  12  -2  -3   40.50    5.70
  12  -2  -3   44.20    7.20
  12   2   3   31.70    7.00
  12  -2   3   35.30    6.70
  12   2  -3   38.00    6.30
  13   2   3   84.89    8.10
  13  -2  -3   86.69    8.30
  13   2  -3   80.19    7.60
  13  -2   3   72.89    8.00
  14   2   3   52.19    6.10
  14  -2  -3   43.10    5.80
  14   2  -3   37.30    4.90
  14  -2   3   31.70    6.20
   0   2  -4  338.37   14.50
   0  -2   4  349.87   14.30
   0  -2   4  363.26   14.70
   0  -2   4  361.66   15.40
   0  -2  -4  360.66   15.70
   0   2   4  340.77   15.30
  -1  -2   4  517.65   20.40
  -1   2  -4  495.85   20.00
   1  -2  -4  511.55   21.20
   1   2   4  497.15   21.00
  -1  -2   4  518.65   21.20
   1  -2  -4  503.65   19.60
   1  -2   4  511.95   20.20
  -1  -2  -4  516.05   21.40
   1  -2   4  515.95   21.00
   1   2  -4  502.95   20.00
  -1   2   4  503.95   21.00
   1  -2   4  496.95   19.60
   2   2   4 6926.11  247.18
   2  -2  -4 6213.28  250.37
  -2  -2   4 6591.14  246.48
   2  -2  -4 6368.86  238.08
   2   2   4 6945.50  242.08
  -2  -2   4 6549.14  250.67
  -2   2   4 6696.93  241.88
   2  -2   4 7320.47  237.68
   2  -2   4 7289.07  246.38
  -2   2   4 6662.33  246.98
   2  -2   4 6819.82  250.37
  -2  -2  -4 6479.95  250.77
   3  -2  -4  615.64   24.30
   3  -2  -4  581.84   23.80
  -3  -2   4  637.84   25.30
  -3   2  -4  592.34   25.00
   3   2   4  583.94   23.90
  -3  -2   4  639.24   25.50
   3  -2  -4  640.84   25.20
   3  -2   4  637.34   25.00
   3  -2   4  589.34   23.20
   3   2  -4  656.33   24.60
  -3   2   4  648.74   25.70
   3  -2   4  605.04   23.60
  -3  -2  -4  606.64   25.50
  -4  -2   4  431.86   18.90
   4  -2  -4  428.16   17.90
  -4   2  -4  430.16   18.70
   4   2   4  445.66   18.10
  -4   2  -4  444.46   18.30
  -4  -2   4  423.16   19.20
   4  -2  -4  434.86   18.40
   4  -2  -4  440.26   18.50
   4   2   4  454.55   19.80
   4   2  -4  422.46   17.40
  -4   2   4  433.06   19.40
   4  -2   4  429.26   17.00
   4  -2   4  437.56   17.70
   4   2  -4  436.26   18.40
  -4  -2  -4  452.85   19.20
  -5  -2   4  218.18   10.90
  -5   2  -4  209.08   11.00
   5   2   4  224.18   10.70
   5  -2  -4  209.08   10.20
  -5   2  -4  216.38   10.00
  -5  -2   4  216.28   11.60
   5  -2  -4  216.38   10.40
   5  -2  -4  225.88   11.20
   5  -2   4  219.78   10.30
   5  -2   4  212.78    9.40
  -5  -2  -4  218.18   12.00
  -5   2   4  211.28   11.70
  -5  -2  -4  227.18   11.00
   5   2  -4  217.08   10.00
   5   2  -4  209.58   10.90
   6  -2  -4 3721.73  134.19
  -6   2  -4 3861.71  138.99
  -6  -2   4 3606.24  139.89
  -6  -2   4 3766.62  139.69
   6  -2  -4 3626.64  135.89
   6  -2  -4 3580.74  138.79
  -6  -2  -4 3878.91  139.99
   6   2  -4 3602.24  135.29
   6   2  -4 3647.64  133.89
  -6  -2  -4 3797.52  140.09
   6  -2   4 3809.12  135.79
  -6   2   4 3676.43  139.49
   7   2   4  264.57   13.60
   7  -2  -4  277.47   13.60
  -7   2  -4  277.77   14.50
  -7  -2   4  288.67   15.30
  -7  -2   4  257.97   13.00
   7  -2  -4  260.47   13.80
  -7  -2  -4  275.87   13.20
  -7   2   4  308.07   15.30
   7  -2   4  264.27   13.40
   7   2  -4  276.67   13.10
   7   2  -4  267.97   13.70
  -7  -2  -4  265.97   14.90
   8   2   4  289.57   15.20
  -8  -2   4  313.47   16.80
   8  -2  -4  312.67   15.60
   8  -2  -4  305.27   15.10
  -8   2  -4  300.77   15.80
  -8  -2  -4  309.87   16.80
   8   2  -4  288.07   14.50
  -8   2   4  291.67   16.30
   8  -2   4  291.77   14.90
   8   2  -4  285.67   15.00
  -9   2  -4  111.49    8.50
   9   2   4  116.99    8.90
   9  -2  -4  108.79    8.50
   9  -2  -4  126.89    9.30
  -9   2   4  103.09    9.20
   9   2  -4  112.49    8.60
   9  -2   4  119.99    8.80
   9   2  -4  105.79    8.00
  10  -2  -4 1486.05   56.79
  10   2   4 1457.25   57.59
  10  -2  -4 1447.86   57.49
  10   2  -4 1342.87   56.39
  10  -2   4 1444.36   57.49
  10   2  -4 1458.05   56.19
  11   2   4   88.09    8.60
  11  -2  -4   85.49    8.10
  11  -2  -4   82.29    8.00
  11   2  -4   73.89    7.20
  11  -2   4   78.69    8.20
  11   2  -4   81.89    7.60
  12   2   4   90.99    8.90
  12  -2  -4   99.19    8.60
  12  -2  -4   82.69    8.20
  12  -2   4   93.99    8.70
  12   2  -4   95.49    7.90
  13  -2  -4   69.89    7.20
  13   2   4   86.09    7.90
  13  -2  -4   69.99    7.10
  13   2  -4   66.09    6.40
  13  -2   4   74.29    7.60
  14   2   4  678.43   31.10
  14  -2  -4  660.63   30.80
   0  -2   5   69.19    4.60
   0  -2   5   74.79    5.20
   0  -2  -5   70.19    4.10
   0   2  -5   65.09    4.50
   0  -2  -5   65.49    5.40
   0   2   5   66.39    5.10
  -1  -2   5  397.16   17.20
   1  -2  -5  429.86   18.30
  -1  -2   5  399.36   18.00
   1   2   5  386.26   16.00
   1  -2  -5  390.56   16.40
  -1  -2  -5  398.66   18.20
   1  -2   5  428.26   17.30
   1  -2   5  413.96   16.50
  -1   2   5  409.26   18.00
   1   2  -5  408.86   17.00
   1  -2   5  426.16   18.00
   2   2   5   60.89    3.90
   2  -2  -5   70.49    5.40
  -2  -2   5   66.49    4.90
  -2  -2   5   70.09    5.10
   2   2   5   77.39    5.60
   2  -2  -5   68.89    4.80
  -2   2   5   60.39    3.80
  -2   2   5   69.49    5.30
   2   2  -5   65.19    4.90
  -2  -2  -5   74.59    5.80
   2  -2   5   77.79    4.90
   2  -2   5   69.79    4.20
  -3  -2   5  712.13   30.60
   3  -2  -5  731.93   30.50
   3  -2  -5  714.53   29.10
   3   2   5  764.02   28.80
   3   2   5  759.22   31.00
  -3  -2   5  747.03   30.40
  -3   2  -5  854.81   31.00
   3  -2   5  701.33   28.10
  -3   2   5  724.53   30.70
  -3  -2  -5  769.32   31.10
   3   2  -5  740.23   29.40
   3  -2   5  724.33   28.00
   3  -2   5  762.82   30.10
   4   2   5   93.79    6.90
  -4  -2   5   80.79    6.20
   4   2   5   95.59    5.60
   4  -2  -5   82.69    6.30
  -4   2  -5   85.39    5.80
   4  -2  -5   76.49    5.80
   4  -2  -5   81.09    5.00
  -4  -2   5   77.69    5.90
  -4  -2  -5   82.29    6.30
   4  -2   5   91.39    5.00
   4   2  -5   93.39    6.40
  -4   2   5   80.99    6.40
   4  -2   5   92.69    4.80
   5  -2  -5  232.78   12.20
  -5   2  -5  239.08   11.40
   5  -2  -5  241.98   11.70
  -5  -2   5  237.88   12.70
  -5   2  -5  239.08   12.30
  -5  -2   5  228.38   11.90
   5  -2  -5  235.18   11.10
   5   2   5  251.27   11.50
  -5  -2  -5  244.88   13.20
  -5  -2  -5  243.88   12.40
  -5   2   5  225.98   12.80
   5   2  -5  226.08   10.50
   5  -2   5  235.78   11.00
   5   2  -5  226.88   12.00
   6   2   5   36.60    4.20
   6  -2  -5   44.20    5.40
   6  -2  -5   38.50    4.00
   6  -2  -5   39.60    3.90
  -6   2  -5   43.60    4.60
  -6  -2   5   38.90    4.00
  -6  -2   5   35.60    4.90
   6   2  -5   40.70    3.60
   6  -2   5   43.10    4.10
  -6  -2  -5   41.00    5.30
   6   2  -5   44.10    5.30
  -6  -2  -5   42.10    4.30
  -6   2   5   31.20    4.60
  -7  -2   5  271.37   14.20
  -7  -2   5  307.77   16.20
  -7   2  -5  302.57   15.60
   7  -2  -5  286.87   14.30
   7   2   5  296.07   14.60
   7  -2  -5  304.07   15.30
   7   2  -5  303.57   15.10
   7  -2   5  303.17   14.40
   7   2  -5  285.77   13.60
  -7  -2  -5  293.67   14.40
  -7  -2  -5  302.27   16.20
  -7   2   5  306.07   16.20
  -8  -2   5   43.50    5.50
   8  -2  -5   38.40    4.70
   8  -2  -5   50.29    6.90
   8   2   5   52.39    5.70
  -8   2  -5   43.60    5.00
   8   2  -5   41.10    4.40
  -8   2   5   33.70    5.00
   8   2  -5   49.70    7.00
  -8  -2  -5   47.40    5.60
   8  -2   5   43.40    5.10
  -9   2  -5  218.98   13.20
   9  -2  -5  194.98   12.80
   9   2   5  231.48   13.00
   9  -2  -5  207.18   12.30
   9   2  -5  223.18   13.20
   9  -2   5  230.48   12.70
   9   2  -5  217.78   11.80
  10  -2  -5   24.40    6.00
  10  -2  -5   21.60    5.00
  10   2   5   18.40    5.10
  10   2  -5   34.00    4.30
  10   2  -5   21.80    5.30
  10  -2   5   27.30    5.20
  11  -2  -5   53.79    6.20
  11   2   5   70.99    7.70
  11  -2  -5   56.19    7.40
  11  -2   5   75.29    7.40
  11   2  -5   60.89    7.10
  11   2  -5   63.49    6.80
  12   2   5   13.90    4.30
  12  -2  -5    8.70    4.70
  12  -2  -5   15.40    4.10
  12   2  -5   13.50    4.20
  12  -2   5    7.40    3.90
  13  -2  -5   89.19    7.90
  13   2   5  120.49    9.10
  13  -2  -5   90.09    8.30
  13  -2   5  109.39    9.00
   0  -2  -6 5083.29  182.48
   0   2  -6 5163.48  183.28
   0  -2   6 5212.18  193.48
   0   2   6 5026.00  190.38
   0  -2   6 5264.57  189.68
   0  -2  -6 5182.48  193.58
   1  -2  -6  211.08   11.30
   1   2   6  206.08   11.10
  -1  -2   6  207.38   10.50
   1  -2  -6  212.98    9.80
  -1  -2   6  205.78   10.90
  -1   2  -6  210.28    9.80
   1   2   6  189.28    8.70
  -1  -2  -6  214.68   11.50
   1  -2   6  207.58   10.30
   1   2  -6  216.78   10.30
  -1  -2  -6  195.78    8.80
   1  -2   6  215.48   11.10
   2  -2  -6  397.86   18.10
  -2   2  -6  389.46   18.10
   2   2   6  389.56   17.90
   2  -2  -6  381.56   16.50
  -2  -2   6  376.36   17.80
  -2  -2   6  387.36   17.30
   2   2   6  352.06   15.40
  -2  -2  -6  375.86   18.10
   2   2  -6  391.26   17.00
   2  -2   6  400.46   17.20
  -2   2   6  408.96   18.10
   3  -2  -6  245.38   11.80
   3   2   6  237.28   10.50
   3  -2  -6  241.98   12.40
  -3   2  -6  242.98   12.40
   3   2   6  231.28   12.50
  -3  -2   6  236.48   12.30
  -3  -2   6  226.68   12.00
   3  -2   6  243.08   11.90
   3   2  -6  249.18   12.00
   3  -2   6  240.58   10.40
  -3   2   6  229.68   12.40
  -3  -2  -6  244.08   12.80
  -3   2   6  204.08   10.10
  -4  -2   6 3686.63  140.59
   4  -2  -6 3712.03  135.69
   4   2   6 3792.32  136.89
  -4   2  -6 3942.81  142.39
   4   2   6 3647.33  140.99
  -4  -2   6 3717.63  142.49
   4  -2  -6 3743.43  142.29
   4  -2   6 3896.01  140.49
   4   2  -6 3776.52  135.99
  -4  -2  -6 3794.32  142.69
   4  -2   6 3666.13  136.39
  -4   2   6 3760.32  141.19
  -5  -2   6  109.79    7.70
  -5   2  -6  125.49    7.70
   5   2   6  115.19    8.80
  -5  -2   6  125.19    8.40
   5  -2  -6  120.89    6.80
   5  -2  -6  123.59    7.90
   5  -2  -6  112.29    8.10
   5   2   6  116.39    7.00
  -5   2  -6  120.09    7.90
  -5   2   6  122.79    8.60
  -5  -2  -6  117.39    8.00
   5  -2   6  119.89    6.60
   5   2  -6  117.99    8.30
  -6  -2   6  288.47   15.40
   6   2   6  294.87   13.80
  -6  -2   6  266.97   14.20
  -6   2  -6  297.17   15.00
   6  -2  -6  273.37   13.20
   6  -2  -6  284.47   14.80
  -6  -2  -6  299.27   15.90
   6  -2   6  296.47   13.40
  -6  -2  -6  303.07   14.80
   6   2  -6  283.57   14.80
  -6   2   6  266.47   15.30
  -7   2  -6  139.79    9.20
   7  -2  -6  140.29    8.20
   7  -2  -6  143.19   10.10
  -7  -2   6  136.89    8.70
   7   2   6  137.89    8.70
  -7  -2   6  148.09   10.20
   7   2  -6  139.79    9.80
  -7  -2  -6  129.79    9.80
   7  -2   6  133.79    8.30
  -7   2   6  141.79   10.10
  -7  -2  -6  111.79    8.80
   8  -2  -6 1894.61   72.09
   8   2   6 1813.72   71.89
  -8   2  -6 1845.42   74.49
   8  -2  -6 1870.41   71.69
   8   2  -6 1895.51   72.09
   8  -2   6 1956.70   71.89
   9   2   6   61.79    6.40
   9  -2  -6   65.19    7.80
   9  -2  -6   57.39    5.70
   9   2  -6   55.99    7.20
   9  -2   6   61.79    6.10
  10  -2  -6  100.99    9.50
  10   2   6   99.79    8.50
  10  -2   6  115.89    8.40
  10   2  -6   91.69    8.90
  11  -2  -6   49.40    7.80
  11   2   6   53.09    6.60
  11  -2   6   58.29    6.20
  11   2  -6   51.39    7.80
  12  -2  -6  966.60   41.50
  12   2   6  956.70   41.10
  12   2  -6  983.60   40.80
  12  -2   6  950.20   41.00
  13  -2  -6   36.80    6.30
  13   2   6   50.29    5.40
  13  -2   6   34.50    4.90
   0  -2   7  135.69    8.10
   0   2  -7  138.49    7.90
   0  -2  -7  149.69    7.40
   0   2   7  128.49    8.70
   0  -2  -7  144.29    9.40
  -1   2  -7  342.67   15.00
  -1   2  -7  342.27   17.30
  -1  -2   7  339.57   16.80
  -1  -2   7  347.87   16.20
   1  -2  -7  349.37   17.20
   1  -2  -7  358.26   15.10
   1   2   7  339.57   16.70
  -1   2   7  359.26   17.00
   1   2  -7  345.27   15.60
  -1  -2  -7  341.87   17.10
   1  -2   7  340.97   15.90
  -2  -2   7  110.69    8.00
   2  -2  -7  119.59    7.30
   2  -2  -7  109.69    8.30
  -2  -2   7  109.09    7.40
   2   2   7  119.09    8.10
  -2   2  -7  117.39    6.60
  -2   2  -7  105.99    8.20
  -2   2   7  112.89    8.00
   2   2  -7  112.29    7.60
   2  -2   7  119.09    7.40
  -2  -2  -7  122.59    8.60
  -3   2  -7  345.97   16.90
   3   2   7  332.07   16.90
  -3  -2   7  327.17   16.70
   3  -2  -7  331.97   16.80
   3  -2  -7  341.77   15.80
  -3   2  -7  338.17   14.50
  -3  -2   7  335.17   16.30
  -3  -2  -7  329.97   17.00
   3  -2   7  358.86   16.30
   3   2  -7  351.46   16.10
  -4  -2   7  107.49    8.10
   4   2   7  120.59    6.60
  -4  -2   7  110.99    8.10
   4  -2  -7  104.59    8.10
  -4   2  -7  131.79    8.60
   4   2   7  141.19    9.10
   4  -2  -7  120.19    8.30
   4   2  -7  122.09    8.50
  -4  -2  -7  110.09    8.40
  -4   2   7  119.99    8.70
   4  -2   7  123.59    8.30
   5  -2  -7  231.68   12.90
   5   2   7  229.68   13.80
  -5  -2   7  231.98   13.40
   5   2   7  240.88   11.50
  -5  -2   7  264.87   13.50
  -5   2  -7  253.27   13.00
  -5   2  -7  219.98   12.90
   5  -2  -7  252.47   13.30
  -5   2   7  240.18   13.80
   5   2  -7  248.08   13.30
  -5  -2  -7  227.48   13.10
  -6   2  -7   79.29    6.30
   6  -2  -7   64.79    7.20
  -6  -2   7   72.59    6.60
   6   2   7   86.99    6.00
  -6  -2   7   86.99    7.20
  -6  -2  -7   73.79    6.60
  -6   2   7   81.39    7.30
  -6  -2  -7   68.09    7.00
   6   2  -7   68.59    7.40
  -7  -2   7  223.58   13.50
  -7   2  -7  218.98   12.50
   7  -2  -7  188.28   12.50
   7   2   7  215.18   11.50
  -7  -2  -7  188.78   13.10
   7   2  -7  220.88   13.10
   8   2   7   71.09    6.30
   8  -2  -7   62.99    7.60
   8   2  -7   54.09    7.40
   9  -2  -7  114.09   10.60
   9   2   7  150.58    9.50
   9   2  -7  131.59   10.90
  10  -2  -7   44.10    7.70
  10   2   7   58.99    5.90
  10   2  -7   49.10    8.00
  11  -2  -7   66.89    8.50
  11   2   7   98.49    7.50
  11   2  -7   87.39    9.00
  12  -2  -7   28.70    5.70
  12   2   7   33.50    4.40
  12   2  -7   33.50    6.70
   0   2  -8  183.58    9.90
   0  -2   8  175.88   10.40
   0  -2  -8  188.68   11.80
   0   2   8  199.58   11.50
   0  -2  -8  187.58    9.20
   0   2  -8  169.28   11.50
   1   2   8  177.48   11.00
   1  -2  -8  180.88    9.50
  -1   2  -8  180.28   11.40
  -1  -2   8  179.38   10.30
  -1   2  -8  184.28    9.40
   1  -2  -8  194.78   11.80
  -1   2   8  182.58   11.00
  -1  -2  -8  177.88   11.50
   1  -2   8  168.38   10.10
   1   2  -8  154.98    9.70
   2   2   8 3499.95  135.19
  -2  -2   8 3605.84  134.49
   2  -2  -8 3667.03  137.39
  -2   2  -8 3594.94  137.39
   2  -2  -8 3570.14  129.39
  -2   2  -8 3528.25  128.49
   2   2  -8 3563.14  129.99
  -2   2   8 3675.63  135.49
   2  -2   8 3579.34  134.19
  -2  -2  -8 3539.75  137.49
   3   2   8  244.08   13.70
  -3  -2   8  239.08   13.70
  -3   2  -8  231.08   13.60
   3  -2  -8  254.07   12.90
   3  -2  -8  236.08   13.70
  -3  -2   8  233.48   13.10
  -3   2   8  238.48   13.70
   3   2  -8  248.08   13.10
   3  -2   8  239.48   12.80
  -3  -2  -8  241.28   14.00
  -4   2  -8  288.97   15.10
   4  -2  -8  286.97   14.60
   4   2   8  279.07   15.30
  -4  -2   8  253.27   14.80
   4  -2  -8  278.37   15.10
  -4  -2   8  255.87   14.50
  -4   2   8  284.27   15.40
   4   2  -8  279.77   14.70
   4  -2   8  274.47   14.50
   5  -2  -8  102.99    8.00
   5  -2  -8  108.09    8.40
  -5   2  -8   94.49    7.10
  -5   2  -8   91.79    7.60
  -5  -2   8   96.79    7.70
   5   2   8   83.49    7.90
   5   2  -8   87.69    8.10
  -5  -2  -8   90.09    7.90
  -5   2   8   82.99    7.50
  -6  -2   8 1889.21   72.19
  -6   2  -8 1649.54   70.49
   6  -2  -8 1833.62   69.29
   6   2  -8 1821.02   69.39
   7  -2  -8  123.09   10.30
   7   2  -8  154.38   11.10
   8  -2  -8  238.38   15.20
   8   2  -8  270.27   15.80
   9  -2  -8   80.89    9.10
   9   2  -8   82.79    9.20
  10  -2  -8 1018.00   43.80
  10   2  -8 1012.20   43.50
  11  -2  -8   56.49    7.90
  11   2  -8   54.59    7.60
  12  -2  -8   59.39    8.90
  12   2  -8   63.49    7.80
   0  -2   9   44.30    5.20
   0  -2  -9   52.89    6.80
   0   2  -9   51.09    5.30
   0   2  -9   55.69    6.60
   0   2   9   47.40    5.60
  -1  -2   9  297.27   15.40
  -1   2  -9  318.77   14.50
   1  -2  -9  288.87   16.60
   1   2   9  279.77   16.10
  -1   2  -9  311.77   17.00
   1  -2  -9  322.57   14.50
  -1  -2  -9  284.27   16.70
   1   2  -9  317.67   15.10
   1  -2   9  289.27   15.40
  -1   2   9  323.97   16.60
   1   2  -9  307.77   17.20
   2  -2  -9   37.90    4.80
   2  -2  -9   35.00    6.20
  -2   2  -9   37.80    5.60
  -2  -2   9   30.60    5.00
   2   2   9   37.00    4.90
   2   2  -9   41.40    6.00
   2   2  -9   41.70    6.10
   2  -2   9   39.00    4.40
  -2   2   9   31.50    5.40
  -2  -2  -9   28.90    5.50
   3  -2  -9  260.07   13.40
   3   2   9  238.78   14.20
  -3   2  -9  241.88   14.60
  -3  -2   9  246.88   13.70
   3  -2  -9  241.08   14.40
   3   2  -9  257.07   15.00
  -3  -2  -9  232.78   14.50
   3   2  -9  233.58   13.40
  -3   2   9  246.88   14.20
   3  -2   9  235.98   13.20
   4  -2  -9   42.10    5.90
  -4  -2   9   46.10    5.20
   4  -2  -9   47.00    6.80
   4   2   9   44.40    5.50
  -4   2  -9   43.00    5.70
   4  -2   9   36.90    4.80
  -4   2   9   51.69    5.60
   4   2  -9   39.20    6.60
  -4  -2  -9   37.60    6.20
   4   2  -9   42.90    6.80
   5  -2  -9  235.28   13.80
  -5   2  -9  187.58   12.50
  -5  -2   9  237.48   14.50
   5  -2  -9  244.28   14.00
  -5   2  -9  231.58   13.70
   5   2  -9  240.78   14.20
   5   2  -9  237.98   14.30
   6  -2  -9   36.90    6.90
   6   2  -9   33.40    6.80
   7  -2  -9  176.98   12.40
   7   2  -9  164.08   12.50
   8  -2  -9   19.60    6.50
   8   2  -9   15.10    5.60
   9  -2  -9  116.79   11.10
   9   2  -9  121.49   11.10
  10  -2  -9   17.70    6.10
  10   2  -9   20.60    6.50
  11  -2  -9   92.79    9.70
  11   2  -9   93.49    9.50
   0   2 -10 1580.24   70.29
   0   2 -10 1802.52   64.19
   0   2  10 1794.82   68.99
   0  -2  10 1712.73   66.99
   0  -2 -10 1554.04   69.89
  -1  -2  10   99.79    7.80
   1  -2 -10   94.39    9.30
  -1   2 -10  102.19    9.70
   1  -2  10   97.49    7.40
   1   2 -10   98.29    7.80
  -2  -2  10  164.38   10.70
   2  -2 -10  167.58   10.30
   2   2 -10  175.58   10.80
   2  -2  10  161.88   10.30
  -3  -2  10  105.99    8.30
   3  -2 -10  122.59    8.90
   3  -2  10   97.29    8.50
   3   2 -10  108.39    8.80
   4  -2 -10 1518.55   59.29
   4   2 -10 1515.15   59.59
   5  -2 -10   66.79    7.60
   5   2 -10   73.29    8.00
   6  -2 -10   94.99    9.10
   6   2 -10   96.49    9.50
   7  -2 -10   66.69    8.80
   7   2 -10   82.59    9.30
   8  -2 -10 1057.79   45.70
   8   2 -10 1087.49   46.10
   9  -2 -10   39.90    7.80
   9   2 -10   52.49    8.60
  10  -2 -10   40.60    8.10
  10   2 -10   45.70    8.50
   1   2 -11   79.69    7.20
   2   2 -11   50.09    7.20
   3  -2 -11  168.98   11.00
   3   2 -11  164.48   11.30
   4  -2 -11   39.20    6.90
   4   2 -11   43.90    7.40
   5  -2 -11   37.90    7.00
   5   2 -11   45.70    7.30
   6  -2 -11   17.70    6.00
   6   2 -11   17.60    5.90
   7  -2 -11   68.49    8.90
   7   2 -11   86.59    9.80
   8  -2 -11   17.40    5.90
   8   2 -11   27.80    7.20
   9  -2 -11   60.39    9.30
   9   2 -11   73.59   10.30
   2   2 -12 1229.58   49.50
   3   2 -12   47.90    6.60
   4  -2 -12   90.59    8.40
   4   2 -12   83.09    8.40
   5  -2 -12   33.50    6.30
   5   2 -12   30.20    6.50
   6  -2 -12  912.71   39.50
   6   2 -12  906.11   39.90
   7  -2 -12   58.59    9.10
   7   2 -12   54.89    8.70
   8  -2 -12   51.69    8.30
   8   2 -12   57.69    9.00
   3   2 -13  100.29    8.70
   4   2 -13   25.10    5.70
   5  -2 -13   89.09    8.60
   5   2 -13  106.39    9.40
   6  -2 -13   11.00    4.20
   6   2 -13   16.30    5.30
   7  -2 -13   54.79    7.30
   7   2 -13   67.79    8.00
   5   2 -14   30.60    6.40
   0  -3   0  104.29    4.30
   0  -3   0   96.19    5.20
   0   3   0   98.69    5.20
   0   3   0   97.39    4.20
   1  -3   0  121.49    5.90
  -1  -3   0  106.39    6.20
  -1   3   0  126.49    5.10
  -1  -3   0  127.99    5.60
  -1  -3   0  119.99    5.60
  -1   3   0  115.59    5.80
   2   3   0   20.40    2.40
  -2  -3   0   20.00    2.40
  -2  -3   0   16.10    2.40
  -2   3   0   16.80    1.80
  -2  -3   0   17.60    2.10
   2  -3   0   21.70    2.20
   2  -3   0   21.70    2.40
   2  -3   0   14.20    1.80
   2  -3   0   14.70    1.90
  -2   3   0   15.80    1.80
  -3   3   0   10.10    1.40
   3  -3   0   10.80    1.30
  -3   3   0   14.40    2.30
   3  -3   0   10.20    2.10
  -3  -3   0   11.10    2.50
   3  -3   0    9.80    2.20
   3   3   0   14.50    2.60
  -3  -3   0    8.30    2.10
   3  -3   0   14.60    2.60
   4   3   0    5.30    1.40
   4  -3   0    5.10    2.00
  -4  -3   0    4.00    1.70
   4   3   0    5.70    2.00
  -4   3   0    3.70    1.60
  -4  -3   0    6.10    2.20
   4  -3   0    6.00    1.90
   5   3   0   69.89    5.10
   5  -3   0   72.89    5.10
  -5  -3   0   65.09    4.80
  -5   3   0   60.79    4.90
   5  -3   0   73.49    4.90
  -5  -3   0   68.19    5.50
   5   3   0   67.39    4.10
   6  -3   0   17.70    3.30
   6   3   0   20.80    2.90
  -6  -3   0   16.10    2.80
  -6  -3   0   12.40    3.30
  -6   3   0   22.20    3.90
   6  -3   0   21.10    4.00
   6   3   0   15.00    3.40
   7  -3   0    0.60    2.40
  -7  -3   0    2.40    1.40
  -7   3   0    2.20    1.80
  -7  -3   0   -0.50    2.00
   7   3   0   -1.20    2.20
   7  -3   0    3.20    2.40
   7   3   0   -0.10    1.50
  -8  -3   0    3.60    2.40
  -8   3   0    0.40    1.70
   8  -3   0   -4.50    2.10
   8   3   0   -1.60    2.40
   8  -3   0    0.50    2.30
  -9   3   0   11.90    3.20
  -9  -3   0   12.30    3.80
   9  -3   0    5.60    2.90
   9  -3   0    2.00    3.40
   9   3   0    6.80    3.80
  10  -3   0    8.60    4.20
  10   3   0    8.40    3.90
  10  -3   0   10.50    3.50
 -10   3   0    8.10    2.50
  11  -3   0   10.80    4.80
  11   3   0    8.30    4.40
  12   3   0   -2.90    3.30
  12  -3   0   -1.40    3.50
  13   3   0    5.60    3.60
  13  -3   0    2.30    3.80
  14  -3   0    1.30    3.80
  14   3   0    2.60    2.70
   0   3  -1  166.18    7.90
   0  -3   1  171.68    8.00
   0  -3  -1  173.48    7.40
   0   3   1  170.38    7.40
   0  -3  -1  166.18    7.90
   0   3   1  160.58    7.90
   1   3   1    9.20    1.90
   1   3   1    4.70    1.50
   1   3   1    3.80    1.70
   1  -3  -1    6.00    1.40
  -1  -3   1    5.10    1.30
  -1   3  -1    5.30    1.40
   1  -3  -1    5.90    1.50
  -1  -3   1    2.90    1.50
  -1  -3  -1    5.80    1.80
   1  -3   1    5.90    1.50
  -1   3   1    5.80    1.60
   1   3  -1    5.50    1.70
   1  -3   1    3.10    1.40
   1   3  -1    6.10    1.20
  -1   3   1    5.70    1.80
  -1   3   1    5.30    1.40
  -1  -3  -1    6.70    1.60
   2  -3  -1  126.29    6.40
  -2   3  -1  138.99    6.20
   2  -3  -1  124.79    6.30
  -2  -3   1  136.49    6.30
  -2   3  -1  139.39    5.80
   2   3   1  139.29    6.60
   2  -3  -1  139.19    6.50
  -2  -3   1  133.99    7.00
  -2  -3   1  121.89    6.40
   2  -3  -1  120.69    6.10
   2  -3   1  127.39    5.70
  -2   3   1  131.09    6.30
   2   3  -1  124.89    6.30
  -2  -3  -1  136.19    6.60
   2   3  -1  121.09    6.30
   2  -3   1  137.99    6.10
  -2  -3  -1  130.59    6.90
   2  -3   1  132.99    6.30
  -2   3   1  131.39    6.20
   2  -3   1  135.69    6.40
  -3  -3   1   14.70    2.40
   3  -3  -1   22.10    3.00
  -3   3  -1   17.20    2.20
   3  -3  -1   18.50    2.60
  -3  -3   1   14.20    2.50
  -3   3  -1   12.90    1.30
   3   3   1   17.60    2.50
   3  -3  -1   12.80    1.60
  -3  -3  -1   15.00    2.70
   3  -3   1   14.40    2.10
  -3   3   1   12.40    1.60
   3   3  -1   19.90    2.60
  -3   3   1   15.00    2.30
   3   3  -1   19.20    2.70
   3  -3   1   13.20    2.00
  -3  -3  -1   15.30    2.40
   3  -3   1   15.80    2.20
   3  -3   1   12.20    1.40
  -4   3  -1    0.10    0.50
  -4  -3   1   -1.30    1.30
   4  -3  -1    0.80    1.60
   4   3   1   -2.10    1.30
  -4   3  -1   -0.40    1.30
  -4  -3   1   -1.30    1.40
   4  -3  -1   -1.00    0.40
   4  -3  -1   -1.10    1.50
   4  -3  -1   -0.30    0.50
   4  -3   1   -1.20    1.30
  -4   3   1   -1.20    1.20
  -4  -3  -1   -2.90    1.40
   4   3  -1   -1.00    1.30
   4   3  -1   -0.60    1.50
  -4  -3  -1   -0.10    1.40
   4  -3   1   -0.90    1.40
  -5  -3   1    0.90    1.40
   5  -3  -1   -0.50    1.60
   5   3   1   -1.30    1.80
  -5   3  -1   -1.90    1.20
  -5  -3   1    0.90    1.90
   5  -3  -1   -0.80    1.60
   5   3  -1    2.20    1.60
   5   3  -1   -1.30    1.50
  -5  -3  -1   -0.90    1.80
  -5  -3  -1   -0.30    1.20
   5  -3   1    0.00    1.70
   5  -3   1   -1.00    1.60
  -5   3   1   -1.00    1.20
  -6  -3   1   -0.70    2.00
   6   3   1    2.90    2.50
  -6   3  -1    1.30    1.80
  -6  -3   1    0.30    1.20
   6  -3  -1   -1.40    1.80
   6  -3  -1    0.30    2.00
  -6  -3  -1   -1.30    1.90
   6  -3   1   -0.70    2.00
   6   3  -1    2.00    1.90
  -6   3   1   -0.40    1.70
   6  -3   1    0.60    1.70
  -6  -3  -1   -2.60    0.90
   6   3  -1    2.00    2.20
  -7  -3   1    5.20    2.70
   7  -3  -1   -0.60    2.10
  -7  -3   1    1.30    1.30
   7  -3  -1    1.10    2.30
  -7   3  -1    4.70    2.20
   7   3   1    2.90    2.80
   7   3  -1    2.50    2.50
   7   3  -1    1.70    1.90
   7  -3   1    3.40    2.70
  -7  -3  -1    2.00    2.40
  -7  -3  -1   -0.70    1.20
   7  -3   1    3.90    2.20
  -7   3   1    4.40    2.40
   8  -3  -1   25.70    4.60
   8  -3  -1   24.00    4.80
   8   3   1   25.80    5.00
  -8   3  -1   24.50    4.50
  -8  -3   1   20.40    4.50
   8  -3   1   20.10    3.70
  -8   3   1   20.50    4.50
   8  -3   1   28.70    5.10
   8   3  -1   22.90    3.70
  -8  -3  -1   24.80    4.90
   8   3  -1   29.20    5.30
  -9  -3   1    2.30    1.80
   9  -3  -1    1.70    3.00
  -9   3  -1    1.00    1.60
   9  -3  -1   -1.10    2.50
   9   3   1   -2.90    2.80
  -9  -3  -1    3.80    1.90
   9   3  -1    1.70    3.20
  -9   3   1    1.10    1.70
   9  -3   1    0.60    2.10
   9  -3   1    3.70    3.50
  10  -3  -1   -1.20    3.20
  10   3   1    0.50    3.00
  10  -3  -1    0.60    2.70
  10   3  -1    2.60    3.80
  10  -3   1    2.40    3.70
  11  -3  -1   -1.30    2.50
  11   3   1   -3.10    3.20
  11  -3  -1   -1.10    3.40
  11   3  -1   -1.40    3.00
  11  -3   1    5.50    4.30
  12   3   1    8.90    4.40
  12  -3  -1    8.00    4.40
  12   3  -1   13.90    4.90
  12  -3   1    4.30    4.30
  13  -3  -1    2.20    3.90
  13   3   1    5.00    3.90
  13  -3   1    3.80    3.70
  13   3  -1    0.40    3.10
  14  -3  -1    6.10    3.20
  14   3   1   16.20    4.00
  14   3  -1    6.70    3.40
  14  -3   1    4.70    3.80
   0  -3   2   61.19    4.10
   0  -3   2   57.19    3.70
   0  -3   2   63.29    2.80
   0  -3  -2   64.69    3.80
   0   3   2   63.39    3.80
   0   3   2   57.79    3.60
   0  -3  -2   60.39    4.30
   0   3  -2   62.29    2.80
  -1  -3   2  163.48    7.50
  -1  -3   2  150.48    8.00
   1  -3  -2  165.28    7.60
   1   3   2  163.98    7.80
   1  -3  -2  164.88    7.90
   1   3   2  158.48    7.40
   1  -3  -2  165.18    7.30
  -1   3  -2  165.48    6.50
  -1  -3   2  159.78    7.00
  -1   3  -2  174.38    7.80
   1  -3   2  157.08    7.70
   1   3  -2  164.88    7.10
  -1   3   2  154.28    7.40
  -1  -3  -2  181.58    7.90
  -1   3   2  150.78    7.70
   1  -3   2  159.58    7.30
  -1   3   2  154.38    7.60
  -2  -3   2   19.10    2.30
   2   3   2   22.60    2.50
  -2  -3   2   20.60    2.90
   2   3   2   20.10    2.60
  -2   3  -2   21.20    1.60
  -2  -3   2   18.60    2.40
  -2   3  -2   21.80    1.80
   2  -3  -2   19.80    2.50
   2  -3  -2   20.90    2.50
  -2   3  -2   19.50    1.90
   2  -3  -2   18.30    2.20
  -2   3   2   19.20    2.50
   2  -3   2   21.70    2.00
  -2  -3  -2   21.50    2.80
  -2   3   2   18.10    2.20
   2  -3   2   18.60    2.20
   2   3  -2   17.10    2.20
   2  -3   2   19.40    2.10
  -3  -3   2   16.80    2.80
  -3   3  -2   12.40    1.80
  -3  -3   2   13.40    2.60
   3   3   2   11.60    2.40
   3  -3  -2   15.30    2.60
   3  -3  -2   12.90    2.00
   3  -3  -2   13.30    2.10
  -3   3  -2   12.00    1.60
  -3   3  -2   11.40    1.60
   3  -3   2   16.40    2.20
   3  -3   2   14.00    2.10
   3   3  -2   19.30    2.90
  -3  -3  -2   13.30    2.60
  -3   3   2   23.30    3.30
   3  -3   2   14.10    1.70
  -3   3   2   16.10    1.90
   3   3  -2   16.40    2.10
   4  -3  -2   23.90    2.10
   4  -3  -2   24.70    2.80
  -4   3  -2   19.70    2.60
  -4  -3   2   26.40    3.90
   4  -3  -2   24.90    1.80
  -4  -3   2   21.40    2.80
   4   3   2   26.60    3.00
   4  -3  -2   28.00    3.20
  -4   3  -2   26.10    1.90
   4   3  -2   22.00    2.80
   4  -3   2   26.10    2.80
   4   3  -2   25.80    2.80
  -4   3   2   27.40    3.20
  -4  -3  -2   25.10    3.10
  -4  -3  -2   26.20    4.00
   4  -3   2   23.30    2.50
  -5  -3   2   53.39    4.50
   5  -3  -2   53.39    2.80
  -5  -3   2   51.59    4.90
   5  -3  -2   50.09    4.40
   5  -3  -2   57.19    2.70
  -5   3  -2   58.29    4.70
  -5   3  -2   54.09    2.70
   5  -3  -2   58.69    4.90
  -5   3  -2   59.59    2.90
   5   3   2   56.49    4.70
  -5  -3  -2   55.09    4.50
   5   3  -2   58.59    4.50
   5   3  -2   56.39    4.40
  -5  -3  -2   53.29    5.10
   5  -3   2   52.99    4.30
  -5   3   2   61.29    5.00
   5  -3   2   53.69    4.00
   6   3   2   28.10    4.70
  -6  -3   2   12.30    3.50
   6  -3  -2   23.40    4.00
  -6   3  -2   16.30    3.30
   6  -3  -2   18.30    3.80
  -6  -3   2   21.90    3.00
   6   3  -2   21.20    3.60
   6   3  -2   20.20    3.40
  -6   3   2   21.90    4.10
   6  -3   2   19.00    3.10
  -6  -3  -2   18.80    3.80
  -6  -3  -2   14.50    2.80
   6  -3   2   20.30    3.90
  -7  -3   2    9.90    2.30
  -7   3  -2   18.00    3.50
   7  -3  -2   21.00    4.30
   7  -3  -2   22.00    4.30
   7   3   2   18.50    4.30
  -7  -3   2   16.90    3.80
   7  -3   2   16.20    3.10
  -7  -3  -2   16.10    2.90
   7  -3   2   13.30    3.60
  -7  -3  -2   16.90    4.10
   7   3  -2   14.60    3.50
  -7   3   2   15.00    3.70
   7   3  -2   22.30    3.70
   8  -3  -2    3.10    3.00
   8  -3  -2    8.80    3.60
  -8  -3   2   15.70    4.20
  -8   3  -2    9.30    2.80
   8   3   2    5.30    3.40
  -8   3   2    4.40    2.30
   8  -3   2    8.90    2.50
   8   3  -2    8.50    3.00
  -8  -3  -2   12.80    3.70
   8   3  -2   12.50    3.70
   8  -3   2   13.70    4.00
   9   3   2   -1.10    2.80
  -9  -3   2    6.30    2.70
   9  -3  -2   -1.70    2.70
   9  -3  -2   -0.30    3.10
  -9   3  -2    4.60    1.80
   9   3  -2    4.90    3.30
   9   3  -2   -0.30    2.40
  -9  -3  -2    2.80    2.00
  -9   3   2    1.30    1.80
   9  -3   2    0.20    3.00
  10   3   2   15.30    4.80
  10  -3  -2   18.40    5.10
  10  -3  -2    8.40    3.60
  10  -3   2   17.00    4.90
  10   3  -2   11.80    4.50
  11   3   2   12.40    5.00
  11  -3  -2   16.30    4.40
  11  -3  -2   10.40    4.90
  11  -3   2    9.90    4.70
  11   3  -2   12.20    4.60
  12   3   2    3.90    4.20
  12  -3  -2    3.70    2.90
  12  -3  -2    6.40    4.30
  12  -3   2    6.30    4.60
  12   3  -2    7.20    3.90
  13  -3  -2    0.50    3.00
  13   3   2   10.60    3.90
  13   3  -2    7.20    4.00
  13  -3   2    4.20    3.10
  14   3   2   19.80    4.50
  14  -3  -2   14.40    5.10
  14  -3   2   14.40    3.80
  14   3  -2   18.20    4.20
   0   3   3   -1.50    1.30
   0  -3   3   -1.60    1.30
   0   3  -3   -1.00    0.80
   0  -3   3   -1.30    0.90
   0   3   3   -2.50    1.20
   0  -3  -3   -0.80    1.80
   0  -3   3   -0.70    1.40
  -1  -3   3   17.60    2.60
   1   3   3   18.00    2.20
  -1  -3   3   20.50    2.50
  -1  -3   3   17.00    2.10
   1   3   3   19.70    2.70
   1  -3  -3   18.40    2.80
   1  -3  -3   18.00    2.30
  -1   3  -3   16.50    1.50
   1  -3   3   18.10    2.40
   1   3  -3   16.90    1.90
  -1   3   3   17.90    2.10
   1  -3   3   19.40    1.80
  -1  -3  -3   15.40    2.90
  -1   3   3   21.00    2.90
   1  -3   3   19.00    2.30
   2  -3  -3   -0.60    1.60
  -2  -3   3    0.20    1.40
   2   3   3   -1.10    1.40
   2  -3  -3    0.10    1.50
  -2  -3   3   -2.60    1.20
   2   3   3    1.50    1.60
  -2   3  -3   -1.30    0.70
  -2  -3  -3   -0.40    1.60
   2   3  -3    1.30    1.60
   2  -3   3    0.10    1.00
   2  -3   3   -0.50    1.20
  -2   3   3   -2.80    1.30
   2   3  -3    0.30    0.90
   2  -3   3   -1.10    1.10
   3   3   3    5.10    2.00
  -3   3  -3    6.40    1.50
  -3  -3   3    4.40    1.70
   3   3   3    6.70    2.30
   3  -3  -3    7.60    2.00
   3  -3  -3    5.80    2.00
  -3  -3   3    6.90    2.00
   3  -3  -3    6.00    2.00
  -3   3  -3    5.50    1.30
   3  -3   3    4.60    1.50
  -3  -3  -3    5.20    1.90
   3   3  -3    7.30    1.70
   3  -3   3    7.60    1.70
   3   3  -3    8.70    2.40
   3  -3   3    6.30    1.70
  -3   3   3    3.00    1.80
   4   3   3    0.30    1.70
  -4   3  -3    3.80    1.50
   4  -3  -3    0.00    1.50
  -4   3  -3    0.90    0.90
  -4  -3   3    3.60    2.00
   4  -3  -3    0.50    1.80
   4  -3  -3    0.80    1.50
  -4  -3   3    1.40    1.50
  -4   3  -3    0.50    1.30
   4  -3  -3    0.80    0.80
  -4   3   3    1.40    1.90
   4   3  -3    1.50    2.00
  -4  -3  -3    0.80    1.70
   4   3  -3    0.50    1.40
   4  -3   3    3.20    1.80
   4  -3   3   -0.30    1.30
  -4  -3  -3    0.50    2.00
  -5  -3   3   19.70    3.10
  -5   3  -3   21.80    3.40
  -5   3  -3   22.40    2.20
   5   3   3   18.30    3.40
   5  -3  -3   19.10    2.30
   5  -3  -3   19.50    3.50
   5  -3  -3   20.10    3.50
  -5  -3   3   21.50    4.00
   5   3  -3   33.20    4.30
  -5   3   3   19.50    3.90
  -5  -3  -3   18.50    3.20
   5  -3   3   21.40    2.90
   5  -3   3   20.40    2.70
  -5  -3  -3   23.70    4.30
   5   3  -3   25.40    3.50
   6  -3  -3    9.70    2.90
   6   3   3    8.40    2.90
  -6   3  -3    8.40    2.70
   6  -3  -3   11.00    3.40
  -6  -3   3    6.30    2.20
  -6  -3   3   10.80    3.20
  -6  -3  -3    8.10    2.40
   6   3  -3   11.40    2.90
   6  -3   3    6.90    2.60
  -6  -3  -3    9.70    3.10
   6   3  -3    9.40    3.10
   6  -3   3    7.30    2.00
  -6   3   3    8.40    2.90
  -7  -3   3    5.90    2.90
   7  -3  -3    6.50    3.20
   7   3   3   -2.80    2.10
  -7  -3   3    1.90    1.40
  -7   3  -3    4.20    2.00
   7  -3  -3    0.50    2.20
   7  -3   3    5.00    2.70
  -7   3   3    0.30    1.90
   7   3  -3   -0.80    2.30
   7   3  -3    1.50    2.30
   7  -3   3    1.30    1.50
  -7  -3  -3   -1.70    1.10
  -7  -3  -3    2.00    2.10
  -8   3  -3    4.90    1.70
  -8  -3   3    6.20    2.50
   8  -3  -3    2.70    3.10
   8   3   3   -0.20    2.90
   8  -3  -3    1.10    3.00
   8   3  -3    0.40    2.40
   8  -3   3    3.50    3.00
  -8   3   3    3.50    1.80
  -8  -3  -3   -0.80    2.00
   8   3  -3   -0.40    2.50
  -9   3  -3    6.60    1.80
  -9  -3   3    1.90    1.70
   9   3   3   -0.50    3.20
   9  -3  -3   -0.70    2.60
   9  -3  -3   -1.00    3.00
  -9  -3  -3    3.40    2.20
   9  -3   3    4.80    3.50
  -9   3   3    5.10    2.10
   9   3  -3    2.60    3.00
   9   3  -3   -1.10    2.70
  10  -3  -3    3.60    3.90
  10   3   3    1.00    3.40
  10  -3  -3    1.30    3.20
  10   3  -3   -1.90    2.60
  10   3  -3    1.00    2.80
  10  -3   3    1.70    3.30
  11  -3  -3    7.90    4.20
  11   3   3    9.40    4.70
  11  -3  -3    7.20    4.00
  11   3  -3    6.50    3.80
  11  -3   3    8.40    4.60
  12   3   3    5.20    4.30
  12  -3  -3   -0.50    3.20
  12  -3  -3    8.30    3.60
  12   3  -3   14.30    3.70
  12  -3   3    3.60    4.20
  13   3   3   11.60    3.60
  13  -3  -3    4.90    3.30
  13   3  -3    3.60    2.50
  13  -3   3    8.90    3.70
  14  -3  -3    6.50    3.00
  14   3   3   15.90    3.70
  14   3  -3   11.20    3.10
  14  -3   3    2.90    2.50
   0  -3   4   36.80    2.80
   0  -3  -4   37.10    2.80
   0   3  -4   39.40    2.70
   0  -3   4   38.30    3.60
   0  -3  -4   39.50    3.90
   0   3   4   36.30    2.90
   0  -3   4   30.50    3.20
   0   3   4   35.20    3.50
  -1  -3   4    0.90    1.30
  -1   3  -4   -0.50    0.60
  -1  -3   4    1.00    1.60
   1   3   4    3.20    1.60
   1   3   4    2.10    1.80
   1  -3  -4   -0.90    1.40
  -1  -3   4    1.10    1.70
   1  -3  -4    0.60    2.10
   1  -3   4    1.90    1.30
   1  -3   4    0.70    1.40
  -1  -3  -4   -0.50    2.00
   1  -3   4    0.10    1.50
  -1   3   4   -0.30    1.70
  -1   3   4    0.70    1.30
   2  -3  -4    7.30    2.40
  -2   3  -4    4.90    1.20
  -2  -3   4    3.70    1.90
   2  -3  -4    5.30    1.90
   2   3   4    5.10    1.90
  -2  -3   4    5.90    1.70
   2   3   4    5.80    1.80
  -2   3   4    7.20    1.80
   2  -3   4    4.60    1.70
   2  -3   4    6.20    1.80
   2   3  -4    7.60    2.40
   2  -3   4    4.20    1.40
  -2  -3  -4    4.70    2.10
   2  -3   4    4.50    1.30
  -2   3   4    5.40    2.10
  -3  -3   4    1.40    1.70
   3  -3  -4   -1.00    1.80
   3   3   4    1.10    1.80
   3   3   4    2.20    1.70
  -3   3  -4    0.70    1.10
   3  -3  -4   -2.30    1.00
  -3  -3   4   -0.20    1.50
   3  -3  -4   -2.30    1.60
   3  -3   4    0.10    1.20
  -3  -3  -4   -1.70    1.80
   3   3  -4   -1.60    0.90
   3  -3   4   -1.20    1.10
   3  -3   4   -1.20    1.10
  -3   3   4   -1.10    1.60
   3   3  -4   -1.30    1.90
   4   3   4   14.20    2.80
   4  -3  -4   13.70    2.80
   4  -3  -4   16.00    2.90
  -4  -3   4   17.30    3.20
  -4   3  -4   12.00    2.50
  -4   3  -4   18.20    2.80
  -4  -3   4   16.80    3.10
   4  -3  -4   14.40    3.20
   4   3   4   14.80    3.50
   4  -3   4   20.50    3.00
   4   3  -4   17.10    2.60
   4  -3   4   17.60    2.60
  -4   3   4   14.70    3.30
  -4  -3  -4   18.30    3.50
   4   3  -4   10.60    3.10
  -5   3  -4   -0.10    1.30
  -5  -3   4    0.90    1.60
   5  -3  -4   -2.00    1.50
   5   3   4   -0.30    2.00
   5  -3  -4    1.70    2.50
   5  -3  -4   -0.80    1.70
  -5   3  -4    0.50    1.50
  -5  -3   4    0.70    1.90
  -5   3   4   -0.90    1.70
   5   3  -4    0.40    1.40
  -5  -3  -4    2.00    2.50
   5  -3   4   -0.20    1.30
   5   3  -4    2.00    2.40
  -5  -3  -4    0.10    1.70
   5  -3   4   -0.30    1.60
  -6   3  -4   20.80    3.80
   6  -3  -4   16.40    3.60
   6  -3  -4   12.00    3.70
  -6  -3   4   15.90    3.10
  -6  -3   4   13.80    3.60
   6   3   4   18.10    4.10
   6   3  -4   22.70    3.60
  -6  -3  -4   11.70    2.70
   6  -3   4   12.30    3.10
   6  -3   4   13.20    2.50
  -6  -3  -4   20.10    4.70
   6   3  -4   19.50    4.20
  -6   3   4   13.70    3.60
  -7   3  -4    2.90    1.80
   7   3   4    2.20    2.50
   7  -3  -4   -1.60    2.60
  -7  -3   4    0.40    1.30
   7  -3  -4    2.00    2.50
  -7  -3   4    2.10    2.10
   7   3  -4    0.70    2.10
  -7  -3  -4    0.70    1.40
  -7  -3  -4   -2.00    2.00
  -7   3   4    1.10    2.30
   7  -3   4    2.60    2.50
   7   3  -4   -2.40    2.50
   8   3   4    3.40    3.20
  -8  -3   4   -0.70    1.90
   8  -3  -4    7.00    3.30
  -8   3  -4    8.30    2.30
   8  -3  -4    2.80    3.50
   8   3  -4    2.90    3.30
   8   3  -4    4.80    2.50
   8  -3   4    4.70    3.00
  -8  -3  -4    7.40    3.00
  -8   3   4    3.10    2.60
   9  -3  -4    2.90    3.10
  -9   3  -4    6.30    2.00
   9   3   4    0.20    3.00
   9  -3  -4    0.50    3.30
   9   3  -4    5.00    2.80
   9  -3   4    4.60    3.10
   9   3  -4    6.00    3.50
  10  -3  -4    4.70    4.20
  10  -3  -4    8.00    3.90
  10   3   4   11.40    4.60
  10  -3   4   17.10    4.80
  10   3  -4   10.00    4.30
  10   3  -4   13.30    3.90
  11   3   4   -3.30    3.10
  11  -3  -4    0.10    2.90
  11  -3  -4   -0.10    3.10
  11   3  -4    7.70    2.80
  11  -3   4    3.40    3.60
  11   3  -4   -1.20    2.80
  12  -3  -4    2.70    3.30
  12  -3  -4    8.80    4.00
  12   3   4   10.90    4.70
  12  -3   4   11.90    4.70
  12   3  -4    8.70    3.40
  13  -3  -4    6.10    3.00
  13  -3  -4    3.40    3.00
  13   3   4   16.00    4.30
  13  -3   4    9.60    3.50
  13   3  -4    9.20    2.90
   0  -3  -5   84.79    4.90
   0  -3   5   92.99    6.10
   0   3   5   90.99    6.10
   0  -3   5   91.09    5.20
   0   3   5   77.79    4.80
   0  -3   5   89.89    5.60
   0  -3  -5   95.19    6.70
   1   3   5   11.70    2.70
   1   3   5   10.20    2.00
  -1  -3   5    9.80    2.50
   1  -3  -5   12.50    2.40
   1  -3  -5   11.60    3.20
  -1  -3   5   12.30    2.40
   1  -3   5    9.80    2.60
  -1   3   5    9.90    2.00
   1   3  -5   10.60    2.60
  -1  -3  -5    5.50    2.50
   1  -3   5   11.90    2.40
   1  -3   5   12.10    2.30
  -1   3   5    8.80    2.50
   2  -3  -5   33.30    4.20
   2  -3  -5   32.80    3.60
   2   3   5   40.60    4.20
  -2  -3   5   32.30    3.90
  -2  -3   5   37.60    3.60
   2   3   5   31.30    3.00
   2  -3   5   35.00    3.20
   2  -3   5   36.80    3.30
  -2   3   5   30.60    4.00
  -2   3   5   29.70    2.90
   2   3  -5   32.50    4.00
  -2  -3  -5   32.90    4.50
   2  -3   5   32.70    3.70
  -3  -3   5   14.20    2.90
   3  -3  -5   10.50    2.90
  -3  -3   5    8.20    2.60
   3  -3  -5   10.00    2.90
   3   3   5   10.10    2.80
   3   3   5   10.10    2.40
   3  -3   5    7.70    1.70
  -3   3   5    9.10    2.30
   3  -3   5   13.10    2.40
   3   3  -5   15.10    3.30
  -3  -3  -5   11.40    3.20
   3  -3   5    9.70    2.50
  -3   3   5   11.60    3.20
   4  -3  -5    1.10    2.10
  -4   3  -5    1.70    1.40
  -4  -3   5    4.90    2.20
   4   3   5    2.60    2.30
  -4   3  -5    1.40    1.60
  -4  -3   5   -0.80    1.80
   4   3   5    2.70    2.10
   4  -3  -5    0.00    2.50
   4  -3  -5    1.70    1.60
   4  -3   5    1.70    1.50
  -4  -3  -5    0.80    2.20
   4  -3   5   -0.30    1.20
  -4   3   5   -1.80    2.10
   4   3  -5    2.90    2.70
   5  -3  -5    2.30    2.10
  -5   3  -5   -0.30    1.50
  -5  -3   5    1.70    2.10
   5  -3  -5    5.70    2.30
   5   3   5    3.50    2.30
  -5  -3   5    1.80    1.70
   5  -3  -5    8.40    3.50
  -5   3  -5    3.90    1.60
   5  -3   5    5.70    2.00
   5  -3   5    1.60    1.60
  -5   3   5    3.50    2.50
  -5  -3  -5    2.90    2.70
   5   3  -5    2.80    2.70
  -5  -3  -5    1.30    2.10
   5   3  -5    5.90    1.70
   6   3   5   11.00    3.30
   6  -3  -5    6.50    2.60
  -6  -3   5    8.90    2.70
   6  -3  -5    8.40    3.40
  -6   3  -5    5.00    2.40
  -6  -3   5    8.40    3.10
  -6  -3  -5    5.20    2.80
  -6   3   5    9.80    3.20
   6   3  -5    6.90    3.50
   6  -3   5    8.80    2.70
   6   3  -5    5.70    2.00
  -6  -3  -5    3.00    2.10
   7  -3  -5    4.10    3.50
  -7  -3   5    2.80    1.80
   7  -3  -5    7.20    2.90
   7   3   5    4.00    2.80
  -7  -3   5    7.70    2.60
  -7   3  -5   11.30    2.70
  -7   3   5    7.20    2.50
  -7  -3  -5    6.20    2.60
   7   3  -5    8.60    2.40
   7   3  -5   -0.20    3.10
   7  -3   5    3.40    2.30
  -7  -3  -5    6.90    2.00
   8  -3  -5   12.20    4.40
   8   3   5   26.50    5.00
  -8   3  -5   26.00    3.20
  -8  -3   5   13.10    3.70
   8  -3  -5   17.50    4.10
   8  -3   5   17.00    4.10
  -8   3   5   10.90    3.20
   8   3  -5   19.30    4.80
   8   3  -5   16.90    3.40
  -8  -3  -5   19.10    4.30
   9  -3  -5    1.50    2.50
   9  -3  -5   -1.10    3.60
   9   3   5    2.30    3.20
   9   3  -5    2.40    3.60
   9  -3   5    0.90    2.40
   9   3  -5    1.60    1.80
  10  -3  -5    5.60    3.50
  10   3   5    4.20    3.70
  10  -3  -5    3.40    4.10
  10  -3   5    5.10    3.30
  10   3  -5    0.00    3.40
  11  -3  -5    1.00    3.70
  11   3   5    3.70    3.90
  11  -3  -5    5.90    3.30
  11  -3   5    3.90    3.00
  11   3  -5    4.60    3.90
  12  -3  -5    4.10    2.70
  12   3   5   14.40    4.20
  12  -3  -5   -0.40    3.50
  12  -3   5    1.80    2.70
  13   3   5    7.70    3.10
  13  -3  -5    1.80    3.10
  13  -3  -5    4.30    2.60
  13  -3   5    7.60    2.70
   0  -3  -6   10.60    3.30
   0   3   6   11.70    3.10
   0   3   6   14.20    2.20
   0   3  -6   14.80    3.10
   0  -3  -6   15.20    2.50
   0  -3   6   13.50    3.30
   0  -3   6   14.30    2.70
   1  -3  -6    0.30    2.60
   1   3   6    4.70    1.70
  -1  -3   6    2.20    2.20
   1  -3  -6    1.40    2.00
  -1  -3   6    0.40    1.60
   1   3   6    2.90    2.30
   1  -3   6    2.90    2.30
  -1   3   6    1.80    1.40
   1   3  -6    3.00    2.30
  -1  -3  -6    0.30    2.40
   1  -3   6    2.90    2.00
  -1   3   6    3.30    2.40
  -2  -3   6    1.80    1.70
   2   3   6    1.10    1.30
   2   3   6    4.20    2.50
   2  -3  -6    0.10    2.10
   2  -3  -6    0.90    2.50
  -2  -3   6    7.20    2.80
   2  -3   6    3.40    1.90
  -2   3   6    3.30    2.20
  -2  -3  -6    0.90    2.60
   2  -3   6    1.40    1.80
   2  -3   6    3.30    1.90
  -2   3   6    3.30    1.60
   2   3  -6    2.20    2.30
  -3  -3   6   27.10    3.60
  -3   3  -6   33.00    4.50
  -3  -3   6   33.60    4.20
   3   3   6   32.80    5.10
   3  -3  -6   34.50    4.70
   3  -3  -6   30.40    4.70
   3   3   6   30.40    3.10
  -3   3   6   30.60    2.90
   3  -3   6   28.40    3.20
   3   3  -6   23.90    4.20
   3  -3   6   30.60    3.70
  -3  -3  -6   27.40    4.40
  -3   3   6   31.30    5.00
   4  -3  -6   -0.80    2.20
  -4  -3   6    0.20    1.80
  -4   3  -6    1.80    2.20
   4   3   6    1.50    2.40
  -4   3  -6    0.00    0.90
   4  -3  -6    2.30    2.90
  -4  -3   6    0.10    1.90
   4   3   6    0.50    1.80
  -4  -3  -6   -1.80    2.00
   4  -3   6    2.40    1.50
   4   3  -6    1.00    2.60
  -4   3   6    4.40    1.90
  -4   3   6    2.00    2.30
   5   3   6    2.30    2.10
  -5   3  -6   -0.20    1.40
  -5  -3   6    5.10    2.60
   5  -3  -6   -1.50    1.80
   5  -3  -6    3.00    1.70
   5   3   6    1.30    2.50
   5  -3  -6    2.00    3.10
  -5  -3   6    2.70    2.00
  -5   3  -6    1.20    1.40
  -5  -3  -6   -1.90    1.70
  -5   3   6    1.20    2.20
   5   3  -6    4.70    3.50
   5  -3   6    3.90    1.80
   6   3   6    7.60    2.90
  -6  -3   6    2.60    2.60
   6  -3  -6    3.10    3.30
   6  -3  -6    7.90    2.60
  -6  -3   6    3.70    2.10
  -6   3  -6    9.90    2.60
  -6  -3  -6    2.20    1.90
   6  -3   6    7.50    2.30
  -6  -3  -6    4.20    2.60
   6   3  -6    5.40    3.60
  -6   3   6    1.90    1.80
  -7   3  -6   10.30    2.80
   7   3   6   10.20    3.30
   7  -3  -6    7.80    4.00
  -7  -3   6    7.00    2.20
   7  -3  -6    5.00    2.50
  -7  -3   6    9.20    3.10
  -7  -3  -6    9.60    2.40
   7  -3   6    8.00    2.70
   7   3  -6    4.40    4.10
  -7   3   6   10.90    3.10
  -7  -3  -6    8.60    3.30
   8  -3  -6    2.20    2.20
   8   3   6   -0.50    2.50
   8  -3  -6    3.10    3.70
   8  -3   6   -2.80    1.60
   8   3  -6    1.40    3.60
   9  -3  -6    7.80    4.10
   9  -3  -6    2.30    2.30
   9   3   6   -0.20    2.70
   9  -3   6    4.90    2.70
   9   3  -6    3.00    4.10
  10  -3  -6    9.00    3.10
  10  -3  -6    1.10    4.10
  10   3   6   11.20    4.00
  10   3  -6    4.70    4.10
  10  -3   6    8.40    3.40
  11   3   6    7.80    3.70
  11  -3  -6   -1.50    4.10
  11   3  -6   -5.60    3.10
  11  -3   6   10.00    3.20
  12   3   6    4.40    3.00
  12  -3  -6    6.80    4.00
  12   3  -6    3.50    3.40
  12  -3   6    6.10    3.10
  13  -3  -6    2.70    3.00
  13  -3   6    5.60    2.40
   0   3   7    2.70    2.20
   0  -3   7    0.30    2.00
   0  -3   7    3.40    1.90
   0  -3  -7    3.60    1.90
   0   3  -7    1.80    2.20
   0  -3  -7    1.70    2.70
  -1   3  -7    1.00    2.00
   1   3   7    1.50    2.10
   1  -3  -7   -0.50    1.80
  -1  -3   7    0.90    2.00
   1  -3  -7   -0.60    2.40
  -1  -3   7    2.50    1.70
   1   3  -7    0.80    2.40
   1  -3   7   -1.60    1.50
  -1   3   7   -2.10    1.60
  -1  -3  -7   -2.40    2.60
   1  -3   7   -0.40    1.80
  -2   3  -7   11.40    2.80
  -2  -3   7    8.70    2.70
   2  -3  -7    8.70    2.90
   2   3   7    9.40    3.50
  -2   3  -7   10.00    3.30
   2  -3  -7   12.30    3.70
  -2  -3   7    9.60    3.00
   2  -3   7    9.60    2.50
   2   3  -7    6.00    3.00
  -2   3   7   10.10    3.30
  -2  -3  -7    7.70    3.40
   3   3   7    3.00    1.60
   3   3   7    2.60    2.30
  -3  -3   7    7.20    2.60
   3  -3  -7    2.60    2.80
   3  -3  -7    4.20    3.00
  -3  -3   7    4.30    2.50
  -3   3  -7    3.70    2.50
   3   3  -7    4.90    3.10
   3  -3   7    2.30    1.80
  -3   3   7    5.70    2.50
  -3  -3  -7    0.10    2.40
   4   3   7    0.30    1.50
   4  -3  -7   -1.40    2.30
  -4   3  -7    2.90    2.30
  -4  -3   7   -0.10    1.80
   4   3   7    0.80    2.30
   4  -3  -7    1.90    3.00
  -4  -3   7   -0.30    1.70
  -4  -3  -7   -2.00    2.40
  -4   3   7   -1.90    1.80
   4   3  -7   -1.70    2.60
  -5   3  -7   -1.60    1.70
   5  -3  -7   -1.00    2.30
   5  -3  -7    0.00    3.00
  -5   3  -7    1.80    1.20
  -5  -3   7    1.10    1.90
  -5  -3   7   -1.90    1.50
   5   3   7    0.60    1.70
   5   3   7   -1.60    2.00
  -5  -3  -7   -1.30    2.00
  -5   3   7    2.80    1.90
   5   3  -7   -2.80    2.60
   6  -3  -7    1.30    3.20
  -6  -3   7    2.60    2.00
   6   3   7    1.90    2.10
  -6  -3   7    2.30    1.80
  -6  -3  -7    0.60    1.60
  -6  -3  -7   -0.50    1.80
  -6   3   7    4.00    2.30
   6   3  -7    6.90    4.00
   7   3   7    1.90    2.50
  -7  -3   7    2.10    1.60
   7  -3  -7    8.10    4.40
  -7  -3   7    6.90    2.10
   7   3  -7   -0.80    3.80
   8   3   7    4.20    3.00
   8  -3  -7    0.70    3.90
   8   3  -7    8.50    4.50
   9   3   7    3.60    2.40
   9  -3  -7    6.90    4.80
   9   3  -7    5.50    4.70
  10  -3  -7   -0.30    4.20
  10   3   7    8.60    3.00
  10   3  -7    4.90    4.50
  11  -3  -7   -0.40    3.60
  11   3  -7    0.70    3.90
  12  -3  -7    5.80    3.80
  12   3  -7    0.50    3.40
   0  -3   8    6.90    2.90
   0   3   8    7.10    3.20
   0   3  -8    9.10    3.10
   0  -3  -8    5.90    3.40
   0  -3   8    8.60    2.60
  -1  -3   8   25.90    4.90
   1  -3  -8   31.40    4.30
  -1   3  -8   29.80    5.40
  -1   3  -8   28.20    4.40
   1   3   8   33.80    5.60
  -1  -3   8   27.80    4.30
   1  -3  -8   26.20    5.30
  -1   3   8   26.30    4.70
  -1  -3  -8   18.20    4.70
   1  -3   8   24.10    4.00
   1   3  -8   30.10    5.00
   2  -3  -8    5.80    2.80
  -2  -3   8    6.60    2.90
   2   3   8    7.80    2.90
  -2  -3   8    5.80    2.40
  -2   3  -8    8.70    3.40
   2  -3  -8    6.90    3.50
  -2   3  -8    7.30    2.50
  -2   3   8    6.60    2.80
   2  -3   8    5.30    2.30
  -2  -3  -8    4.50    3.10
   2   3  -8    7.70    3.60
  -3  -3   8   -0.30    2.30
   3  -3  -8    2.50    2.70
  -3  -3   8    0.80    1.60
   3  -3  -8    0.60    2.90
   3   3   8    5.30    2.90
  -3   3  -8    3.20    2.90
  -3  -3  -8    0.20    2.60
   3   3  -8    3.60    3.30
  -3   3   8    3.10    2.00
   3  -3   8    3.40    1.70
  -4  -3   8    9.40    2.90
   4  -3  -8    7.70    3.80
   4   3   8   13.90    4.20
  -4   3  -8    6.80    2.80
  -4  -3   8    4.60    2.70
   4  -3  -8    4.70    3.00
  -4  -3  -8    8.00    3.70
   4  -3   8    6.50    2.60
   4   3  -8    6.40    4.00
  -4   3   8    3.30    2.70
   5  -3  -8   39.10    6.30
  -5   3  -8   25.10    5.00
   5   3   8   25.20    5.20
   5  -3  -8   17.20    4.20
  -5  -3   8   29.50    5.00
  -5  -3   8   26.70    4.70
  -5   3   8   32.00    4.20
   5   3  -8   30.70    5.90
  -6  -3   8    2.60    2.40
  -6  -3   8    4.70    2.00
   6  -3  -8    7.80    4.30
   6   3  -8    8.60    4.70
  -6  -3  -8    4.00    2.50
   7  -3  -8    6.30    4.50
   7   3  -8    4.30    4.40
   8  -3  -8   14.20    5.30
   8   3  -8    8.50    4.70
   9  -3  -8   -8.00    3.30
   9   3  -8    3.50    4.60
  10  -3  -8    6.70    4.80
  10   3  -8   10.90    5.60
  11  -3  -8   11.30    4.60
  11   3  -8    7.10    4.80
  12  -3  -8    5.10    3.80
  12   3  -8    0.00    3.40
   0   3   9   15.10    4.30
   0  -3  -9    8.20    4.20
   0   3  -9   12.00    3.50
   0  -3   9   13.80    3.30
   0   3  -9   16.10    4.50
   1   3   9    0.70    2.30
  -1  -3   9    1.60    1.40
   1  -3  -9    0.10    2.10
  -1   3  -9   -2.20    2.10
  -1   3  -9    3.40    2.80
   1  -3  -9   -3.40    2.40
   1   3  -9    2.80    2.90
  -1  -3  -9   -0.20    2.80
  -1   3   9   -0.80    1.80
   1  -3   9    4.30    2.00
  -2   3  -9    2.90    2.80
  -2   3  -9   11.10    3.00
   2  -3  -9    6.60    3.10
   2  -3  -9    9.50    4.10
   2   3   9    8.70    3.10
  -2  -3   9    7.80    2.50
   2  -3   9    9.50    2.40
  -2  -3  -9    1.00    3.00
   2   3  -9    2.20    3.30
  -2   3   9    5.70    2.70
   3  -3  -9    4.20    3.20
  -3  -3   9    1.60    2.30
  -3   3  -9    6.60    3.10
   3   3   9    7.60    2.90
   3  -3  -9    3.00    3.00
  -3  -3   9    4.50    2.00
  -3  -3  -9    2.10    3.10
   3   3  -9    4.00    3.70
  -3   3   9    4.70    2.10
  -4  -3   9    9.80    3.30
  -4  -3   9    8.30    2.70
   4  -3  -9   13.90    4.20
  -4   3  -9   10.90    3.40
   4  -3  -9    4.00    3.10
  -4  -3  -9    0.80    3.20
   4   3  -9    9.70    4.60
  -5  -3   9    7.30    2.60
   5  -3  -9    0.40    3.50
   5   3  -9    6.40    4.40
   6  -3  -9   10.40    4.70
   6   3  -9    8.30    4.90
   7  -3  -9    3.20    4.40
   7   3  -9    4.10    4.40
   8  -3  -9    0.20    4.30
   8   3  -9    8.20    5.40
   9  -3  -9    5.50    4.90
   9   3  -9   -1.50    4.30
  10  -3  -9   -1.70    4.10
  10   3  -9    3.50    4.30
  11  -3  -9    2.40    4.10
  11   3  -9   -1.60    3.60
   0   3 -10    7.30    3.40
  -1   3 -10    6.50    2.90
   1   3 -10    5.20    3.20
  -2  -3  10    2.70    2.00
   2  -3 -10   -2.30    2.30
   2   3 -10    1.80    3.40
  -3  -3  10    4.20    2.10
   3  -3 -10    5.80    3.30
   3   3 -10    4.30    4.10
   4  -3 -10    1.60    3.10
   4   3 -10    5.60    4.10
   5  -3 -10    2.30    3.70
   5   3 -10    6.20    4.80
   6  -3 -10    4.00    4.10
   6   3 -10    2.40    4.30
   7  -3 -10   -1.60    4.10
   7   3 -10    2.30    4.60
   8  -3 -10    0.70    4.30
   8   3 -10   -2.40    4.40
   9  -3 -10    6.00    4.70
   9   3 -10    8.70    5.00
  10  -3 -10    3.90    4.40
  10   3 -10   -2.70    3.70
   0   3 -11   11.10    4.00
   1   3 -11    5.10    3.40
   2   3 -11   16.60    4.80
   3  -3 -11    3.40    3.00
   3   3 -11    0.50    3.80
   4  -3 -11   -3.40    2.70
   4   3 -11    2.90    4.10
   5  -3 -11    3.00    3.90
   5   3 -11    4.00    4.10
   6  -3 -11    8.10    4.30
   6   3 -11    0.00    4.10
   7  -3 -11   -2.20    3.60
   7   3 -11    5.70    4.80
   8  -3 -11   13.30    5.00
   8   3 -11   21.00    6.30
   9  -3 -11    3.90    4.10
   9   3 -11   10.40    5.20
   1   3 -12   14.30    4.40
   2   3 -12    3.80    3.70
   3   3 -12   20.70    5.40
   4  -3 -12   -1.70    2.70
   4   3 -12    1.00    3.50
   5  -3 -12   11.00    4.70
   5   3 -12    4.60    4.10
   6  -3 -12    3.40    3.80
   6   3 -12   -1.00    3.70
   7  -3 -12    9.10    4.50
   7   3 -12   16.50    5.40
   8  -3 -12   -1.10    3.10
   8   3 -12    5.50    4.60
   2   3 -13   11.00    3.90
   3   3 -13   13.00    4.00
   4   3 -13    4.70    3.70
   5   3 -13    4.60    4.00
   6  -3 -13   -3.20    2.70
   6   3 -13   16.80    5.00
   7   3 -13    4.20    3.90
   4   3 -14    5.70    3.60
   0   4   0 6848.31  258.57
   0   4   0 7319.97  255.77
   0  -4   0 7229.58  264.17
   0  -4   0 6806.82  250.97
   0  -4   0 7408.36  258.67
  -1  -4   0 1979.30   76.29
  -1   4   0 1878.01   75.69
  -1   4   0 2191.18   75.89
  -1  -4   0 1843.72   76.19
   1  -4   0 2175.58   74.59
  -1  -4   0 2232.28   78.79
   1   4   0 2119.69   75.89
  -1   4   0 2169.58   78.19
  -1  -4   0 2187.38   74.29
   1  -4   0 1980.60   78.19
  -2   4   0  127.79    6.20
   2  -4   0  127.19    6.30
  -2  -4   0  131.59    6.40
  -2  -4   0  129.39    6.30
   2  -4   0  127.99    5.70
   2  -4   0  134.89    6.60
  -2  -4   0  125.49    6.00
  -2  -4   0  124.19    7.00
   2   4   0  124.49    6.50
  -2   4   0  136.89    5.70
   2  -4   0  110.19    6.30
   3  -4   0  919.81   34.80
  -3  -4   0  942.71   34.20
   3  -4   0  930.01   35.40
  -3  -4   0  931.71   36.90
  -3   4   0 1008.80   35.30
   3  -4   0  863.81   35.10
  -3  -4   0  919.81   36.00
   3  -4   0  939.41   35.40
  -3   4   0  915.51   35.40
   3   4   0  896.31   35.30
   4  -4   0 4361.26  172.58
   4   4   0 4613.04  165.18
   4  -4   0 4718.33  166.18
   4   4   0 4483.25  169.08
  -4   4   0 5020.40  171.38
  -4  -4   0 4738.73  172.28
  -4   4   0 4718.23  172.68
  -4  -4   0 4724.03  174.88
   4  -4   0 4647.04  169.18
   5   4   0 1397.36   52.49
  -5  -4   0 1395.66   55.99
  -5   4   0 1487.65   55.29
  -5  -4   0 1398.66   56.29
   5   4   0 1484.85   54.89
   5  -4   0 1476.95   53.69
   5  -4   0 1474.05   54.79
   6  -4   0  249.97   12.00
  -6   4   0  243.28   11.80
   6   4   0  211.18   11.70
   6   4   0  230.88   10.30
  -6  -4   0  228.68   11.70
   6  -4   0  230.68   11.50
  -6  -4   0  245.88   12.80
   7  -4   0  531.05   22.90
  -7  -4   0  496.15   22.30
  -7  -4   0  527.05   23.80
   7  -4   0  505.35   21.80
  -7   4   0  528.15   22.80
   7   4   0  509.85   22.70
  -8  -4   0 1672.13   66.19
   8   4   0 1731.53   64.39
   8  -4   0 1696.43   62.59
   8  -4   0 1557.54   64.09
  -8   4   0 1631.14   64.99
   9  -4   0  424.86   21.10
  -9  -4   0  424.56   21.80
   9   4   0  428.46   20.90
   9  -4   0  457.05   20.20
  -9   4   0  447.56   21.10
  10  -4   0   76.59    7.90
  10  -4   0   81.09    7.00
  10   4   0   71.39    7.50
  11  -4   0  290.27   17.30
  11   4   0  309.07   17.40
  11  -4   0  318.67   16.00
  12  -4   0  864.91   38.90
  12   4   0  880.11   38.50
  13  -4   0  152.48   11.70
  13   4   0  133.49   10.60
  14  -4   0    6.70    3.50
  14   4   0   12.20    3.50
   0  -4  -1  941.61   38.10
   0  -4   1  963.40   36.10
   0  -4   1  965.80   38.10
   0  -4  -1  977.60   35.90
   0   4   1 1048.00   36.90
   0  -4  -1 1014.40   36.80
   0   4  -1  940.81   36.50
  -1  -4   1  457.75   17.90
  -1  -4   1  458.95   19.50
   1  -4  -1  467.65   18.20
  -1  -4   1  479.65   17.90
   1   4   1  450.75   18.50
  -1   4  -1  462.95   18.40
   1  -4  -1  451.75   18.10
   1   4   1  458.15   18.60
   1  -4  -1  461.45   19.10
  -1  -4   1  460.85   18.10
   1  -4   1  493.85   18.40
  -1  -4  -1  471.65   18.50
  -1  -4  -1  441.06   19.40
   1  -4   1  506.25   19.20
  -1   4   1  494.75   18.30
   1   4  -1  441.96   18.30
  -1  -4  -1  471.15   18.10
  -2  -4   1  903.11   35.50
   2  -4  -1  938.41   34.80
  -2  -4   1  891.71   36.80
  -2  -4   1  946.41   34.60
   2  -4  -1  835.22   35.90
   2   4   1  924.81   35.40
  -2   4  -1 1079.99   34.60
  -2   4  -1  930.51   36.00
  -2   4   1  926.11   36.10
  -2  -4  -1  919.61   36.80
   2  -4   1  978.30   36.00
   2  -4   1  960.30   35.30
   2  -4   1  981.00   34.90
  -2   4   1  905.91   35.30
  -2  -4  -1  959.00   36.00
   2   4  -1  860.01   35.10
  -3  -4   1  343.67   14.20
   3  -4  -1  347.67   14.80
  -3  -4   1  338.27   15.50
   3   4   1  363.06   14.90
  -3   4  -1  363.86   14.10
   3  -4  -1  352.56   14.30
  -3  -4   1  356.96   15.10
  -3   4  -1  331.07   14.20
  -3  -4  -1  364.16   15.30
   3  -4   1  366.86   14.30
   3  -4   1  321.47   13.90
   3   4  -1  335.97   14.60
   3  -4   1  352.16   14.70
  -3   4   1  332.97   14.20
  -3   4   1  358.46   14.70
   3  -4   1  369.36   14.60
  -3  -4  -1  343.97   15.50
  -4   4  -1  534.15   20.60
  -4  -4   1  533.25   21.60
   4  -4  -1  485.05   20.90
  -4  -4   1  509.15   21.70
   4  -4  -1  510.85   19.80
   4  -4  -1  531.05   20.80
   4   4   1  529.45   21.10
  -4   4  -1  487.45   19.70
  -4   4   1  477.25   19.80
   4   4  -1  523.25   20.20
  -4  -4  -1  519.65   21.70
  -4   4   1  502.75   20.90
  -4  -4  -1  512.65   21.60
   4   4  -1  488.45   20.70
   4  -4   1  502.95   20.80
   4  -4   1  526.25   20.50
   4  -4   1  517.85   19.80
  -5   4  -1  291.27   12.90
  -5  -4   1  286.77   13.90
   5   4   1  299.17   13.40
   5   4   1  275.37   11.40
   5  -4  -1  287.47   13.10
   5  -4  -1  281.77   13.30
  -5  -4   1  290.07   13.50
  -5  -4  -1  275.17   13.40
  -5   4   1  295.77   13.30
   5   4  -1  278.17   12.30
   5  -4   1  290.87   13.20
   5  -4   1  264.07   12.60
   5   4  -1  283.97   13.20
  -5  -4  -1  269.57   13.90
  -6   4  -1  410.46   17.60
   6  -4  -1  393.26   17.70
   6   4   1  398.96   17.80
  -6  -4   1  402.76   18.50
   6  -4  -1  392.36   17.30
  -6  -4   1  393.26   17.70
   6  -4   1  378.16   17.50
  -6  -4  -1  375.36   18.40
  -6  -4  -1  395.36   17.80
   6  -4   1  393.96   17.00
   6   4  -1  376.36   17.40
   6   4  -1  392.36   16.40
  -6   4   1  400.06   18.00
  -7   4  -1  158.58    9.10
  -7  -4   1  155.98    9.90
   7   4   1  151.28    9.50
  -7  -4   1  155.98    8.80
   7  -4  -1  146.09    9.00
   7  -4  -1  146.09    9.30
   7  -4   1  147.89    8.70
   7   4  -1  146.69    9.20
  -7  -4  -1  156.48   10.10
  -7  -4  -1  148.09    8.70
   7  -4   1  155.98    9.40
  -7   4   1  166.38    9.60
   7   4  -1  152.78    8.10
   8  -4  -1  260.67   13.70
   8  -4  -1  257.17   13.20
  -8  -4   1  239.78   14.00
   8   4   1  256.87   13.60
  -8   4  -1  242.38   13.20
   8   4  -1  261.37   13.60
   8   4  -1  255.77   11.90
   8  -4   1  242.48   12.60
  -8  -4  -1  246.48   14.40
   8  -4   1  232.48   13.30
   9  -4  -1  144.89    9.50
  -9   4  -1  130.79    8.90
   9  -4  -1  127.89    9.70
   9   4   1  133.39    9.60
  -9  -4   1  146.79   10.20
   9  -4   1  129.39    9.80
  -9  -4  -1  138.29   10.00
   9  -4   1  142.49    8.90
   9   4  -1  139.79    9.70
  10  -4  -1  140.09   10.70
  10   4   1  158.98   11.00
  10  -4  -1  141.79    9.90
  10  -4   1  144.99   10.80
  10   4  -1  138.09   10.40
  10  -4   1  159.78    9.60
  11  -4  -1   72.19    6.70
  11  -4  -1   55.19    7.20
  11   4   1   54.09    7.30
  11   4  -1   61.79    7.20
  11  -4   1   56.69    7.50
  12  -4  -1  101.39    9.70
  12   4   1  114.59    9.90
  12   4  -1  117.79    9.90
  12  -4   1  100.79    9.70
  13  -4  -1   62.29    7.60
  13   4   1   53.49    6.70
  13   4  -1   47.60    6.20
  13  -4   1   49.70    6.80
  14  -4  -1   64.79    7.20
  14   4   1   73.19    7.40
  14   4  -1   54.79    6.30
  14  -4   1   60.69    6.80
   0  -4  -2  119.79    6.00
   0  -4   2  112.39    5.80
   0  -4  -2  117.49    5.50
   0   4  -2  111.09    5.50
   0   4   2  103.59    5.80
   0   4   2  122.09    6.00
   0  -4   2  102.59    6.20
   0  -4  -2  110.89    6.30
   1  -4  -2 1922.91   71.59
   1   4   2 1924.11   70.59
   1  -4  -2 1906.61   72.89
  -1  -4   2 1893.61   69.29
  -1  -4   2 1953.80   73.39
   1   4   2 1940.81   71.69
  -1  -4   2 1932.61   70.59
  -1   4  -2 1850.91   70.09
   1  -4  -2 1946.91   69.19
  -1   4   2 1979.70   71.49
   1   4  -2 1857.31   70.59
  -1   4   2 1934.91   70.69
   1  -4   2 1950.90   72.89
   1  -4   2 1917.61   69.39
  -1  -4  -2 1894.31   73.19
   1   4  -2 1954.70   70.19
  -2  -4   2 4808.82  193.68
  -2  -4   2 5339.87  188.08
   2  -4  -2 5046.70  187.88
  -2  -4   2 4603.74  197.68
  -2   4  -2 5473.15  192.68
  -2   4  -2 5576.94  192.68
   2   4   2 5782.92  194.78
   2  -4  -2 5181.78  197.18
   2   4   2 5213.48  191.38
   2  -4   2 5292.37  191.08
   2  -4   2 5312.97  197.08
  -2   4   2 5524.45  191.58
  -2  -4  -2 5294.87  197.98
   2   4  -2 5079.39  190.88
  -2   4   2 5410.86  194.18
   2  -4   2 5586.84  188.08
   2   4  -2 5668.53  193.88
   3  -4  -2 1245.38   46.90
  -3  -4   2 1278.67   48.80
   3  -4  -2 1254.27   47.50
   3   4   2 1258.47   46.90
  -3   4  -2 1103.69   46.10
  -3   4  -2 1278.07   46.30
  -3   4  -2 1213.18   47.40
  -3  -4   2 1254.47   47.40
  -3  -4  -2 1238.98   48.70
   3  -4   2 1235.38   46.50
  -3   4   2 1149.98   47.40
   3  -4   2 1290.97   47.40
  -3   4   2 1339.27   47.60
   3  -4   2 1238.48   45.90
   3   4  -2 1265.67   46.50
   4  -4  -2  163.28    8.50
   4  -4  -2  156.58    8.50
  -4  -4   2  157.58    8.90
  -4   4  -2  149.79    7.20
   4   4   2  167.98    8.60
  -4   4  -2  178.68    7.90
  -4  -4   2  172.08    8.80
   4  -4  -2  162.28    7.50
   4  -4   2  181.08    7.50
  -4   4   2  146.49    7.30
   4  -4   2  170.58    8.30
   4   4  -2  146.89    8.00
  -4  -4  -2  167.58    9.20
   4   4  -2  173.58    8.40
   4  -4   2  163.68    8.30
  -4   4   2  163.48    8.60
  -4  -4  -2  169.78    9.10
  -5  -4   2 1209.88   46.50
   5   4   2 1214.18   45.50
   5  -4  -2 1152.98   44.30
  -5  -4   2 1144.99   46.70
  -5   4  -2 1219.68   45.40
  -5   4  -2 1188.28   44.30
   5  -4  -2 1201.78   44.80
   5  -4  -2 1155.08   45.40
   5  -4   2 1160.78   44.10
  -5  -4  -2 1111.99   46.50
  -5  -4  -2 1169.38   46.70
   5  -4   2 1138.79   45.00
  -5   4   2 1234.88   46.30
   5   4  -2 1180.78   44.20
   5   4  -2 1188.18   45.10
   6  -4  -2 2721.43  100.39
   6  -4  -2 2801.42  102.39
  -6  -4   2 2800.32  105.19
  -6  -4   2 2736.83  104.39
   6   4   2 2702.93  102.29
  -6   4  -2 2773.42  103.29
   6   4  -2 2721.83   99.69
   6  -4   2 2710.73  101.99
  -6  -4  -2 2752.72  104.79
   6   4  -2 2644.14  101.79
  -6  -4  -2 2768.02  105.19
  -6   4   2 2923.11  104.29
   6  -4   2 2784.12   99.89
  -7  -4   2  560.74   24.40
   7  -4  -2  542.85   24.40
  -7   4  -2  542.15   24.10
   7   4   2  589.44   24.70
  -7  -4   2  581.54   25.50
   7  -4  -2  566.84   24.00
   7  -4   2  570.54   24.40
   7   4  -2  540.95   23.00
  -7  -4  -2  573.84   25.90
   7  -4   2  558.04   23.20
  -7   4   2  560.54   25.00
  -7  -4  -2  566.94   24.50
   7   4  -2  564.84   24.10
  -8  -4   2  105.69    8.30
   8  -4  -2  116.19    8.40
   8   4   2  111.49    8.30
  -8   4  -2  113.29    7.50
   8  -4  -2  100.69    7.90
   8   4  -2  103.39    7.10
   8  -4   2  108.79    7.20
   8  -4   2  115.99    8.30
   8   4  -2  107.89    7.90
  -8  -4  -2   94.19    8.20
   9   4   2  485.55   22.20
   9  -4  -2  488.55   22.40
   9  -4  -2  512.15   22.00
  -9   4  -2  441.66   22.30
   9  -4   2  487.55   22.30
   9   4  -2  478.05   20.40
  -9  -4  -2  415.16   24.30
   9  -4   2  467.75   20.40
   9   4  -2  386.66   21.10
  10   4   2 1146.09   48.90
  10  -4  -2 1166.68   49.00
  10  -4  -2 1210.68   47.90
  10  -4   2 1218.78   49.20
  10   4  -2 1209.28   48.60
  11  -4  -2  268.97   16.00
  11   4   2  261.97   15.80
  11  -4  -2  251.57   14.90
  11  -4   2  284.27   16.20
  11   4  -2  278.47   15.70
  12   4   2   35.70    6.90
  12  -4  -2   42.10    5.30
  12  -4  -2   26.70    6.50
  12  -4   2   29.10    6.90
  12   4  -2   23.30    5.70
  13  -4  -2  181.98   12.50
  13   4   2  148.19   11.60
  13  -4   2  155.98   11.80
  13   4  -2  168.58   11.60
  14  -4  -2  548.35   27.00
  14   4   2  539.55   26.70
  14  -4   2  574.24   27.40
  14   4  -2  558.44   26.70
   0  -4   3  566.64   20.70
   0   4   3  481.25   20.50
   0   4  -3  480.65   20.00
   0  -4   3  520.55   21.70
   0  -4  -3  526.75   21.90
   0  -4   3  516.65   19.70
   0   4  -3  519.95   19.70
   0  -4  -3  549.54   20.00
   0   4   3  532.35   21.30
   1  -4  -3  369.86   14.80
  -1   4  -3  370.76   14.00
  -1  -4   3  348.77   15.20
  -1  -4   3  362.86   14.60
   1   4   3  358.86   15.20
   1   4   3  351.76   15.70
  -1  -4   3  373.06   16.40
  -1   4  -3  360.36   14.60
   1  -4  -3  370.36   16.10
   1   4  -3  362.56   14.60
  -1   4   3  369.16   15.70
  -1   4   3  349.37   15.10
   1  -4   3  370.86   15.10
   1  -4   3  391.06   16.00
   1  -4   3  384.16   14.00
  -1  -4  -3  405.36   16.50
   1   4  -3  344.37   14.50
   2  -4  -3  301.27   14.80
   2  -4  -3  330.17   14.40
  -2  -4   3  294.87   15.30
  -2   4  -3  377.56   13.50
   2   4   3  382.06   15.60
  -2  -4   3  335.97   14.30
  -2  -4   3  319.67   14.50
  -2   4  -3  389.06   13.40
   2   4   3  380.76   14.80
   2  -4   3  391.76   14.60
   2  -4   3  387.26   15.00
   2   4  -3  288.87   14.10
  -2   4   3  310.17   14.80
   2   4  -3  313.47   13.80
  -2  -4  -3  389.26   15.80
  -2   4   3  309.27   14.40
   2  -4   3  357.86   14.10
  -3  -4   3   55.99    4.20
   3  -4  -3   54.59    4.20
  -3   4  -3   55.09    3.30
  -3  -4   3   67.09    5.10
   3  -4  -3   49.70    4.40
   3  -4  -3   64.29    4.50
   3   4   3   61.99    4.50
   3   4   3   52.29    4.70
   3  -4   3   64.49    4.10
  -3  -4  -3   56.09    4.80
   3  -4   3   59.19    4.20
  -3   4   3   53.79    4.50
   3  -4   3   61.49    4.00
   3   4  -3   59.69    4.60
   3   4  -3   58.49    3.90
  -4  -4   3  294.07   13.90
   4  -4  -3  292.87   13.70
  -4  -4   3  276.87   14.30
   4   4   3  314.67   13.80
   4  -4  -3  295.67   13.70
   4  -4  -3  257.07   12.80
  -4   4  -3  350.66   13.30
  -4   4   3  291.47   14.10
   4   4  -3  267.87   13.30
  -4  -4  -3  315.57   14.90
   4  -4   3  344.17   13.10
   4   4  -3  268.27   12.90
   4  -4   3  330.47   13.50
   4  -4   3  328.97   13.40
  -4  -4  -3  311.77   14.40
  -5  -4   3  354.46   17.00
   5  -4  -3  362.66   16.50
  -5  -4   3  352.66   17.00
  -5   4  -3  377.46   16.10
   5  -4  -3  364.76   15.10
  -5   4  -3  366.26   15.10
   5   4   3  372.96   16.50
   5  -4  -3  363.76   16.40
  -5   4   3  391.26   17.20
  -5  -4  -3  356.66   17.50
  -5  -4  -3  378.06   17.10
   5  -4   3  363.56   16.00
   5   4  -3  359.76   16.10
   5  -4   3  381.06   15.80
   5   4  -3  349.37   15.80
   6   4   3  301.57   14.40
  -6  -4   3  287.57   14.90
   6  -4  -3  294.47   14.30
  -6  -4   3  283.37   14.30
   6  -4  -3  297.67   14.50
  -6   4  -3  290.97   13.90
   6  -4   3  307.67   14.10
  -6   4   3  270.07   14.60
  -6  -4  -3  315.27   14.60
   6   4  -3  279.37   13.60
   6  -4   3  306.37   13.50
  -6  -4  -3  298.47   15.40
  -7  -4   3   70.99    6.60
   7   4   3   64.09    6.20
  -7   4  -3   72.99    5.70
   7  -4  -3   67.19    6.10
  -7  -4   3   65.09    5.40
   7  -4  -3   75.19    6.80
   7  -4   3   76.69    6.30
  -7  -4  -3   80.69    5.90
  -7   4   3   71.19    6.40
   7  -4   3   77.89    5.60
   7   4  -3   71.99    5.90
  -7  -4  -3   87.89    7.30
   7   4  -3   67.99    5.90
   8  -4  -3  120.59    8.60
   8  -4  -3  109.29    8.40
  -8  -4   3  104.39    8.30
   8   4   3  109.39    8.30
  -8   4  -3  113.89    7.70
   8   4  -3  102.29    7.50
   8  -4   3  108.99    7.10
   8  -4   3  112.19    8.30
  -8  -4  -3  105.79    8.80
   8   4  -3  114.39    7.90
  -8   4   3  107.39    8.30
   9  -4  -3   72.29    7.20
   9  -4  -3   77.09    7.40
   9   4   3   80.09    7.40
   9   4  -3   65.99    6.60
   9  -4   3   73.69    7.10
  -9   4   3   75.29    6.70
   9   4  -3   66.89    6.40
  10   4   3  108.59    9.20
  10  -4  -3  102.69    8.80
  10  -4  -3   99.59    8.80
  10   4  -3  102.09    7.80
  10   4  -3  111.39    8.60
  10  -4   3  100.69    8.90
  11  -4  -3   79.09    8.30
  11   4   3   80.09    8.10
  11  -4  -3   81.39    8.20
  11   4  -3   75.89    7.40
  11  -4   3   74.09    8.00
  12   4   3   65.79    7.70
  12  -4  -3   57.89    7.30
  12  -4  -3   66.49    7.20
  12   4  -3   67.29    6.80
  12  -4   3   55.99    7.40
  13  -4  -3   17.50    4.90
  13  -4  -3   14.30    3.70
  13   4   3   29.10    5.90
  13   4  -3   20.90    4.40
  13  -4   3   22.60    5.40
   0  -4  -4 4641.34  160.68
   0  -4  -4 4599.84  170.28
   0  -4   4 4477.65  161.48
   0   4   4 4507.75  164.08
   0   4   4 4726.03  167.58
   0  -4   4 4748.82  165.78
   0   4  -4 4630.94  165.78
   0  -4   4 3975.60  169.78
  -1  -4   4 1196.88   43.90
  -1   4  -4 1095.19   42.90
   1  -4  -4 1195.18   46.00
   1  -4  -4 1207.68   43.10
  -1   4  -4 1135.79   43.40
   1   4   4 1129.79   43.80
  -1  -4   4 1184.28   46.10
  -1  -4   4 1176.08   43.70
   1   4   4 1161.08   45.30
  -1  -4  -4 1137.79   42.20
   1  -4   4 1212.58   45.80
  -1  -4  -4 1213.58   46.30
  -1   4   4 1190.08   45.30
  -1   4   4 1118.09   43.70
   1   4  -4 1108.69   43.80
   1  -4   4 1128.39   43.20
   1  -4   4 1216.38   43.50
  -2  -4   4  169.88    9.40
   2  -4  -4  176.98    9.20
  -2   4  -4  163.18    7.40
   2   4   4  174.18    9.30
   2  -4  -4  168.08    8.50
   2   4   4  168.48    8.40
  -2  -4   4  174.58    8.30
   2   4  -4  158.18    7.50
  -2   4   4  170.08    9.20
  -2   4   4  171.38    8.40
   2  -4   4  168.68    8.80
   2   4  -4  179.18    9.00
   2  -4   4  174.78    8.40
  -2  -4  -4  180.48    9.70
   3  -4  -4  753.02   29.80
  -3  -4   4  754.22   30.60
   3   4   4  701.43   28.80
   3  -4  -4  763.92   28.90
   3   4   4  708.23   30.20
  -3   4  -4  671.03   28.10
  -3  -4   4  755.82   29.40
  -3   4  -4  733.13   28.50
   3  -4   4  715.73   28.20
  -3  -4  -4  737.03   30.60
  -3   4   4  756.92   30.10
  -3   4   4  734.93   29.00
   3  -4   4  717.93   28.20
   3   4  -4  732.53   29.00
   3   4  -4  711.03   28.00
   3  -4   4  799.12   29.80
  -4  -4   4 3385.86  130.09
  -4   4  -4 3510.55  126.69
   4   4   4 3515.55  125.49
  -4  -4   4 3476.35  127.79
   4   4   4 3421.96  128.79
   4  -4  -4 3361.26  128.79
   4  -4  -4 3266.17  125.29
   4  -4  -4 3377.16  123.59
   4  -4   4 3433.06  122.89
  -4  -4  -4 3578.24  130.29
   4  -4   4 3413.26  124.89
   4   4  -4 3375.86  123.59
   4  -4   4 3750.92  128.89
   4   4  -4 3119.59  124.39
  -4   4   4 3464.25  128.29
  -5  -4   4  927.71   36.70
  -5  -4   4 1016.90   37.40
   5  -4  -4  892.81   35.60
   5  -4  -4  867.61   35.20
   5   4   4  879.21   35.50
  -5   4  -4  848.82   35.10
   5  -4  -4  885.91   35.30
  -5   4  -4  912.61   35.50
   5   4  -4  896.11   35.20
   5  -4   4  849.22   34.80
   5  -4   4  893.51   34.30
   5   4  -4  879.21   34.60
  -5   4   4  878.31   36.70
  -5  -4  -4  898.31   37.40
  -6  -4   4   97.09    7.10
  -6   4  -4  107.89    6.90
  -6  -4   4   99.19    7.60
   6  -4  -4  116.59    7.90
   6  -4  -4  102.69    7.10
   6   4   4   98.99    7.20
  -6  -4  -4  102.59    7.30
   6  -4   4  104.99    6.40
  -6   4   4  109.19    7.90
   6  -4   4  116.49    7.10
  -6  -4  -4  109.09    8.20
   6   4  -4   97.49    7.30
   6   4  -4  100.89    6.50
  -7  -4   4  379.86   18.40
  -7   4  -4  376.76   18.20
   7  -4  -4  405.96   18.90
  -7  -4   4  403.86   19.70
   7  -4  -4  389.06   18.40
   7   4   4  408.56   18.80
   7   4  -4  407.66   18.30
   7  -4   4  414.76   17.20
  -7  -4  -4  377.46   19.80
  -7  -4  -4  388.86   18.50
   7  -4   4  399.76   18.30
   7   4  -4  393.46   17.80
  -7   4   4  380.56   19.20
   8   4   4 1500.65   61.19
   8  -4  -4 1619.54   61.49
  -8  -4   4 1485.25   63.19
   8  -4  -4 1585.34   60.89
  -8  -4  -4 1648.54   64.49
  -8   4   4 1536.45   62.99
   8  -4   4 1675.73   61.39
   8   4  -4 1536.25   60.39
   8   4  -4 1546.65   59.89
   9  -4  -4  356.26   17.90
   9   4   4  333.07   17.60
   9  -4  -4  346.67   17.70
   9   4  -4  336.07   16.80
   9  -4   4  322.87   17.20
   9   4  -4  350.96   17.10
  10   4   4   40.70    7.00
  10  -4  -4   31.50    6.20
  10  -4  -4   34.90    6.40
  10  -4   4   36.30    6.50
  10   4  -4   40.70    6.10
  10   4  -4   37.90    5.90
  11   4   4  197.88   13.30
  11  -4  -4  211.38   13.30
  11  -4  -4  186.98   13.10
  11  -4   4  222.68   13.70
  11   4  -4  200.38   12.40
  12   4   4  721.53   33.30
  12  -4  -4  775.92   33.30
  12  -4  -4  710.53   33.20
  12  -4   4  759.02   33.80
  12   4  -4  720.03   32.20
  13  -4  -4  113.99    9.10
  13   4   4  120.59    9.60
  13  -4  -4  109.99    9.30
  13  -4   4  116.79    9.50
   0  -4   5  501.95   20.20
   0  -4   5  494.05   22.00
   0   4   5  485.85   21.80
   0   4   5  505.45   20.40
   0  -4  -5  536.45   22.50
   0  -4   5  518.65   20.90
   0  -4  -5  508.45   19.80
  -1  -4   5  273.07   12.10
   1   4   5  268.57   12.10
  -1  -4   5  278.87   13.70
   1  -4  -5  274.47   12.10
   1   4   5  254.37   13.30
   1  -4  -5  276.57   13.80
  -1   4   5  276.47   12.20
  -1  -4  -5  257.37   11.20
  -1   4   5  284.67   13.60
   1  -4   5  292.87   12.00
   1  -4   5  296.47   13.50
  -1  -4  -5  303.87   14.10
   1  -4   5  273.57   12.50
   2  -4  -5  644.04   26.50
   2   4   5  577.94   24.60
  -2  -4   5  609.04   26.60
  -2   4  -5  598.04   23.80
  -2  -4   5  649.04   25.20
   2  -4  -5  600.34   24.60
   2   4   5  651.53   26.50
   2  -4   5  654.73   24.60
  -2   4   5  625.94   26.30
  -2   4   5  588.24   24.50
   2  -4   5  629.44   26.10
   2  -4   5  631.54   24.50
  -2  -4  -5  646.14   26.90
   2   4  -5  587.14   25.10
   3  -4  -5  322.07   14.80
   3  -4  -5  336.57   15.50
   3   4   5  324.67   14.50
  -3  -4   5  333.47   15.00
  -3  -4   5  326.47   15.90
  -3   4  -5  318.07   14.20
   3   4   5  318.27   15.80
   3  -4   5  327.97   14.20
  -3   4   5  318.47   14.30
   3   4  -5  335.37   15.30
  -3  -4  -5  340.57   16.20
  -3   4   5  322.57   15.70
   3  -4   5  332.07   15.10
   3  -4   5  325.87   13.60
  -4   4  -5  464.95   19.10
  -4  -4   5  410.46   20.30
  -4  -4   5  441.76   19.90
   4   4   5  459.65   19.30
   4   4   5  457.85   21.10
   4  -4  -5  433.96   19.50
   4  -4  -5  440.76   19.70
  -4  -4  -5  472.75   20.80
   4  -4   5  477.85   18.80
  -4   4   5  432.06   19.10
   4   4  -5  456.05   19.80
   4  -4   5  453.65   18.50
  -4   4   5  445.56   20.60
   5  -4  -5  183.48   10.80
   5  -4  -5  175.78    9.90
  -5   4  -5  201.08   10.00
  -5  -4   5  159.88   10.50
   5  -4  -5  182.38    9.80
  -5  -4   5  199.98   11.00
  -5   4  -5  200.68    9.80
   5   4   5  189.48   10.20
  -5  -4  -5  219.18   11.40
  -5   4   5  188.38   11.20
   5  -4   5  186.38    9.50
   5   4  -5  205.98   11.10
   5  -4   5  198.58    9.60
   6  -4  -5  337.97   17.40
  -6  -4   5  351.66   17.90
  -6  -4   5  336.27   17.50
   6  -4  -5  353.16   17.00
   6   4   5  386.56   17.40
  -6   4  -5  369.36   17.40
   6  -4   5  379.26   16.00
  -6   4   5  341.47   18.10
  -6  -4  -5  395.96   19.10
   6  -4   5  405.56   16.80
  -6  -4  -5  393.56   18.00
   6   4  -5  349.67   17.30
   7   4   5  149.39    9.50
  -7  -4   5  138.09    9.70
  -7  -4   5  130.99    8.80
   7  -4  -5  158.98    9.50
   7  -4  -5  143.99   10.00
  -7  -4  -5  144.39   10.30
   7   4  -5  154.78    9.80
  -7  -4  -5  151.38    9.20
  -7   4   5  117.99    9.30
   7   4  -5  150.48    9.00
   7  -4   5  147.89    8.90
   8  -4  -5  236.48   14.00
   8   4   5  255.97   13.60
   8  -4  -5  235.78   13.20
  -8   4   5  236.08   14.20
   8  -4   5  251.57   13.10
   8   4  -5  225.68   13.40
   9   4   5  123.49    9.30
   9  -4  -5  123.79    9.20
   9  -4  -5  116.69    9.80
   9   4  -5  123.79    9.30
   9  -4   5  124.29    8.90
  10   4   5  140.39   10.50
  10  -4  -5  145.29   10.40
  10  -4  -5  158.58   11.60
  10   4  -5  158.48   10.80
  10  -4   5  147.89   10.40
  11   4   5   52.39    6.90
  11  -4  -5   56.79    7.50
  11  -4  -5   55.39    6.40
  11  -4   5   56.59    6.50
  11   4  -5   48.80    6.40
  12  -4  -5   92.69    9.40
  12   4   5  117.79    9.30
  12  -4  -5  116.09    9.20
  12  -4   5  104.89    9.00
  13   4   5   55.89    6.50
  13  -4  -5   49.00    5.90
  13  -4  -5   52.29    6.20
  13  -4   5   49.99    5.70
   0  -4  -6  266.47   11.60
   0  -4   6  279.97   12.20
   0  -4   6  274.67   13.70
   0   4   6  261.87   13.60
   0  -4  -6  273.67   14.20
   0   4   6  254.27   11.80
   1  -4  -6 1128.29   44.10
  -1  -4   6 1089.89   43.80
   1   4   6 1068.59   43.30
   1  -4  -6 1087.19   40.50
   1   4   6 1004.20   40.70
  -1  -4   6 1107.99   41.80
  -1   4   6 1053.09   40.80
  -1   4   6 1049.40   43.20
  -1  -4  -6 1108.59   44.10
   1  -4   6 1042.20   40.90
   1  -4   6 1106.39   43.70
   1   4  -6 1074.39   41.40
   1  -4   6 1074.59   41.40
   2  -4  -6 2801.22  102.39
   2   4   6 2646.54  103.49
   2  -4  -6 2906.71  108.59
  -2  -4   6 2840.62  105.59
   2   4   6 2877.61  107.29
  -2  -4   6 2720.03  108.49
   2   4  -6 2843.62  103.19
  -2  -4  -6 2848.81  108.79
  -2   4   6 2691.63  103.39
  -2   4   6 2856.11  107.19
   2  -4   6 2905.21  108.19
   2  -4   6 2951.90  105.29
   2  -4   6 2917.51  102.59
  -3  -4   6  651.03   27.00
  -3  -4   6  646.34   28.40
   3   4   6  659.03   28.30
   3  -4  -6  655.53   26.50
   3  -4  -6  659.53   28.00
   3   4   6  623.14   26.00
  -3   4   6  631.84   25.90
   3  -4   6  690.03   27.80
   3  -4   6  626.24   25.70
   3   4  -6  649.64   27.00
  -3   4   6  653.43   28.30
  -3  -4  -6  649.64   28.50
   4   4   6  118.89    8.70
   4  -4  -6  124.39    8.30
   4  -4  -6  131.39    8.40
   4   4   6  129.99    7.70
  -4   4  -6  127.19    7.30
  -4   4  -6  134.39    8.20
  -4  -4   6  132.19    8.80
  -4  -4   6  135.19    8.20
  -4   4   6  124.49    7.30
   4  -4   6  126.79    7.20
  -4  -4  -6  125.79    8.80
   4   4  -6  135.29    8.80
  -4   4   6  115.99    8.50
   5  -4  -6  869.21   34.90
   5  -4  -6  855.41   35.40
  -5  -4   6  903.31   36.80
  -5   4  -6  812.32   35.40
   5   4   6  832.22   34.40
  -5  -4   6  885.31   35.90
  -5   4   6  865.91   36.60
  -5   4   6  859.11   34.30
   5   4  -6  885.81   35.30
  -5  -4  -6  839.12   36.30
   5  -4   6  861.71   33.60
   5  -4   6  845.52   33.20
  -6  -4   6 2087.29   84.49
  -6  -4   6 2176.88   83.89
   6  -4  -6 2095.39   81.09
   6   4   6 2240.78   81.59
   6  -4   6 2195.88   80.59
  -6  -4  -6 2150.28   84.79
   6   4  -6 2121.49   81.09
  -6   4   6 2153.18   84.39
  -6  -4  -6 2206.78   84.69
  -7  -4   6  409.86   20.00
   7  -4  -6  402.66   18.40
  -7  -4   6  372.96   18.90
   7   4   6  380.66   18.50
   7  -4  -6  403.06   19.50
  -7   4   6  387.76   20.10
   7  -4   6  403.66   18.00
  -7  -4  -6  378.26   20.40
  -7  -4  -6  370.76   18.90
   7   4  -6  386.46   19.10
   8  -4  -6   40.00    6.70
   8  -4  -6   32.40    4.50
   8   4   6   35.20    5.00
   8   4  -6   40.40    6.80
   8  -4   6   32.20    4.40
   9   4   6  366.06   18.70
   9  -4  -6  340.47   18.10
   9  -4  -6  385.46   19.90
   9   4  -6  365.16   19.00
   9  -4   6  373.36   18.20
  10  -4  -6 1071.49   44.80
  10  -4  -6 1110.39   45.60
  10   4   6 1018.50   44.70
  10  -4   6 1102.49   44.70
  10   4  -6 1094.59   44.80
  11   4   6  243.38   14.80
  11  -4  -6  261.97   15.80
  11  -4  -6  245.68   15.30
  11  -4   6  267.67   14.70
  11   4  -6  250.67   15.10
  12  -4  -6   31.30    6.00
  12   4  -6   20.30    5.30
  12  -4   6   27.90    5.30
   0   4   7  229.88   12.80
   0   4   7  237.98   11.10
   0  -4  -7  231.58   10.50
   0  -4   7  234.68   11.30
   0  -4  -7  228.88   13.20
   0  -4   7  222.18   12.60
   0   4  -7  231.48   11.90
   1  -4  -7  169.28    8.90
   1   4   7  155.48    8.30
  -1   4  -7  162.58    9.30
   1   4   7  164.98   10.40
  -1  -4   7  180.98   10.70
   1  -4  -7  180.28   10.90
  -1  -4   7  167.18    9.00
   1  -4   7  177.78    9.00
   1   4  -7  170.28    9.80
  -1  -4  -7  176.78   11.00
  -1   4   7  184.58   10.70
   1  -4   7  158.08   10.10
   2   4   7  176.78    9.40
   2   4   7  213.48   11.80
   2  -4  -7  203.48   12.00
  -2  -4   7  186.48   11.50
   2  -4  -7  199.88   10.20
  -2  -4   7  191.88   10.30
   2   4  -7  188.78   10.80
   2  -4   7  200.88   11.30
  -2   4   7  181.28   11.30
   2  -4   7  196.48   10.20
  -2  -4  -7  199.78   11.90
   2  -4   7  207.18   10.10
  -3  -4   7   91.09    6.60
   3  -4  -7   92.09    6.90
  -3   4  -7  100.79    7.70
   3  -4  -7   98.59    7.80
   3   4   7   78.29    7.20
   3   4   7   93.89    6.00
  -3  -4   7  104.99    7.80
   3   4  -7   95.49    7.50
  -3   4   7  100.09    7.70
  -3  -4  -7   97.59    7.90
   3  -4   7   98.39    6.40
   4  -4  -7  163.78   10.50
   4  -4  -7  169.08   10.30
  -4   4  -7  185.08   10.70
   4   4   7  175.88    9.40
  -4  -4   7  156.68    9.90
   4   4   7  184.58   11.30
  -4  -4   7  168.78   10.80
  -4   4   7  183.08   11.20
   4  -4   7  185.78    9.40
  -4  -4  -7  171.88   11.10
   4   4  -7  168.88   10.80
  -5  -4   7  155.08    9.60
   5   4   7  148.39   10.50
   5   4   7  145.49    8.60
  -5  -4   7  136.49    9.60
   5  -4  -7  154.38   10.00
   5   4  -7  157.78   10.40
  -5   4   7  139.29    9.90
  -5  -4  -7  136.49    9.70
  -6  -4   7  151.68   10.30
   6  -4  -7  165.48   11.00
   6   4   7  178.18   10.00
  -6  -4   7  143.79   10.20
  -6  -4  -7  171.38   10.60
  -6   4   7  168.18   11.00
   6   4  -7  175.98   11.40
  -7  -4   7   67.59    6.10
   7  -4  -7   66.49    7.60
  -7  -4   7   61.69    6.80
   7   4   7   69.59    6.30
  -7  -4  -7   65.29    5.80
   7   4  -7   67.39    7.90
   8   4   7   90.79    7.30
   8  -4  -7   88.59    8.70
   8   4  -7   75.79    8.30
   9   4   7   59.49    6.10
   9  -4  -7   59.59    8.90
   9   4  -7   63.79    8.00
  10   4   7   82.39    7.50
  10  -4  -7   90.49    9.50
  10   4  -7   76.39    8.70
  11  -4  -7   49.50    8.10
  11   4   7   56.69    5.60
  11   4  -7   32.60    6.70
  12  -4  -7   51.29    7.20
  12   4  -7   36.20    6.40
   0   4   8 1723.33   68.49
   0   4  -8 1712.93   65.09
   0  -4  -8 1712.83   69.49
   0  -4   8 1760.32   69.29
   0  -4   8 1741.73   66.49
   1  -4  -8  461.25   23.10
  -1  -4   8  479.05   21.30
  -1  -4   8  475.65   23.10
   1  -4  -8  500.25   20.50
   1   4   8  485.75   23.10
  -1   4  -8  474.55   21.10
   1  -4   8  518.45   23.30
  -1   4   8  493.35   23.20
   1   4  -8  491.55   21.60
  -1  -4  -8  484.35   23.50
   2   4   8   90.99    7.60
  -2   4  -8   96.89    8.10
  -2  -4   8   95.79    6.80
   2  -4  -8   97.09    8.30
   2  -4  -8   97.59    6.90
  -2   4  -8  104.19    7.00
  -2  -4   8   95.59    7.80
  -2  -4  -8   90.09    8.30
   2   4  -8  107.79    7.90
  -2   4   8   95.89    7.70
   3   4   8  360.46   19.50
  -3   4  -8  387.46   19.70
  -3   4  -8  403.96   17.60
  -3  -4   8  402.96   20.00
   3  -4  -8  391.76   19.80
  -3  -4   8  403.96   18.60
   3  -4  -8  395.56   18.20
  -3   4   8  387.06   19.80
   3   4  -8  393.26   18.90
   4  -4  -8 1541.55   62.19
  -4  -4   8 1584.84   62.79
  -4  -4   8 1536.15   60.79
  -4   4  -8 1500.35   61.99
   4   4   8 1486.15   61.99
   4  -4  -8 1575.24   59.19
   4   4  -8 1576.14   59.89
  -4   4   8 1502.35   62.09
  -5  -4   8  365.56   18.70
   5  -4  -8  388.56   18.80
  -5  -4   8  357.46   19.20
   5   4  -8  407.06   19.50
  -5  -4  -8  379.76   19.60
  -6  -4   8   31.00    3.90
   6  -4  -8   24.80    5.90
   6   4  -8   45.40    7.40
   7  -4  -8  223.68   14.00
   7   4   8  210.78   12.20
   7   4  -8  221.48   14.10
   8  -4  -8 1066.39   45.70
   8   4   8 1127.59   44.70
   8   4  -8 1088.79   45.80
   9  -4  -8  204.98   14.70
   9   4   8  231.58   13.30
   9   4  -8  233.58   15.10
  10  -4  -8   17.50    5.50
  10   4  -8    6.10    4.80
  11  -4  -8  143.29   11.50
  11   4  -8  130.09   10.80
   0   4   9  219.48   13.40
   0   4  -9  230.98   12.50
   1  -4  -9  130.39   10.20
  -1  -4   9  120.89    9.40
   1   4   9  122.49    9.30
  -1   4  -9  130.59    9.90
  -1   4  -9  122.39    8.40
   1   4  -9  130.39    9.20
  -1  -4  -9  126.19   10.20
  -1   4   9  126.29    9.60
  -2   4  -9  152.98   10.90
   2  -4  -9  161.58    9.50
  -2  -4   9  158.68   10.90
   2  -4  -9  149.39   11.00
  -2   4  -9  164.78    9.50
   2   4   9  151.98   10.60
   2   4  -9  157.38   10.40
  -2  -4  -9  141.19   11.10
  -2   4   9  158.08   10.60
   3  -4  -9   50.49    6.50
  -3   4  -9   65.19    6.40
   3  -4  -9   63.39    6.10
   3   4  -9   67.29    7.20
  -4   4  -9  140.89   10.00
   4  -4  -9  134.99   10.40
   4  -4  -9  170.68   10.40
   4   4  -9  141.09   10.60
   5  -4  -9  128.09    9.80
   5   4  -9  119.89   10.00
   6  -4  -9  163.18   11.60
   6   4  -9  142.49   11.30
   7  -4  -9   45.70    7.90
   7   4  -9   50.29    8.40
   8  -4  -9   79.19    9.10
   8   4  -9   86.09    9.40
   9  -4  -9   59.39    8.90
   9   4  -9   44.60    8.30
  10  -4  -9   86.29    9.50
  10   4  -9   97.39    9.60
  11  -4  -9   52.39    8.20
  11   4  -9   37.30    7.30
   0   4 -10   70.59    6.90
  -1   4 -10  337.07   17.00
   1   4 -10  363.46   17.90
   2   4 -10 1219.28   48.90
   3  -4 -10  267.07   14.00
   3   4 -10  236.48   14.60
   4  -4 -10   46.60    6.90
   4   4 -10   47.40    7.30
   5  -4 -10  315.27   17.40
   5   4 -10  325.17   18.10
   6  -4 -10  978.70   42.40
   6   4 -10 1033.50   43.00
   7  -4 -10  171.78   12.60
   7   4 -10  171.78   12.90
   8  -4 -10   17.20    5.50
   8   4 -10    8.50    5.20
   9  -4 -10  183.68   13.20
   9   4 -10  169.08   13.30
  10  -4 -10  578.44   28.70
  10   4 -10  622.24   29.30
   0   4 -11  108.69    8.50
   1   4 -11   59.59    6.70
   2   4 -11   98.89    8.90
   3   4 -11   74.69    8.10
   4  -4 -11  102.89    8.40
   4   4 -11   72.09    8.20
   5  -4 -11   32.40    6.10
   5   4 -11   63.49    8.90
   6  -4 -11   81.39    8.30
   6   4 -11   69.59    9.10
   7  -4 -11   53.39    8.40
   7   4 -11   44.90    8.30
   8  -4 -11   59.39    7.80
   8   4 -11   70.99    8.80
   9  -4 -11   48.10    8.10
   9   4 -11   59.39    7.80
   1   4 -12  267.47   15.10
   2   4 -12   25.20    5.30
   3   4 -12  191.38   12.70
   4   4 -12  755.92   33.90
   5  -4 -12  241.58   14.00
   5   4 -12  207.88   14.40
   6  -4 -12   26.10    5.70
   6   4 -12   23.20    5.50
   7  -4 -12  144.79   11.10
   7   4 -12  144.89   12.00
   8  -4 -12  495.15   25.20
   8   4 -12  523.75   25.90
   2   4 -13   64.59    6.50
   3   4 -13   30.80    5.40
   4   4 -13   49.10    6.60
   5   4 -13   47.70    7.70
   6   4 -13   65.19    7.90
   4   4 -14   -0.60    2.80
   0  -5   0   78.39    3.50
   0   5   0   68.69    4.60
   0  -5   0   69.09    4.30
   0  -5   0   70.29    5.00
   1  -5   0   81.29    4.70
   1   5   0   69.69    4.60
  -1  -5   0   75.99    3.90
   1  -5   0   77.19    4.90
  -1   5   0   72.79    3.40
  -1   5   0   65.99    4.60
  -1  -5   0   73.29    4.00
  -1  -5   0   67.59    4.20
  -1  -5   0   75.59    5.20
  -2   5   0   71.29    3.60
  -2  -5   0   76.39    4.40
  -2  -5   0   72.09    4.50
   2   5   0   71.89    4.80
   2  -5   0   72.89    4.60
  -2  -5   0   68.79    5.30
   2  -5   0   74.09    3.70
   2  -5   0   82.49    5.00
  -2  -5   0   75.79    4.30
  -3  -5   0  252.07   11.90
  -3  -5   0  243.48   12.50
   3   5   0  260.07   12.00
   3  -5   0  266.47   11.30
   3  -5   0  260.27   11.90
  -3  -5   0  278.47   11.30
   3  -5   0  241.68   10.90
  -3   5   0  285.57   11.00
   3  -5   0  252.07   11.70
  -4   5   0   24.30    2.50
   4   5   0   30.50    2.80
  -4  -5   0   28.90    3.60
   4  -5   0   27.00    2.20
  -4  -5   0   28.90    3.80
   4  -5   0   27.20    3.40
  -4   5   0   24.90    2.70
   4   5   0   23.60    3.40
   4  -5   0   31.70    3.50
  -5  -5   0   10.30    2.80
   5   5   0   11.70    2.20
  -5  -5   0   12.70    3.20
   5  -5   0    8.80    2.90
   5  -5   0   11.70    2.90
   5   5   0    8.10    2.80
  -5   5   0   10.00    2.20
   6   5   0   43.90    4.90
   6   5   0   42.10    3.60
   6  -5   0   48.20    4.90
   6  -5   0   44.60    4.80
  -6   5   0   42.20    4.10
  -6  -5   0   46.80    5.00
  -6  -5   0   45.50    4.40
   7   5   0   46.80    5.30
  -7   5   0   42.00    4.40
   7  -5   0   43.70    5.00
  -7  -5   0   51.79    5.60
  -7  -5   0   56.39    4.80
   7  -5   0   43.10    5.20
   8   5   0   19.60    4.70
   8  -5   0   20.20    4.80
  -8  -5   0   21.70    4.60
   8  -5   0   28.10    5.00
  -8  -5   0   29.80    3.20
   9  -5   0   39.10    6.60
   9  -5   0   40.20    6.00
   9   5   0   31.70    6.00
  10  -5   0   15.20    3.90
  10   5   0   18.80    4.90
  10  -5   0   15.30    5.10
  11  -5   0   -3.70    3.10
  11  -5   0    5.90    2.80
  11   5   0    5.10    3.80
  12  -5   0   31.70    7.10
  12   5   0   30.00    6.60
  13   5   0   24.10    5.70
  13  -5   0   20.80    5.90
   0  -5  -1   12.40    1.60
   0  -5  -1   16.80    2.10
   0   5   1   15.10    1.70
   0   5   1   15.80    2.60
   0  -5   1   13.20    2.50
   0  -5  -1   15.10    2.60
   0  -5   1   13.00    2.20
   0   5  -1   18.20    2.40
   1  -5  -1    1.70    1.60
   1   5   1    2.00    1.30
  -1   5  -1    2.70    1.70
  -1  -5   1    3.30    1.60
   1   5   1    1.70    1.60
  -1  -5   1    3.10    1.80
  -1  -5   1    2.70    0.90
   1  -5  -1    2.20    1.00
   1  -5  -1    4.40    1.80
  -1  -5   1    2.90    1.10
  -1   5   1    1.90    1.10
   1  -5   1    3.90    1.70
  -1   5   1    2.50    1.80
   1   5  -1    2.30    1.60
   1  -5   1    0.90    1.40
  -1  -5  -1    1.50    1.20
  -1  -5  -1    2.30    1.30
  -1  -5  -1    3.10    1.70
   2  -5  -1    2.90    1.50
   2  -5  -1    3.40    1.20
  -2  -5   1    3.80    1.40
   2  -5  -1    5.30    1.70
  -2   5  -1    1.50    1.60
  -2  -5   1    2.60    1.70
   2   5   1    2.00    1.70
  -2  -5   1    4.50    1.60
  -2  -5   1    3.90    1.20
  -2  -5  -1    2.80    1.90
   2   5  -1    3.50    1.80
  -2  -5  -1    3.00    1.20
  -2  -5  -1    5.10    1.70
   2  -5   1    3.40    1.70
  -2   5   1    5.10    1.30
  -2   5   1    3.80    1.90
   2  -5   1    5.40    1.50
  -3  -5   1   -0.40    1.30
  -3   5  -1    0.10    0.80
   3  -5  -1    1.40    1.90
  -3  -5   1    0.10    1.40
   3  -5  -1    1.00    1.80
   3   5   1    1.30    1.90
  -3  -5   1   -0.40    1.30
   3  -5  -1    0.10    1.10
  -3  -5  -1   -0.50    0.90
   3   5  -1    0.00    1.60
  -3   5   1    0.80    1.20
  -3  -5  -1   -0.70    1.40
   3  -5   1   -0.80    1.60
   3  -5   1   -0.70    0.90
   3  -5   1   -1.00    1.50
  -3  -5  -1    0.20    1.50
   4   5   1    3.30    2.50
   4   5   1   -0.60    1.00
   4  -5  -1    3.50    2.10
  -4  -5   1    3.40    1.90
   4  -5  -1    1.70    1.00
  -4   5  -1    2.90    1.30
  -4  -5   1    1.50    1.80
   4  -5  -1    5.60    2.50
   4  -5   1    2.40    1.80
   4  -5   1    2.20    1.00
  -4   5   1    2.60    1.50
  -4  -5  -1    1.20    1.80
  -4  -5  -1    3.60    2.00
   4   5  -1    4.00    1.80
   4  -5   1    4.10    2.00
  -4   5   1    3.30    1.30
   4   5  -1    2.50    2.10
   5   5   1   -3.10    1.80
   5  -5  -1    2.10    2.30
  -5  -5   1    0.90    1.80
   5  -5  -1   -0.10    2.00
  -5  -5   1    0.40    1.50
  -5   5  -1    0.60    1.30
   5   5  -1    0.50    1.60
  -5  -5  -1   -2.10    1.30
   5  -5   1    0.60    1.90
   5   5  -1    0.40    2.00
   5  -5   1    0.50    1.90
  -5  -5  -1   -0.10    1.80
  -5   5   1   -2.30    1.20
   6  -5  -1    0.90    2.30
  -6  -5   1    1.60    1.90
   6  -5  -1   -1.10    2.30
  -6   5  -1    1.40    1.40
  -6  -5   1    2.20    1.60
   6   5   1    0.60    2.40
   6  -5   1   -1.40    1.90
  -6   5   1    1.40    1.60
   6  -5   1   -2.90    2.00
   6   5  -1    3.30    2.60
  -6  -5  -1   -1.90    1.70
  -6  -5  -1   -0.20    1.40
   6   5  -1    1.00    1.70
  -7  -5   1    0.90    2.00
   7  -5  -1    4.70    3.10
  -7   5  -1    1.80    1.40
  -7  -5   1    1.20    1.40
   7  -5  -1   -2.60    2.40
   7   5   1    1.00    2.80
  -7  -5  -1    3.10    2.30
   7  -5   1    2.40    2.50
   7   5  -1    0.40    1.70
   7  -5   1    3.30    2.80
  -7   5   1    1.70    1.40
  -7  -5  -1    1.80    1.40
   7   5  -1    2.10    2.70
   8   5   1   -2.50    2.60
   8  -5  -1   -0.20    2.60
  -8  -5   1    5.90    2.80
  -8  -5   1    6.30    1.50
   8  -5  -1    2.80    3.10
  -8   5   1    4.50    1.40
   8  -5   1    0.70    2.40
   8   5  -1    1.80    2.90
   8  -5   1    0.20    2.60
  -8  -5  -1    2.30    1.90
   9  -5  -1   -2.00    2.60
   9   5   1    6.50    3.70
  -9   5   1    9.60    2.30
   9  -5   1    1.30    3.10
   9   5  -1    5.10    3.40
   9  -5   1    7.20    3.20
  10  -5  -1    0.50    3.50
  10  -5  -1    5.00    3.30
  10   5   1    2.50    3.60
  10  -5   1    4.80    3.90
  10  -5   1    1.90    2.50
  10   5  -1    0.80    3.30
  11  -5  -1    0.40    3.70
  11   5   1    1.10    3.40
  11  -5  -1    2.00    2.40
  11   5  -1   -0.40    3.30
  11  -5   1    9.20    4.60
  12  -5  -1    0.90    1.80
  12   5   1    0.10    3.20
  12  -5  -1   -2.20    3.00
  12   5  -1    1.40    3.90
  12  -5   1    2.00    3.70
  13   5   1    9.10    3.50
  13  -5  -1   10.10    3.90
  13  -5   1    7.50    3.90
   0   5   2   34.80    3.00
   0   5  -2   34.40    3.00
   0  -5   2   24.60    3.00
   0   5   2   25.80    3.00
   0  -5  -2   32.00    3.50
   0  -5  -2   34.10    2.90
   0  -5   2   33.30    3.50
   1   5   2    5.90    2.00
  -1  -5   2    6.80    1.10
  -1  -5   2    5.80    1.90
  -1   5  -2    5.20    1.80
   1   5   2    3.80    1.60
   1  -5  -2    7.80    2.20
   1  -5  -2   10.00    2.20
  -1  -5   2   10.90    2.50
  -1  -5   2    5.60    0.70
  -1  -5  -2    6.70    1.60
   1  -5   2    7.50    2.00
  -1   5   2    7.90    2.30
  -1   5   2    7.40    1.80
   1  -5   2    6.50    1.80
  -1  -5  -2    8.00    2.40
   1   5  -2    5.90    1.80
  -2  -5   2   37.30    2.80
   2   5   2   34.20    3.40
   2  -5  -2   36.80    3.50
   2   5   2   36.60    3.50
  -2   5  -2   34.50    3.20
   2  -5  -2   26.20    3.10
  -2  -5   2   34.00    3.30
  -2  -5   2   35.60    3.80
   2  -5   2   34.30    3.20
  -2  -5  -2   31.60    2.40
  -2   5   2   35.10    3.50
   2   5  -2   34.20    3.20
  -2   5   2   31.80    3.00
   2  -5   2   35.50    3.40
  -2  -5  -2   34.40    3.80
  -3   5  -2    1.60    0.50
   3   5   2    0.10    1.80
   3  -5  -2    0.30    1.80
  -3  -5   2   -0.50    1.30
  -3   5  -2    1.00    0.70
  -3  -5   2   -0.10    1.50
  -3  -5   2    0.80    1.40
   3  -5  -2    1.70    1.30
   3  -5   2    0.80    1.40
  -3   5   2    0.50    1.30
   3  -5   2    3.00    1.80
  -3  -5  -2    1.60    1.80
  -3  -5  -2    0.20    1.70
  -3  -5  -2    1.10    0.90
   3   5  -2    3.00    1.80
   3  -5   2    1.10    1.10
  -4   5  -2    0.00    0.80
   4  -5  -2    0.20    2.10
  -4  -5   2    1.80    1.60
   4  -5  -2   -0.40    1.00
   4   5   2    3.00    2.20
   4  -5  -2   -0.80    1.80
  -4  -5   2   -1.60    1.40
  -4   5   2   -0.80    1.30
   4  -5   2    0.40    0.90
  -4  -5  -2    1.10    1.70
  -4  -5  -2    1.90    1.90
   4  -5   2    1.10    1.60
   4   5  -2   -0.80    1.60
   4  -5   2    2.20    1.80
   4   5  -2    1.00    1.70
   5  -5  -2    8.10    3.00
  -5  -5   2    8.20    2.70
   5   5   2    5.80    2.70
  -5  -5   2    6.30    2.40
  -5   5  -2    3.90    1.60
   5  -5  -2    6.70    2.70
  -5   5   2    6.40    2.10
  -5  -5  -2    5.20    2.70
  -5  -5  -2    4.40    2.20
   5  -5   2    8.80    2.70
   5   5  -2    7.90    2.70
   5   5  -2    4.80    2.40
   5  -5   2    4.10    2.40
  -6  -5   2    2.10    1.60
  -6  -5   2    1.30    1.90
  -6   5  -2    4.90    1.30
   6   5   2    2.30    2.90
   6  -5  -2    2.90    2.60
   6  -5  -2   -0.40    2.20
   6  -5   2    4.30    2.10
   6   5  -2   -1.80    2.00
   6  -5   2    0.80    2.10
  -6  -5  -2    2.10    2.10
   6   5  -2   -2.50    1.90
  -6  -5  -2    0.80    1.50
  -6   5   2    0.90    1.40
   7  -5  -2    2.60    2.90
   7   5   2   -0.50    2.50
  -7  -5   2   -0.70    1.50
   7  -5  -2    0.30    2.70
  -7  -5   2    1.50    1.50
  -7  -5  -2   -0.50    1.90
   7   5  -2    0.40    2.10
   7  -5   2    2.40    2.10
  -7   5   2    0.90    1.70
  -7  -5  -2    3.30    1.60
   7  -5   2    3.00    2.90
   7   5  -2   -2.70    2.10
  -8  -5   2   18.40    4.20
   8  -5  -2   16.10    4.40
   8  -5  -2   10.70    4.20
  -8  -5   2   19.80    2.80
   8   5   2   10.80    3.90
  -8  -5  -2   22.70    2.80
   8  -5   2   20.40    4.10
  -8   5   2   19.80    3.80
   8   5  -2   17.80    3.90
  -8  -5  -2   17.70    4.50
   8   5  -2   15.30    4.20
   8  -5   2   15.00    4.30
   9   5   2    1.60    3.20
   9  -5  -2    0.50    3.10
   9  -5  -2   -1.60    3.00
   9   5  -2    0.30    2.70
   9  -5   2    1.40    2.30
   9  -5   2    5.90    3.40
  10  -5  -2   -3.20    3.40
  10   5   2    0.60    3.20
  10  -5  -2   -1.80    2.60
  10   5  -2   -3.30    2.70
  10  -5   2    1.10    3.40
  11  -5  -2    1.60    2.90
  11   5   2   -3.20    3.00
  11  -5  -2    1.50    3.80
  11   5  -2    1.60    2.90
  11  -5   2   -6.50    2.70
  12  -5  -2   10.50    4.70
  12  -5  -2   13.40    4.00
  12   5   2   12.20    4.50
  12   5  -2   13.70    4.70
  12  -5   2   10.60    4.70
  13   5   2    5.00    3.40
  13  -5  -2    8.10    3.70
  13  -5   2    5.70    3.80
  13   5  -2    3.70    2.80
   0  -5   3  154.18    7.60
   0   5   3  130.39    7.30
   0   5   3  148.09    7.60
   0  -5  -3  148.39    7.00
   0  -5   3  136.29    8.00
   0   5  -3  138.99    6.90
   0  -5  -3  136.79    8.00
  -1   5  -3    0.20    1.20
   1   5   3   -1.00    1.00
   1   5   3   -1.00    1.50
  -1  -5   3   -0.40    0.70
   1  -5  -3   -2.50    1.30
   1  -5  -3   -1.00    1.20
  -1  -5   3   -0.30    1.50
  -1  -5   3   -0.20    1.50
   1  -5   3   -0.30    1.20
  -1   5   3   -0.60    1.20
  -1   5   3    1.80    1.90
  -1  -5  -3   -0.70    0.80
   1  -5   3   -2.50    1.30
  -1  -5  -3   -1.50    1.40
   1   5  -3   -1.00    0.60
   1   5  -3   -2.50    1.00
  -2  -5   3   13.60    3.00
  -2  -5   3   23.30    3.50
   2   5   3   14.50    2.80
   2  -5  -3   21.40    3.30
  -2   5  -3   19.90    3.00
  -2  -5   3   15.30    2.00
   2   5   3   17.40    3.10
   2  -5  -3   18.70    3.00
  -2   5   3   13.50    2.70
  -2  -5  -3   16.40    3.20
   2  -5   3   16.40    2.70
  -2  -5  -3   13.30    1.50
   2  -5   3   17.10    2.90
   2   5  -3   21.20    2.90
   2   5  -3   13.70    1.80
  -2   5   3   21.40    3.50
   3   5   3   20.30    3.70
   3  -5  -3   25.60    3.80
  -3  -5   3   12.70    3.00
   3  -5  -3   17.90    2.80
   3   5   3   16.90    3.20
  -3  -5   3   20.30    3.00
  -3   5  -3   15.60    1.40
  -3   5   3   15.90    3.30
  -3  -5  -3   13.60    3.10
   3  -5   3   21.60    2.60
   3   5  -3   22.60    3.20
   3  -5   3   19.90    3.30
   3  -5   3   20.80    3.20
  -3   5   3   17.20    3.00
  -4   5  -3   11.40    1.80
   4  -5  -3    7.80    2.70
   4  -5  -3   11.30    3.10
  -4  -5   3    8.80    2.40
  -4  -5   3    8.50    2.70
   4  -5  -3    9.30    1.90
   4   5   3   13.50    3.30
   4  -5   3   17.00    3.10
   4   5  -3   10.60    2.50
   4  -5   3   12.30    2.20
   4   5  -3    9.70    2.90
   4  -5   3   11.50    2.60
  -4  -5  -3   12.60    3.10
  -4  -5  -3   10.30    2.80
  -4   5   3   14.00    3.00
   5   5   3    4.80    3.00
   5  -5  -3    8.10    3.00
   5  -5  -3    5.40    2.90
  -5  -5   3    6.40    2.30
  -5   5  -3    6.20    1.70
  -5  -5   3    5.20    2.40
  -5  -5  -3    3.00    2.10
  -5  -5  -3    7.10    2.90
   5  -5   3    5.40    2.30
   5   5  -3    4.60    2.50
   5   5  -3    7.00    2.40
  -5   5   3    3.40    2.10
   5  -5   3    6.50    2.60
   6   5   3   23.90    4.60
  -6  -5   3   24.20    4.60
  -6  -5   3   22.20    4.00
   6  -5  -3   28.10    4.90
   6  -5  -3   25.40    4.50
   6   5  -3   24.80    4.30
  -6   5   3   26.00    3.70
  -6  -5  -3   31.90    5.50
  -6  -5  -3   24.60    4.20
   6  -5   3   25.70    4.00
   6   5  -3   29.60    4.50
   6  -5   3   27.90    4.70
   7  -5  -3    4.40    3.10
  -7  -5   3    6.70    2.50
   7   5   3    6.70    3.40
  -7  -5   3    4.80    1.90
   7  -5  -3    4.00    3.20
  -7  -5  -3    5.00    2.60
  -7  -5  -3    6.00    1.80
   7   5  -3    3.20    2.80
  -7   5   3    5.80    2.00
   7  -5   3    4.20    2.80
   7   5  -3    3.80    2.80
   7  -5   3    0.70    2.10
  -8  -5   3   10.10    2.80
   8  -5  -3   -0.70    3.20
   8   5   3    1.10    3.40
   8  -5  -3    1.80    3.00
  -8  -5  -3    4.10    2.30
   8   5  -3    5.60    3.30
   8  -5   3    4.80    2.60
   8  -5   3    2.20    2.80
   8   5  -3    8.10    3.30
  -8   5   3    7.70    2.20
   9  -5  -3   -0.50    3.10
   9   5   3    1.60    3.10
   9  -5  -3   -3.10    2.70
   9  -5   3    4.30    3.30
   9   5  -3   -2.60    2.10
   9   5  -3    1.60    2.80
  10   5   3   19.80    5.20
  10  -5  -3   23.20    5.40
  10  -5  -3   19.70    5.40
  10   5  -3   15.70    4.70
  10  -5   3   34.00    6.40
  11  -5  -3    4.30    4.00
  11  -5  -3   -0.60    3.30
  11   5   3    0.20    3.50
  11  -5   3    5.50    4.00
  11   5  -3   10.80    3.30
  12   5   3    3.70    3.50
  12  -5  -3    0.40    3.50
  12  -5  -3   -0.60    3.20
  12  -5   3    4.80    3.00
  12   5  -3    1.40    2.10
  13  -5  -3    5.70    2.70
  13   5   3   11.40    4.40
  13  -5  -3    7.00    3.50
  13  -5   3    8.10    3.40
  13   5  -3    9.40    2.80
   0  -5  -4    0.90    1.30
   0   5  -4    2.20    0.70
   0   5  -4    2.50    1.30
   0   5   4    2.40    2.10
   0  -5  -4   -1.20    1.90
   0  -5   4    0.90    1.60
   0   5   4    3.00    1.70
   0  -5   4    1.40    0.90
   0  -5   4    3.20    2.10
  -1  -5   4   33.00    3.80
   1  -5  -4   30.90    3.90
  -1  -5   4   32.30    2.50
  -1   5  -4   31.60    2.90
   1   5   4   28.20    3.50
   1  -5  -4   30.60    3.30
   1   5   4   36.00    3.50
  -1  -5   4   30.10    3.90
   1  -5   4   32.40    3.60
  -1   5   4   34.90    3.50
   1   5  -4   32.50    2.70
  -1   5   4   35.80    3.70
  -1  -5  -4   28.50    3.80
   1   5  -4   35.20    2.40
   1  -5   4   35.20    3.80
  -1  -5  -4   33.70    2.60
  -2   5  -4   49.00    3.60
  -2  -5   4   48.60    4.50
   2  -5  -4   44.50    4.10
   2   5   4   46.60    4.10
  -2  -5   4   41.50    3.30
  -2   5  -4   47.30    2.50
   2  -5  -4   47.70    4.50
  -2  -5   4   39.40    4.40
   2   5   4   36.80    4.20
  -2   5   4   45.50    4.30
  -2   5   4   39.40    4.00
   2   5  -4   45.50    3.30
   2  -5   4   43.40    4.00
   2  -5   4   44.20    4.10
  -2  -5  -4   41.50    4.50
   3   5   4   40.10    4.10
  -3   5  -4   41.60    2.60
   3   5   4   33.90    4.10
  -3  -5   4   39.70    4.50
   3  -5  -4   42.50    4.40
   3  -5  -4   37.60    4.00
  -3  -5   4   38.20    3.50
   3  -5   4   40.60    3.70
  -3   5   4   43.00    4.20
  -3  -5  -4   36.40    4.30
   3  -5   4   34.90    3.70
  -3   5   4   40.20    4.00
   3   5  -4   39.70    4.40
   3   5  -4   36.20    3.20
   4   5   4    9.60    3.00
   4  -5  -4   13.00    3.40
  -4  -5   4   12.40    3.20
   4  -5  -4   10.60    2.40
  -4  -5   4   11.60    2.70
  -4   5   4   12.60    3.10
  -4   5   4    9.10    2.90
   4   5  -4   12.40    3.40
   4  -5   4   13.50    3.00
  -4  -5  -4   11.50    3.00
   4  -5   4   10.90    2.70
   4  -5   4    9.20    2.20
   4   5  -4   13.20    2.60
  -5  -5   4   16.80    3.60
   5   5   4   19.90    4.10
   5  -5  -4   11.90    3.40
   5  -5  -4   15.90    3.70
  -5  -5   4   15.40    3.30
  -5   5   4   19.40    3.80
  -5  -5  -4   14.40    3.20
   5  -5   4   13.50    3.00
   5   5  -4   17.60    3.20
  -5  -5  -4   22.10    4.50
   5   5  -4   16.50    3.90
   5  -5   4   17.60    3.40
  -6  -5   4   12.10    3.10
  -6  -5   4    6.50    2.90
   6  -5  -4   17.00    4.00
   6  -5  -4   11.70    3.60
   6   5   4   12.40    3.70
  -6  -5  -4   21.20    4.80
  -6  -5  -4   14.80    3.60
  -6   5   4   10.40    3.30
   6  -5   4   13.80    3.20
   6   5  -4   14.50    3.90
   6   5  -4   23.20    3.90
   6  -5   4   11.30    3.20
  -7  -5   4   11.40    2.80
   7  -5  -4   13.50    4.00
   7   5   4   21.10    4.90
   7  -5  -4   12.30    4.20
  -7  -5   4   10.30    3.20
  -7  -5  -4   14.90    4.20
  -7  -5  -4   15.90    3.40
  -7   5   4   20.40    3.90
   7   5  -4   17.90    4.50
   7   5  -4   12.40    3.30
   7  -5   4   15.50    3.30
   7  -5   4   17.50    4.10
  -8  -5   4   14.60    3.40
   8  -5  -4   31.40    6.00
   8  -5  -4   25.80    5.30
   8   5   4   22.10    5.20
   8   5  -4   27.20    5.10
   8  -5   4   21.30    4.60
   8   5  -4   23.10    4.40
  -8   5   4   20.20    4.00
   9  -5  -4    8.70    4.00
   9  -5  -4   14.90    5.00
   9   5   4   10.50    4.20
   9   5  -4    7.40    3.20
   9  -5   4    7.00    3.50
   9   5  -4    6.40    3.50
  10   5   4    3.50    3.70
  10  -5  -4    6.80    4.20
  10  -5  -4    4.60    3.90
  10   5  -4    4.30    3.20
  10   5  -4    3.90    2.60
  10  -5   4    6.60    4.30
  11  -5  -4    2.20    3.80
  11  -5  -4    5.10    4.00
  11   5   4    3.30    3.70
  11  -5   4    5.20    3.70
  11   5  -4   -0.30    2.20
  12  -5  -4   13.30    4.50
  12   5   4   20.40    5.30
  12  -5  -4   21.30    5.10
  12  -5   4   10.40    3.50
  13  -5  -4    9.30    3.00
  13   5   4    9.50    3.10
  13  -5  -4    5.70    3.00
  13  -5   4    6.20    2.80
   0  -5   5    1.00    1.00
   0   5   5   -0.20    1.60
   0  -5  -5    0.00    1.30
   0  -5   5    2.30    2.10
   0   5   5    1.80    1.80
   0  -5  -5    1.60    2.30
   0  -5   5    1.70    1.90
   1   5   5   12.20    2.80
   1  -5  -5    8.20    2.30
  -1  -5   5    7.80    1.70
  -1  -5   5    5.40    2.40
   1  -5  -5    8.20    2.90
  -1  -5   5    5.60    2.50
   1   5   5    9.40    2.90
  -1  -5  -5    5.70    2.60
   1  -5   5    7.60    2.60
  -1  -5  -5    8.20    1.70
   1  -5   5    4.80    2.30
  -1   5   5    6.90    2.50
   1  -5   5    9.20    1.60
  -1   5   5    8.30    2.60
   2  -5  -5   -0.80    1.80
   2   5   5    1.40    1.90
  -2   5  -5   -0.10    1.10
   2  -5  -5    2.40    2.30
  -2  -5   5   -0.30    1.80
   2   5   5    1.90    1.80
  -2  -5   5    0.30    1.20
  -2   5   5    2.50    2.00
   2   5  -5   -0.70    2.10
   2  -5   5    1.60    1.70
  -2   5   5   -2.50    1.50
   2  -5   5   -0.20    1.60
  -2  -5  -5    0.60    2.00
   3  -5  -5   -1.30    1.70
  -3  -5   5    0.00    1.80
   3   5   5    1.00    1.90
  -3   5  -5    0.50    1.40
   3   5   5    2.50    2.10
   3  -5  -5   -0.70    2.10
  -3  -5   5    0.30    1.30
  -3   5   5   -1.50    1.60
  -3   5   5    0.10    1.90
   3   5  -5    2.20    2.70
  -3  -5  -5    0.70    1.90
   3  -5   5    0.70    1.50
   3  -5   5    0.40    1.90
   4  -5  -5    2.60    2.50
   4   5   5   -0.60    1.90
  -4  -5   5    2.90    1.90
   4   5   5    2.80    2.40
  -4  -5   5   -1.00    1.60
   4  -5  -5   -0.80    1.70
   4  -5   5    1.00    1.60
  -4   5   5   -0.40    1.70
   4   5  -5    3.20    2.60
   4  -5   5    2.60    2.10
  -4  -5  -5   -2.20    1.40
  -4   5   5    1.30    2.00
   4  -5   5   -1.30    1.20
  -5  -5   5    3.20    2.20
   5  -5  -5    7.30    3.40
   5   5   5    2.20    2.60
  -5  -5   5    2.20    2.00
  -5  -5  -5    5.00    2.60
  -5   5   5    6.30    2.60
   5   5  -5    2.50    2.80
  -5   5   5    7.40    3.00
   5  -5   5    2.90    1.90
   5  -5   5    5.50    2.30
  -5  -5  -5    4.70    2.40
   6  -5  -5    0.00    3.30
  -6  -5   5    3.60    1.80
  -6  -5   5    1.20    1.50
   6  -5  -5    2.00    2.30
   6   5   5   -0.60    2.60
   6  -5   5   -0.60    1.60
  -6  -5  -5   -1.10    1.50
  -6   5   5   -1.90    1.30
   6  -5   5    1.90    1.80
   6   5  -5   -5.50    2.60
  -6  -5  -5    2.20    1.40
   7  -5  -5    1.60    3.20
  -7  -5   5    5.00    2.00
  -7  -5   5    5.30    2.20
   7   5   5   -0.80    2.70
   7  -5  -5    2.90    2.70
  -7   5   5    7.00    2.10
  -7  -5  -5    4.70    2.20
  -7  -5  -5    8.60    2.10
   7  -5   5    4.20    2.70
   7   5  -5   -1.20    2.80
   8   5   5    1.10    2.80
   8  -5  -5    5.30    3.10
  -8  -5   5    3.10    1.70
   8  -5  -5   -0.20    3.70
   8   5  -5   -2.90    3.10
   8  -5   5    3.30    2.80
   9  -5  -5   -2.40    3.20
   9   5   5    0.20    2.80
   9  -5  -5    0.60    2.30
   9   5  -5    3.10    3.30
   9  -5   5    2.80    2.50
  10   5   5   -2.20    2.90
  10  -5  -5   -3.00    3.60
  10  -5  -5    2.00    3.10
  10  -5   5    3.20    3.20
  10   5  -5    3.50    3.50
  11   5   5    3.80    3.40
  11  -5  -5   -5.00    2.90
  11  -5  -5    7.90    3.40
  11  -5   5    5.90    3.10
  11   5  -5    2.50    2.80
  12  -5  -5    6.30    3.50
  12   5   5    8.10    3.00
  12  -5  -5    7.60    3.10
  12  -5   5    4.60    2.50
  13  -5  -5    7.70    3.00
  13   5   5    9.00    3.00
  13  -5  -5   12.20    3.40
  13  -5   5    5.90    2.50
   0  -5  -6    6.50    2.80
   0   5   6    3.70    2.10
   0  -5   6    5.50    2.60
   0  -5  -6    4.80    1.80
   0  -5   6    5.70    1.70
   0  -5   6    0.10    1.70
   0   5   6    5.50    2.50
   1   5   6   18.20    3.80
   1  -5  -6   19.70    3.10
  -1  -5   6   16.00    2.50
   1  -5  -6   19.40    4.20
   1   5   6   17.50    3.20
  -1  -5   6   17.60    3.70
   1   5  -6   16.80    3.80
  -1   5   6   19.70    3.30
  -1   5   6   19.10    3.90
  -1  -5  -6   13.90    3.40
   1  -5   6   15.40    3.40
   1  -5   6   11.90    3.00
   2  -5  -6    4.40    2.50
  -2  -5   6    6.30    1.90
   2   5   6    4.10    2.50
   2   5   6    9.30    2.80
  -2  -5   6    9.70    3.00
   2  -5  -6    6.60    2.90
   2   5  -6    7.50    2.90
  -2   5   6    6.10    2.80
  -2   5   6    8.20    2.60
   2  -5   6   11.50    3.10
   2  -5   6    8.40    2.60
  -2  -5  -6    6.90    3.00
   3   5   6   59.19    5.20
  -3  -5   6   78.59    5.40
  -3  -5   6   69.19    6.30
   3   5   6   62.49    5.90
   3  -5  -6   69.39    6.20
   3  -5  -6   65.79    5.80
  -3   5   6   69.09    6.10
  -3   5   6   67.29    5.10
  -3  -5  -6   61.49    6.10
   3  -5   6   59.29    5.20
   3  -5   6   69.09    5.60
   3   5  -6   61.39    6.10
   4  -5  -6    3.10    2.20
   4   5   6    1.90    2.00
  -4  -5   6    2.00    1.50
  -4  -5   6    4.30    2.20
   4  -5  -6   -2.30    2.30
   4   5   6    0.80    2.10
   4   5  -6    1.00    3.10
  -4  -5  -6    6.90    2.60
  -4   5   6    0.70    1.90
  -4   5   6   -2.10    1.50
   4  -5   6    2.70    2.20
   5  -5  -6    4.70    3.20
   5   5   6    2.00    2.60
  -5  -5   6    6.90    2.10
  -5  -5   6    1.30    2.10
   5   5  -6    1.80    3.00
  -5   5   6    2.60    2.40
  -5   5   6    6.30    2.60
   5  -5   6   -1.50    1.60
  -5  -5  -6    4.20    2.30
   6   5   6    9.10    3.30
  -6  -5   6    4.90    1.90
   6  -5  -6    9.50    4.20
  -6  -5   6    5.20    2.20
   6   5  -6    8.20    4.10
   6  -5   6   10.90    2.90
  -6  -5  -6   11.00    3.10
  -6   5   6    3.60    2.80
  -6  -5  -6    8.50    2.90
  -6   5   6    8.60    2.90
   6  -5   6    7.00    2.60
  -7  -5   6   25.80    3.60
  -7  -5   6   24.40    3.50
   7   5   6   23.70    5.20
   7  -5   6   21.90    4.20
  -7  -5  -6   22.50    3.20
   7   5  -6   19.60    5.50
   8   5   6    8.20    3.70
   8  -5  -6   -0.60    3.70
   8   5  -6    6.60    4.20
   8  -5   6    6.10    2.70
   9  -5  -6   10.80    5.00
   9  -5  -6   22.50    4.70
   9   5   6   20.00    5.10
   9  -5   6   11.90    3.60
   9   5  -6    6.90    4.40
  10   5   6    1.70    3.50
  10  -5  -6    2.60    4.30
  10  -5  -6    1.80    3.10
  10   5  -6    6.10    4.00
  10  -5   6    9.40    3.10
  11  -5  -6    2.30    3.60
  11   5   6    9.80    3.60
  11  -5   6    7.40    2.70
  11   5  -6    4.50    3.50
  12   5   6   22.10    4.70
  12  -5  -6   12.00    4.80
   0  -5  -7   -0.10    2.70
   0   5   7    4.00    2.40
   0   5   7    5.60    2.10
   0  -5   7    5.70    2.60
   0   5  -7    2.10    2.50
  -1  -5   7    0.80    1.60
   1  -5  -7    3.80    3.10
   1  -5  -7   -0.40    1.70
   1   5   7    1.40    2.10
   1   5   7   -0.90    1.50
  -1   5   7    1.40    2.00
  -1  -5  -7    0.90    2.60
   1  -5   7   -0.40    1.40
   1   5  -7    1.80    2.60
  -1   5   7    0.70    1.70
   1  -5   7    0.20    2.10
   2  -5  -7    7.80    3.20
   2   5   7    9.90    2.80
  -2  -5   7    5.40    2.60
   2  -5  -7    8.50    2.80
   2   5   7   10.60    3.20
  -2   5   7    9.90    2.60
   2  -5   7    9.30    3.10
  -2  -5  -7    1.40    2.40
   2   5  -7   13.30    3.90
  -2   5   7    6.10    2.60
   2  -5   7    6.50    2.70
   3   5   7   -1.30    1.50
  -3  -5   7    1.00    1.40
   3  -5  -7   -1.30    2.10
  -3  -5   7   -0.40    1.70
   3   5   7    1.70    2.10
   3  -5  -7    1.60    2.40
   3  -5   7   -0.10    2.00
  -3  -5  -7    3.30    2.70
   3  -5   7   -0.90    1.90
   3   5  -7   -0.40    2.70
  -3   5   7   -1.60    1.50
  -3   5   7    1.70    1.50
   4  -5  -7    0.70    2.80
   4   5   7    2.40    2.20
  -4   5  -7    3.60    1.80
  -4  -5   7    2.30    1.50
  -4  -5   7    0.90    1.90
   4  -5  -7   -4.20    1.90
   4   5   7    2.00    2.00
  -4   5   7    1.00    1.90
  -4  -5  -7    0.10    1.70
   4  -5   7    0.20    1.80
  -4   5   7   -1.20    1.50
   4   5  -7   -1.00    2.80
   5  -5  -7    4.00    3.40
   5   5   7    0.80    2.40
  -5  -5   7    1.50    2.20
  -5   5   7   -0.20    1.40
  -5   5   7    3.10    2.40
  -5  -5  -7    2.40    2.00
   5   5  -7    0.30    3.20
   5  -5   7   -0.30    1.60
  -6  -5   7    4.00    2.00
   6   5   7    4.50    2.80
   6  -5  -7    3.30    3.80
   6   5  -7    2.90    3.90
  -6  -5  -7    3.40    1.70
  -6   5   7    2.60    2.20
   7  -5  -7   -0.50    3.70
   7   5   7   -0.50    2.20
   7   5  -7   -2.60    3.70
   8   5   7    2.60    2.70
   8  -5  -7    0.80    3.80
   8   5  -7   -3.10    3.80
   9   5   7    7.00    3.30
   9  -5  -7   -1.70    4.00
   9   5  -7    0.10    4.20
  10  -5  -7    2.80    3.80
  10   5   7   14.00    3.80
  10   5  -7    1.70    3.40
  11  -5  -7   -1.80    3.20
  11   5  -7    5.50    3.60
  12  -5  -7    7.70    3.80
  12   5  -7   -5.10    3.10
   0   5   8    8.60    3.00
   0   5  -8    4.30    2.90
   0  -5   8    5.40    2.70
   0  -5  -8    0.30    2.80
  -1  -5   8    7.00    2.70
  -1   5  -8    6.10    3.00
   1   5   8   12.80    3.40
   1  -5  -8   12.30    2.80
   1  -5  -8    5.00    3.50
  -1  -5  -8    4.80    3.30
   1   5  -8   17.40    4.60
   1  -5   8   13.40    3.50
  -1   5   8    7.60    3.10
   2  -5  -8    9.30    3.00
  -2   5  -8   16.30    4.00
   2   5   8   11.60    3.00
   2  -5  -8    5.40    3.50
  -2  -5   8    6.70    2.80
   2   5  -8    9.40    4.10
  -2   5   8   12.20    3.20
   2  -5   8   12.70    3.60
   3   5   8    5.70    2.40
   3  -5  -8    1.50    2.90
  -3   5  -8    4.50    2.50
  -3  -5   8    3.80    2.60
   3  -5  -8    3.70    2.90
  -3  -5  -8    0.20    2.30
   3   5  -8    3.80    3.60
  -3   5   8    3.30    1.90
   4  -5  -8   -0.40    2.80
  -4   5  -8    1.80    1.40
   4  -5  -8   -2.30    2.30
  -4  -5   8   -0.80    1.80
  -4   5   8    1.90    1.60
   4   5  -8   -2.60    3.00
  -4  -5  -8    1.30    2.20
   4  -5   8   -0.40    1.80
   5   5   8   10.80    2.90
   5  -5  -8   10.00    4.10
   5   5  -8    5.50    4.20
   6   5   8    2.70    2.20
   6  -5  -8   -0.80    3.50
   6   5  -8    2.50    4.00
   7  -5  -8    8.30    4.80
   7   5   8    5.20    2.80
   7   5  -8    6.60    4.50
   8  -5  -8    7.50    4.30
   8   5   8   12.20    3.30
   8   5  -8   14.10    5.40
   9  -5  -8    7.70    4.90
   9   5   8   10.80    2.80
   9   5  -8   -1.10    4.10
  10  -5  -8    0.70    4.30
  10   5   8    8.60    2.80
  10   5  -8    2.00    4.30
  11  -5  -8    7.70    4.50
  11   5  -8    3.10    3.40
   0  -5   9   11.70    3.60
   0   5  -9   27.10    5.30
   0  -5  -9    8.90    3.80
  -1   5  -9    6.50    3.30
   1   5  -9    9.60    4.00
   2  -5  -9    3.10    2.30
   2  -5  -9   -3.70    2.40
  -2   5  -9    4.90    2.80
  -2   5  -9    6.40    2.60
   2   5  -9    1.60    3.30
   3  -5  -9   13.80    4.00
  -3   5  -9   15.10    3.30
  -3   5  -9   17.20    3.80
   3   5  -9   19.20    5.20
   4  -5  -9    0.20    3.20
   4   5  -9    8.40    4.40
   5  -5  -9    8.30    4.00
   5   5  -9    8.10    4.60
   6  -5  -9    7.50    4.30
   6   5  -9    7.60    4.40
   7  -5  -9   11.00    5.20
   7   5  -9    9.90    5.30
   8  -5  -9   -1.80    4.20
   8   5  -9   -4.70    3.70
   9  -5  -9    5.80    4.60
   9   5  -9    0.60    4.70
  10  -5  -9   17.00    5.40
  10   5  -9   13.80    4.70
   0   5 -10   -4.60    2.20
  -1   5 -10   11.10    3.80
   1   5 -10    1.60    3.40
  -2   5 -10    4.20    2.60
   2   5 -10    2.30    3.80
   3  -5 -10   40.20    5.20
   3   5 -10   28.80    6.20
   4  -5 -10    0.80    3.00
   4   5 -10   -4.00    3.60
   5  -5 -10    6.60    4.10
   5   5 -10    5.80    5.10
   6  -5 -10    4.90    4.00
   6   5 -10    6.90    5.20
   7  -5 -10   11.50    5.20
   7   5 -10   14.80    5.90
   8  -5 -10    1.50    3.60
   8   5 -10    6.40    4.40
   9  -5 -10   11.70    4.20
   9   5 -10    6.50    5.00
  10  -5 -10    8.60    3.80
  10   5 -10    5.10    4.40
   0   5 -11   15.60    4.70
   1   5 -11    2.70    3.00
   2   5 -11    4.40    3.70
   3   5 -11   -1.00    3.40
   4  -5 -11    2.40    3.10
   4   5 -11    0.40    4.10
   5  -5 -11    3.90    3.20
   5   5 -11    1.80    4.00
   6  -5 -11    0.20    3.10
   6   5 -11   -0.60    4.10
   7  -5 -11   -1.20    2.90
   7   5 -11    4.80    4.60
   8  -5 -11    1.50    3.10
   8   5 -11   -3.00    3.40
   9  -5 -11    7.90    4.30
   9   5 -11   -2.80    3.80
   0   5 -12    1.30    2.50
   1   5 -12   16.80    4.60
   2   5 -12    3.40    3.60
   3   5 -12   30.10    6.10
   4   5 -12    0.00    3.60
   5   5 -12    3.20    4.10
   6  -5 -12    0.50    2.50
   6   5 -12   15.40    4.70
   7  -5 -12   12.60    3.90
   7   5 -12   13.20    5.10
   2   5 -13    9.70    3.30
   3   5 -13   13.20    4.30
   4   5 -13    3.60    3.10
   5   5 -13   11.10    4.20
   0  -6   0   86.89    5.90
   0  -6   0   87.99    5.30
   0  -6   0   83.99    4.00
   0   6   0   86.29    5.50
  -1  -6   0 2048.10   75.09
  -1  -6   0 2066.29   78.29
  -1   6   0 2002.40   75.39
   1   6   0 2046.50   75.39
   1  -6   0 2083.49   77.89
   1  -6   0 1992.00   74.29
  -1  -6   0 2023.60   73.69
   1  -6   0 2088.19   74.19
  -1  -6   0 1947.71   74.99
   2   6   0 2285.27   87.99
   2  -6   0 2414.86   86.69
  -2   6   0 2420.36   87.29
  -2  -6   0 2388.96   88.59
  -2  -6   0 2419.36   91.59
   2  -6   0 2515.15   90.69
  -2  -6   0 2349.17   85.99
  -2   6   0 2308.87   88.09
   3   6   0 1547.05   59.29
  -3   6   0 1632.84   59.59
  -3  -6   0 1615.04   57.59
  -3   6   0 1560.14   58.19
   3  -6   0 1611.54   60.19
  -3  -6   0 1595.24   61.89
   3  -6   0 1422.16   58.09
  -3  -6   0 1593.04   59.79
  -4  -6   0    8.40    2.40
   4  -6   0    5.20    2.50
  -4  -6   0   11.70    3.20
  -4   6   0    5.80    1.60
   4   6   0    9.60    2.90
   4  -6   0    7.80    1.60
   4  -6   0    7.70    2.80
   5  -6   0 1266.67   48.10
   5   6   0 1213.18   45.60
  -5  -6   0 1183.28   49.40
  -5  -6   0 1233.08   48.60
  -5   6   0 1269.07   47.10
   5  -6   0 1238.98   47.00
   5   6   0 1196.08   47.70
   6   6   0 1601.74   62.29
   6  -6   0 1636.44   62.49
  -6  -6   0 1572.64   64.19
   6  -6   0 1611.04   61.19
  -6  -6   0 1685.13   63.89
   7  -6   0  887.71   36.30
  -7  -6   0  840.72   36.90
   7   6   0  858.81   36.10
   7  -6   0  906.31   35.60
  -7  -6   0  872.01   36.90
   8   6   0    5.20    3.80
   8  -6   0    5.40    3.50
   8  -6   0    3.30    3.30
  -8  -6   0    4.10    1.80
   9  -6   0  563.64   25.00
   9   6   0  530.55   25.50
   9  -6   0  564.14   26.00
  10   6   0  792.12   35.10
  10  -6   0  783.12   35.30
  10  -6   0  822.02   34.20
  11  -6   0  406.86   20.10
  11   6   0  396.86   21.30
  11  -6   0  419.16   21.90
  12  -6   0   -0.30    3.20
  12   6   0   -4.40    2.90
  13  -6   0  245.18   15.70
  13   6   0  250.27   15.20
   0   6   1  756.42   29.30
   0  -6  -1  753.82   30.40
   0  -6  -1  721.63   28.30
   0  -6  -1  737.03   28.50
   0  -6   1  710.63   28.60
   0   6   1  730.93   28.40
   0  -6   1  765.42   30.50
   0   6  -1  741.63   29.10
  -1  -6   1   22.50    3.50
   1   6   1   21.40    3.00
  -1   6  -1   22.50    3.50
   1  -6  -1   16.20    1.80
  -1  -6   1   17.80    1.60
  -1  -6   1   20.20    2.80
   1  -6  -1   22.60    2.90
   1  -6  -1   20.90    3.30
  -1  -6  -1   18.40    2.40
  -1  -6  -1   20.50    3.30
   1  -6   1   20.70    3.20
   1  -6   1   21.20    2.90
  -1   6   1   19.10    1.90
   1   6  -1   19.70    3.10
  -1   6   1   28.50    4.10
  -2  -6   1  917.51   36.90
  -2  -6   1  909.71   39.20
   2  -6  -1  884.11   36.80
  -2   6  -1 1019.90   37.80
   2  -6  -1  948.71   37.10
   2   6   1 1015.10   37.90
  -2  -6   1  962.30   36.80
   2  -6  -1  964.70   38.50
  -2  -6   1  957.80   37.00
   2  -6   1 1009.40   37.30
   2  -6   1 1048.80   38.60
  -2   6   1  958.90   36.80
  -2  -6  -1 1034.30   39.60
  -2  -6  -1 1022.70   36.30
  -2   6   1  939.01   37.80
  -2  -6  -1  984.10   37.70
   2   6  -1  965.10   37.50
  -3  -6   1   69.29    5.80
  -3  -6   1   87.99    5.10
  -3   6  -1   77.79    5.40
   3   6   1   72.79    5.50
   3  -6  -1   79.09    5.00
   3  -6  -1   76.29    5.60
  -3  -6   1   69.19    5.00
   3  -6   1   79.39    5.50
  -3  -6  -1   72.19    5.70
  -3   6   1   71.59    4.30
   3  -6   1   72.79    4.70
  -3  -6  -1   73.19    5.20
  -3  -6  -1   75.59    4.50
   3   6  -1   77.09    5.40
  -3   6   1   58.09    5.30
   4  -6  -1  562.34   24.30
  -4  -6   1  546.45   25.20
  -4  -6   1  577.14   24.20
   4  -6  -1  564.94   23.30
  -4   6  -1  588.74   22.50
   4   6   1  611.84   24.40
   4  -6   1  572.24   23.90
  -4   6   1  568.44   23.30
  -4  -6  -1  562.04   24.40
   4  -6   1  597.54   24.20
  -4  -6  -1  610.14   25.60
   4  -6   1  580.54   23.30
  -4  -6  -1  616.04   22.60
   4   6  -1  551.64   23.90
   5  -6  -1    5.00    2.80
   5  -6  -1    1.90    2.40
  -5  -6   1    5.50    2.40
  -5  -6   1    4.20    2.20
   5   6   1    1.70    2.50
   5   6  -1    4.10    2.20
   5  -6   1    4.40    2.60
   5   6  -1    6.20    2.70
   5  -6   1    7.40    2.90
  -5  -6  -1    1.90    2.00
  -5  -6  -1    2.30    2.00
  -5   6   1    8.90    2.10
  -6  -6   1  337.37   17.20
   6   6   1  368.76   17.20
   6  -6  -1  366.56   17.00
  -6  -6   1  349.77   17.20
   6  -6  -1  349.77   17.20
   6  -6   1  376.36   16.90
  -6  -6  -1  357.56   17.60
   6  -6   1  365.56   17.00
   6   6  -1  362.16   17.10
   6   6  -1  349.27   15.60
  -6  -6  -1  353.16   17.50
  -6   6   1  360.36   16.30
   7  -6  -1   44.00    6.50
   7   6   1   39.80    5.40
  -7  -6   1   38.20    4.30
  -7  -6   1   37.80    4.70
   7  -6  -1   37.30    5.20
   7  -6   1   38.40    5.10
   7   6  -1   28.40    3.70
  -7  -6  -1   39.30    4.90
   7   6  -1   37.00    5.00
   7  -6   1   38.00    5.00
  -7  -6  -1   39.50    4.40
  -8  -6   1  355.76   17.50
   8  -6  -1  355.26   17.60
  -8  -6   1  351.86   18.20
   8   6   1  364.26   18.30
   8  -6  -1  346.27   18.00
  -8  -6  -1  355.76   18.80
   8   6  -1  350.16   17.80
   8  -6   1  380.66   17.60
   8  -6   1  357.16   18.00
  -8  -6  -1  339.37   17.40
   9  -6  -1    8.80    4.30
   9  -6  -1    7.30    3.70
   9   6   1   10.00    4.30
   9  -6   1    4.00    3.60
   9   6  -1    8.10    4.00
   9  -6   1   10.40    3.60
  10  -6  -1  143.79   10.40
  10   6   1  150.28   10.90
  10  -6  -1  144.19   11.00
  10  -6   1  152.38   10.00
  10   6  -1  137.19   10.50
  10  -6   1  132.99   10.70
  11  -6  -1   15.80    4.30
  11  -6  -1   10.30    4.80
  11  -6   1    5.00    2.80
  11  -6   1   12.30    4.90
  11   6  -1    9.20    4.50
  12   6   1  128.59   10.50
  12  -6  -1  147.69    9.80
  12  -6  -1  128.79   10.80
  12   6  -1  121.59   10.10
  12  -6   1  133.09   10.80
  13   6   1   18.20    4.30
  13  -6  -1   19.70    5.20
  13  -6   1   12.40    4.60
  13   6  -1   10.70    3.70
   0   6   2 2441.06   89.39
   0   6   2 2365.16   88.69
   0  -6   2 2412.46   87.19
   0  -6  -2 2476.95   86.79
   0   6  -2 2421.26   88.29
   0  -6   2 2344.77   91.79
   0  -6  -2 2371.46   91.89
  -1   6  -2 1923.21   72.29
   1   6   2 1928.71   72.69
  -1  -6   2 1982.70   75.49
   1   6   2 1907.61   73.19
   1  -6  -2 1971.00   75.09
  -1  -6   2 1937.71   71.39
   1  -6  -2 1979.90   71.19
  -1  -6  -2 1961.90   70.59
   1  -6   2 1944.01   71.49
  -1  -6  -2 1968.30   75.49
   1  -6   2 2030.20   75.09
  -1   6   2 1964.70   72.89
   1   6  -2 1925.61   72.29
  -1   6   2 1918.91   72.79
  -2   6  -2   14.40    2.80
  -2  -6   2   15.70    3.10
   2  -6  -2   15.50    2.80
  -2  -6   2   12.60    1.80
   2   6   2   22.20    3.80
  -2  -6   2   10.90    1.50
  -2  -6   2    9.40    2.60
   2   6   2   18.60    3.10
   2  -6  -2   16.50    3.10
  -2  -6  -2   13.10    3.00
  -2  -6  -2   14.60    2.30
  -2   6   2   12.80    3.30
   2  -6   2   11.60    2.70
  -2   6   2   16.90    2.50
   2   6  -2   19.50    3.20
   2  -6   2   20.10    2.80
  -3  -6   2 2200.08   78.69
  -3  -6   2 2118.59   76.89
   3  -6  -2 2129.69   80.09
  -3  -6   2 2087.99   81.39
   3  -6  -2 2111.59   77.09
   3   6   2 2097.09   78.39
  -3   6  -2 2037.10   77.99
   3  -6   2 2078.09   76.99
   3   6  -2 2110.99   77.99
  -3  -6  -2 2091.79   81.39
   3  -6   2 2160.68   79.89
  -3   6   2 2140.89   78.69
  -3  -6  -2 2112.29   79.59
  -3  -6  -2 1941.61   75.29
  -3   6   2 2103.79   78.59
  -4  -6   2 1775.62   68.39
   4  -6  -2 1755.12   68.69
   4   6   2 1838.62   68.19
   4  -6  -2 1767.72   66.99
  -4  -6   2 1710.53   70.49
   4   6  -2 1815.72   67.79
   4  -6   2 1879.41   68.69
   4   6  -2 1818.22   66.69
   4  -6   2 1834.22   66.99
  -4  -6  -2 1816.72   69.39
  -4   6   2 1839.32   68.39
   4  -6   2 1804.52   67.79
  -4  -6  -2 1809.02   70.69
   5  -6  -2 1132.29   43.10
   5  -6  -2 1083.29   43.60
  -5  -6   2 1111.29   43.80
   5   6   2 1085.69   43.50
  -5  -6   2 1101.69   45.20
   5  -6   2 1109.89   43.30
   5  -6   2 1123.89   42.80
   5   6  -2 1062.49   43.00
   5   6  -2 1137.09   42.40
  -5  -6  -2 1092.69   44.50
  -5   6   2 1150.18   43.60
  -5  -6  -2 1060.79   45.00
   6   6   2   26.50    5.20
   6  -6  -2   10.80    3.90
  -6  -6   2   26.80    4.50
   6  -6  -2   18.50    4.30
  -6  -6   2   16.50    3.60
   6  -6   2   18.40    4.10
  -6  -6  -2   11.20    3.00
  -6   6   2   18.50    3.40
   6   6  -2   19.70    4.00
   6   6  -2   20.90    3.90
   6  -6   2   22.80    4.30
  -6  -6  -2   16.70    4.10
  -7  -6   2  979.80   41.40
   7  -6  -2  995.20   40.90
   7  -6  -2 1014.30   40.20
   7   6   2  982.00   40.60
  -7  -6   2  964.00   41.20
  -7  -6  -2  978.60   41.40
  -7   6   2 1008.00   40.50
  -7  -6  -2  997.40   42.00
   7  -6   2 1001.40   39.50
   7  -6   2  967.40   40.20
   7   6  -2 1027.70   40.40
   8  -6  -2  843.32   35.80
  -8  -6   2  793.02   36.00
   8   6   2  732.03   35.00
   8  -6  -2  882.21   35.30
  -8  -6   2  829.52   35.80
   8   6  -2  866.21   33.40
  -8  -6  -2  833.62   36.90
   8   6  -2  879.41   35.40
   8  -6   2  860.91   34.40
  -8  -6  -2  803.62   35.60
   8  -6   2  870.11   35.60
   9   6   2  647.04   29.30
   9  -6  -2  648.54   28.80
   9  -6  -2  649.74   29.60
   9  -6   2  655.33   28.00
   9  -6   2  632.74   29.10
   9   6  -2  650.03   29.00
  10   6   2    2.00    3.60
  10  -6  -2    4.10    3.80
  10  -6  -2    3.80    3.90
  10  -6   2    2.00    3.40
  10   6  -2    4.30    3.60
  10  -6   2    4.10    2.50
  11   6   2  336.67   19.20
  11  -6  -2  354.96   18.80
  11  -6  -2  353.06   19.60
  11  -6   2  346.97   19.30
  11   6  -2  351.76   18.70
  12  -6  -2  351.86   18.50
  12  -6  -2  350.56   20.00
  12   6   2  356.66   19.40
  12   6  -2  334.47   18.60
  12  -6   2  356.16   19.50
  13  -6  -2  328.07   18.80
  13   6   2  319.97   18.20
  13   6  -2  320.47   17.80
  13  -6   2  343.37   18.80
   0  -6   3  941.71   38.30
   0  -6  -3  959.90   38.30
   0   6   3  909.11   36.60
   0  -6   3  933.11   36.20
   0  -6  -3  930.11   35.40
   0   6  -3  971.80   36.10
   0   6   3  939.31   36.90
   1  -6  -3   70.89    4.90
  -1  -6   3   74.49    5.40
  -1  -6   3   79.59    6.00
   1   6   3   69.09    5.00
   1   6   3   65.59    5.20
   1  -6  -3   65.39    5.30
  -1   6  -3   72.69    4.80
  -1  -6  -3   69.49    5.70
   1  -6   3   69.79    5.30
  -1  -6  -3   76.19    4.50
   1   6  -3   73.79    4.80
  -1   6   3   68.99    4.80
  -1   6   3   66.49    5.20
   1  -6   3   67.39    5.20
  -2   6  -3  984.30   35.20
  -2  -6   3  879.41   37.20
   2  -6  -3  840.72   34.60
   2   6   3  886.71   36.00
  -2  -6   3  860.51   35.00
   2  -6  -3  872.11   36.30
  -2  -6   3  883.41   34.30
   2   6   3  956.70   35.70
  -2  -6  -3  959.10   37.50
  -2   6   3  882.71   35.60
   2   6  -3  820.62   34.60
   2  -6   3  981.40   36.40
  -2   6   3  842.82   35.30
  -2  -6  -3  935.31   33.50
   2  -6   3  945.61   35.00
  -3  -6   3   28.90    3.00
  -3  -6   3   36.90    4.20
  -3  -6   3   31.90    4.20
   3  -6  -3   24.70    3.20
   3   6   3   41.40    5.40
  -3   6  -3   33.90    3.60
   3  -6  -3   28.70    3.90
   3  -6   3   27.90    3.80
  -3   6   3   30.80    3.50
  -3   6   3   35.10    4.10
  -3  -6  -3   33.90    4.30
   3  -6   3   37.40    3.40
   3   6  -3   33.20    3.40
   4  -6  -3  645.24   28.30
   4   6   3  740.83   29.10
  -4  -6   3  668.73   30.20
  -4  -6   3  667.33   28.40
   4  -6  -3  693.83   28.60
   4   6  -3  676.53   28.10
   4  -6   3  804.12   28.60
   4  -6   3  711.93   28.40
  -4  -6  -3  724.23   30.30
   4   6  -3  666.03   28.30
  -4  -6  -3  757.12   30.00
  -4   6   3  679.13   29.00
   4  -6   3  729.53   28.40
  -4   6   3  667.73   28.70
   5  -6  -3   51.89    5.40
  -5  -6   3   46.90    4.40
  -5  -6   3   49.60    5.20
   5   6   3   50.99    5.10
   5  -6   3   47.80    4.70
  -5   6   3   45.00    4.40
  -5  -6  -3   34.40    4.70
   5   6  -3   42.80    4.40
   5   6  -3   40.20    4.80
  -5  -6  -3   44.00    5.00
   5  -6   3   42.90    4.50
  -6  -6   3  555.64   24.20
   6   6   3  554.94   24.00
   6  -6  -3  520.75   23.70
  -6  -6   3  532.55   24.70
   6  -6  -3  549.45   24.10
   6  -6   3  541.85   23.40
   6   6  -3  503.95   23.00
   6   6  -3  526.35   23.00
  -6   6   3  534.45   23.80
   6  -6   3  565.74   23.20
  -6  -6  -3  526.65   24.50
  -6  -6  -3  557.94   25.00
   7   6   3   40.30    5.50
   7  -6  -3   43.40    6.50
   7  -6  -3   45.30    6.40
  -7  -6   3   44.70    4.60
  -7  -6   3   38.10    4.40
  -7  -6  -3   32.10    4.70
  -7   6   3   36.80    4.00
   7  -6   3   39.80    4.80
  -7  -6  -3   40.60    4.50
   7  -6   3   39.90    6.00
   7   6  -3   38.50    4.90
   7   6  -3   33.10    4.60
  -8  -6   3  295.57   16.60
   8  -6  -3  313.97   16.80
  -8  -6   3  313.27   16.20
   8  -6  -3  337.77   17.30
   8   6   3  319.57   16.90
   8   6  -3  306.17   16.00
  -8  -6  -3  311.57   16.30
   8  -6   3  336.87   16.00
   8  -6   3  324.77   16.60
   8   6  -3  336.37   15.80
   9  -6  -3   11.00    4.50
   9   6   3    8.80    4.10
   9  -6  -3    2.70    3.40
   9  -6   3   11.80    4.00
   9   6  -3   12.10    3.70
   9   6  -3    2.80    2.80
   9  -6   3   10.40    3.10
  10   6   3  199.98   13.70
  10  -6  -3  229.28   14.10
  10  -6  -3  210.78   14.00
  10  -6   3  220.68   13.90
  10   6  -3  228.58   13.40
  11   6   3   26.70    6.60
  11  -6  -3   31.10    6.50
  11  -6  -3   25.50    5.70
  11   6  -3   46.30    5.30
  11  -6   3   32.20    6.70
  12   6   3  159.78   11.80
  12  -6  -3  179.28   12.80
  12  -6  -3  145.79   11.20
  12   6  -3  167.48   11.00
  12  -6   3  178.28   12.20
  13  -6  -3    3.70    3.40
  13   6   3   23.70    4.90
  13  -6  -3   11.10    3.00
  13   6  -3   14.90    3.50
  13  -6   3   11.90    3.70
   0   6   4    8.40    2.90
   0  -6  -4    7.60    2.70
   0  -6   4    7.10    2.60
   0   6  -4    6.60    2.00
   0  -6   4    7.50    2.60
   0  -6  -4    7.50    2.00
   0   6   4    4.90    2.10
   1   6   4 1495.95   58.49
   1   6   4 1453.15   57.39
  -1  -6   4 1543.25   57.09
   1  -6  -4 1551.94   59.79
  -1  -6   4 1530.55   59.99
  -1   6  -4 1580.74   56.69
   1  -6  -4 1518.95   56.09
  -1   6   4 1523.05   57.59
   1   6  -4 1506.65   56.49
   1  -6   4 1479.55   56.59
   1  -6   4 1570.74   59.69
  -1   6   4 1494.85   58.39
  -1  -6  -4 1556.54   60.19
  -1  -6  -4 1455.95   55.29
  -2   6  -4 1956.40   69.69
   2  -6  -4 1840.72   68.99
   2   6   4 1894.01   70.39
   2   6   4 1810.32   71.69
  -2  -6   4 1956.50   69.79
  -2  -6   4 1824.02   69.59
  -2  -6   4 1864.91   73.49
   2  -6  -4 1864.91   72.59
  -2   6   4 1867.21   71.39
   2  -6   4 1847.82   69.19
  -2  -6  -4 1915.91   73.39
   2  -6   4 1913.91   72.49
  -2   6   4 1863.31   70.39
   2   6  -4 1835.92   69.29
   3  -6  -4 1621.74   60.19
  -3   6  -4 1605.54   60.29
  -3  -6   4 1643.34   63.89
  -3  -6   4 1627.94   60.79
   3   6   4 1623.34   61.09
   3   6   4 1645.04   62.69
   3  -6  -4 1544.75   62.29
   3  -6   4 1649.54   62.39
  -3  -6  -4 1598.04   63.69
   3  -6   4 1580.34   59.89
  -3   6   4 1600.64   61.89
  -3   6   4 1606.04   61.19
   3   6  -4 1531.05   59.89
  -4  -6   4    2.80    1.70
   4  -6  -4    0.80    1.40
   4  -6  -4    2.50    2.60
  -4  -6   4    6.70    2.60
   4   6   4    5.10    3.00
   4  -6   4    4.60    1.60
   4   6  -4    7.00    2.20
   4   6  -4    7.10    2.90
  -4   6   4    9.50    2.50
  -4  -6  -4    0.20    1.90
   4  -6   4    7.20    2.60
  -4  -6  -4    2.20    2.30
  -4   6   4    3.30    2.70
  -5  -6   4  966.70   38.60
  -5  -6   4  950.90   40.00
   5  -6  -4  972.00   38.30
   5   6   4  938.81   38.40
   5   6  -4  961.70   37.40
   5   6  -4  979.70   38.10
  -5  -6  -4  924.81   40.10
  -5   6   4  959.90   39.00
   5  -6   4  964.60   37.80
   5  -6   4  978.80   37.60
  -5  -6  -4  914.21   39.70
  -5   6   4  927.91   38.50
  -6  -6   4 1143.09   48.30
   6  -6  -4 1154.08   46.50
   6   6   4 1218.88   47.10
  -6  -6   4 1160.08   47.50
   6   6  -4 1184.18   46.20
  -6  -6  -4 1190.48   48.70
   6  -6   4 1179.78   45.60
   6  -6   4 1210.58   46.40
  -6   6   4 1151.78   47.50
  -6  -6  -4 1174.68   48.60
   6   6  -4 1175.58   45.90
   7  -6  -4  855.61   35.00
   7  -6  -4  745.03   34.50
  -7  -6   4  791.52   35.20
  -7  -6   4  818.52   35.50
   7   6   4  868.31   35.10
  -7  -6  -4  777.82   36.10
  -7   6   4  821.82   35.30
   7  -6   4  876.01   34.50
  -7  -6  -4  806.72   35.50
   7   6  -4  850.61   34.10
   7   6  -4  830.42   33.70
   7  -6   4  848.32   33.50
   8  -6  -4    1.90    3.40
  -8  -6   4    5.40    2.00
   8   6   4    2.10    3.10
   8  -6  -4   -0.30    2.80
  -8  -6   4    1.80    1.40
   8  -6   4    2.40    2.00
   8  -6   4    1.50    2.50
   8   6  -4   -1.40    2.60
   8   6  -4    1.00    2.20
   9  -6  -4  522.45   25.70
   9   6   4  527.55   25.60
   9  -6  -4  555.64   25.90
   9  -6   4  565.64   25.40
   9   6  -4  541.65   24.40
   9   6  -4  550.24   24.60
  10  -6  -4  616.34   28.90
  10   6   4  615.74   28.50
  10  -6  -4  617.34   28.70
  10  -6   4  622.64   28.30
  10   6  -4  582.74   27.10
  11  -6  -4  334.57   19.10
  11   6   4  346.57   19.20
  11  -6  -4  346.47   19.00
  11   6  -4  354.66   18.40
  11  -6   4  318.07   18.10
  12   6   4   13.50    3.60
  12  -6  -4    8.00    3.80
  12  -6  -4    5.30    2.90
  12  -6   4    6.80    3.50
  13  -6  -4  273.17   15.90
  13   6   4  309.87   16.80
  13  -6  -4  254.87   16.30
  13  -6   4  262.67   16.30
   0  -6  -5  302.57   12.80
   0  -6   5  297.37   14.10
   0   6   5  275.97   13.50
   0  -6  -5  298.57   14.80
   0  -6   5  274.77   14.40
   0   6   5  292.67   14.30
   1   6   5    6.90    2.80
   1   6   5    3.90    2.00
   1  -6  -5    3.70    2.20
   1  -6  -5    8.30    2.40
  -1  -6   5    7.30    2.90
  -1  -6   5    6.70    2.70
  -1   6   5    6.10    2.50
   1  -6   5    4.40    2.50
  -1   6   5    7.00    2.90
   1  -6   5    8.40    2.60
  -1  -6  -5    2.90    2.30
   2  -6  -5  560.74   23.60
  -2   6  -5  598.24   23.00
   2  -6  -5  534.85   24.80
  -2  -6   5  576.34   25.70
   2   6   5  571.94   25.10
   2   6   5  592.64   24.10
  -2   6   5  554.64   24.60
  -2  -6  -5  583.14   25.70
   2  -6   5  577.84   23.90
   2  -6   5  577.74   24.80
  -2   6   5  564.54   24.00
   3   6   5   41.60    4.70
  -3  -6   5   41.90    5.10
   3  -6  -5   51.79    4.80
   3   6   5   50.49    5.00
  -3   6  -5   46.80    3.90
   3  -6  -5   41.90    4.80
  -3   6   5   53.69    4.90
  -3   6   5   53.49    5.00
   3  -6   5   51.99    5.00
  -3  -6  -5   44.90    5.10
   3   6  -5   48.60    5.30
   3  -6   5   51.29    4.60
   4  -6  -5  374.16   18.20
   4   6   5  437.16   18.80
  -4  -6   5  378.66   17.90
  -4   6  -5  432.66   17.80
   4   6   5  406.06   19.80
   4  -6  -5  385.86   18.40
  -4  -6   5  413.26   19.90
   4  -6   5  439.76   18.30
  -4   6   5  373.76   18.30
   4  -6   5  426.06   18.30
  -4  -6  -5  435.46   20.00
  -4   6   5  396.16   19.10
   4   6  -5  370.66   18.60
  -5  -6   5   -1.50    1.30
   5   6   5   -0.20    2.40
  -5  -6   5    3.10    2.10
   5  -6  -5    3.90    3.00
   5   6  -5   -0.40    2.60
  -5  -6  -5    2.10    1.70
  -5  -6  -5    2.40    1.70
  -5   6   5    3.20    1.80
  -5   6   5    2.80    2.70
   5  -6   5    1.70    1.90
   5  -6   5    1.20    2.10
  -6  -6   5  221.18   12.90
   6  -6  -5  227.48   13.50
   6   6   5  282.67   13.90
  -6  -6   5  214.28   13.50
  -6  -6  -5  263.77   14.80
   6   6  -5  241.28   13.60
   6  -6   5  276.17   13.00
  -6   6   5  228.28   13.30
  -6   6   5  247.08   13.60
  -6  -6  -5  271.07   14.40
   7  -6  -5   18.40    5.00
   7   6   5   27.30    5.60
  -7  -6   5   18.40    3.80
   7  -6   5   23.40    4.60
  -7   6   5   17.90    3.70
  -7   6   5   16.10    4.60
   7   6  -5   27.40    5.50
  -7  -6  -5   26.10    3.50
   7  -6   5   17.50    3.60
   8   6   5  280.27   15.50
   8  -6  -5  270.57   15.90
   8  -6   5  290.47   14.90
   8   6  -5  269.17   15.00
   9  -6  -5    9.00    4.60
   9   6   5    4.70    3.90
   9  -6   5   11.40    3.20
   9   6  -5    8.00    4.10
  10  -6  -5   93.79    9.50
  10   6   5  100.79    9.10
  10  -6  -5   98.29    8.80
  10  -6   5  118.69    8.80
  10   6  -5   95.29    8.30
  11  -6  -5    7.80    4.10
  11   6   5    2.20    3.00
  11  -6   5    9.60    3.20
  12   6   5   95.89    8.60
  12  -6  -5  106.89    9.20
  12  -6   5   97.49    8.20
   0   6   6 1568.44   59.89
   0  -6  -6 1567.74   63.19
   0  -6  -6 1560.24   58.09
   0  -6   6 1589.14   62.99
   0  -6   6 1611.24   59.89
   1   6   6  966.80   39.50
   1  -6  -6 1009.00   38.60
  -1  -6   6 1022.70   42.10
   1  -6  -6 1040.60   42.10
   1   6   6  959.00   41.10
  -1  -6  -6  996.90   42.10
  -1   6   6 1016.10   39.60
   1  -6   6 1010.70   39.70
   1  -6   6 1052.29   41.80
  -1   6   6 1004.50   41.30
   2  -6  -6   17.90    3.80
   2   6   6   18.90    3.90
  -2  -6   6   21.40    4.20
   2  -6  -6   28.00    4.50
   2   6   6   16.30    3.60
  -2   6   6   21.50    4.00
  -2   6   6   20.90    4.20
   2   6  -6   15.80    4.00
   2  -6   6   20.50    4.00
   2  -6   6   18.90    3.40
  -2  -6  -6   15.50    3.70
   3  -6  -6  907.81   35.60
   3   6   6  874.21   37.60
   3   6   6  877.11   35.80
  -3  -6   6  904.91   38.50
   3  -6  -6  882.11   37.40
  -3  -6  -6  895.91   38.30
  -3   6   6  907.81   35.90
   3  -6   6  886.51   37.00
   3  -6   6  882.41   35.40
   3   6  -6  914.11   36.50
  -3   6   6  891.01   37.40
   4   6   6 1077.79   46.20
   4  -6  -6 1049.99   45.00
   4   6   6 1157.78   44.30
   4  -6  -6 1118.29   43.80
  -4  -6   6 1143.69   46.90
   4   6  -6 1117.29   44.30
   4  -6   6 1151.98   43.40
   4  -6   6 1162.38   45.20
  -4   6   6 1091.49   45.70
  -4  -6  -6 1083.19   46.40
  -4   6   6 1092.29   44.00
  -5  -6   6  720.63   32.30
   5   6   6  712.03   30.30
   5  -6  -6  749.33   30.70
  -5   6   6  704.93   31.60
   5   6  -6  670.73   30.50
   5  -6   6  716.53   29.50
  -5  -6  -6  727.03   32.20
  -5   6   6  752.72   30.50
   6   6   6    3.50    3.00
   6  -6  -6    5.40    3.80
   6   6  -6    1.40    3.30
  -6   6   6    2.60    1.80
  -6   6   6   -2.60    2.10
   6  -6   6   -0.30    2.00
   7   6   6  571.44   25.70
   7  -6  -6  572.64   26.10
   7  -6   6  540.55   24.50
  -7   6   6  583.54   25.70
   7   6  -6  545.55   25.80
   8  -6  -6  522.15   25.80
   8   6   6  543.65   25.40
   8  -6   6  544.45   24.50
   8   6  -6  570.24   25.70
   9  -6  -6  355.16   19.80
   9   6   6  380.86   19.30
   9   6  -6  362.86   19.00
   9  -6   6  353.86   18.10
  10   6   6    2.80    2.90
  10  -6  -6    5.60    4.20
  10   6  -6   -5.20    3.00
  10  -6   6   11.80    3.20
 -10   6   6   13.70    3.20
  11   6   6  293.27   16.40
  11  -6  -6  284.97   17.00
  11   6  -6  276.57   15.80
  12   6   6  286.77   16.30
  12  -6  -6  299.27   17.30
   0  -6  -7  354.76   18.20
   0   6   7  347.57   15.80
   0   6   7  336.07   17.40
   0  -6   7  348.87   17.70
   1  -6  -7   41.50    4.00
  -1  -6   7   31.40    4.60
   1   6   7   34.50    4.10
   1   6   7   28.10    4.10
   1  -6  -7   35.50    5.00
   1  -6   7   29.80    5.00
   1  -6   7   41.80    4.80
  -1   6   7   34.50    4.00
   1   6  -7   34.60    5.60
  -1   6   7   27.40    4.90
  -1  -6  -7   25.60    4.90
  -2  -6   7  461.35   21.80
   2   6   7  418.76   19.20
   2   6   7  435.46   21.20
   2  -6  -7  433.56   21.30
   2  -6  -7  453.65   19.40
  -2   6   7  428.06   19.30
  -2  -6  -7  445.36   21.70
  -2   6   7  435.56   21.00
   2  -6   7  458.85   20.10
   2   6  -7  427.16   20.40
   2  -6   7  437.66   20.80
  -3  -6   7   39.50    5.20
   3  -6  -7   33.40    4.70
   3   6   7   40.60    4.90
   3  -6  -7   34.00    4.90
   3   6   7   38.20    4.40
   3   6  -7   40.80    5.50
   3  -6   7   39.20    4.80
  -3   6   7   32.80    4.10
  -3  -6  -7   38.90    5.10
  -3   6   7   32.70    4.40
   3  -6   7   33.10    4.40
   4  -6  -7  335.17   16.60
   4   6   7  356.46   16.30
  -4  -6   7  315.07   17.60
   4  -6  -7  283.47   16.30
   4   6   7  350.16   18.10
   4   6  -7  329.77   17.10
  -4   6   7  336.57   16.00
  -4  -6  -7  324.67   17.50
  -4   6   7  313.07   17.20
   4  -6   7  382.86   16.50
   5   6   7   25.10    4.80
   5  -6  -7   26.70    5.30
   5  -6   7   20.00    4.10
   5   6  -7   16.20    4.90
  -5   6   7   22.90    4.50
  -5   6   7   16.20    3.30
   6  -6  -7  251.57   15.10
   6   6   7  299.87   14.90
  -6   6   7  256.97   14.10
   6   6  -7  271.97   15.60
   7   6   7   41.40    5.20
   7  -6  -7   38.10    6.80
  -7   6   7   28.10    5.50
   7   6  -7   47.80    7.60
   8   6   7  249.38   13.90
   8  -6  -7  223.18   14.60
   8   6  -7  241.18   14.60
  -8   6   7  200.48   13.50
   9   6   7    6.60    3.50
   9  -6  -7    9.10    5.00
   9   6  -7   16.60    5.60
  10  -6  -7  134.39   11.40
  10   6   7  143.79   10.10
  10   6  -7  115.19   10.20
  11  -6  -7   11.40    5.00
  11   6   7   14.70    3.50
  11   6  -7   11.50    4.20
   0  -6   8    1.80    2.00
   0  -6  -8    3.20    2.90
   0   6  -8    0.80    2.90
   0   6   8    4.00    2.30
   1   6   8  728.43   32.80
  -1   6  -8  772.22   31.20
  -1  -6   8  759.82   33.30
   1  -6   8  708.83   32.50
   1   6  -8  714.73   31.20
  -1   6   8  735.83   32.80
  -1  -6  -8  746.43   33.50
  -2  -6   8  940.81   40.50
   2  -6  -8  929.81   36.70
   2   6   8  880.01   39.60
   2   6  -8  878.91   37.80
  -2  -6  -8  913.61   40.40
   2  -6   8 1000.50   40.00
   3   6   8  895.71   36.10
   3  -6  -8  938.61   36.50
  -3   6   8  870.51   38.80
   3  -6   8  904.41   36.50
   3   6  -8  874.31   37.40
   4   6   8    4.00    2.30
   4  -6  -8    4.20    3.00
   4   6  -8    2.70    3.70
   4  -6   8    0.10    2.40
   5  -6  -8  517.15   24.30
   5   6   8  499.05   23.30
   5   6  -8  571.44   25.60
   6  -6  -8  599.74   27.80
   6   6   8  600.34   26.90
   6   6  -8  634.44   28.60
   7  -6  -8  543.45   26.00
   7   6   8  538.15   24.80
   7   6  -8  557.14   26.40
   8  -6  -8    6.80    4.70
   8   6   8    7.90    2.50
   8   6  -8    6.40    4.80
   9   6   8  378.36   19.30
   9  -6  -8  390.96   21.20
   9   6  -8  379.16   20.60
  10   6   8  413.76   20.00
  10  -6  -8  371.26   21.20
  10   6  -8  379.16   20.80
  11  -6  -8  250.37   15.40
  11   6  -8  217.38   14.20
   0   6  -9  257.77   14.40
  -1   6  -9    8.40    3.80
   1   6  -9    9.20    4.10
  -2   6  -9  232.78   13.40
   2   6  -9  251.27   14.30
  -3   6  -9    3.60    3.10
   3  -6  -9    5.40    3.10
   3   6  -9    6.40    4.50
   4  -6  -9  197.98   12.30
   4   6  -9  228.78   14.00
   5  -6  -9   11.00    4.30
   5   6  -9   14.10    5.30
   6  -6  -9  186.58   12.60
   6   6  -9  196.28   13.50
   7  -6  -9    1.80    3.60
   7   6  -9   -5.20    3.80
   8  -6  -9  143.49   11.80
   8   6  -9  168.18   12.60
   9  -6  -9    5.20    4.00
   9   6  -9    9.10    4.30
  10  -6  -9  105.79    9.80
  10   6  -9   83.09    8.80
   0   6 -10  691.03   30.40
  -1   6 -10  456.95   21.90
   1   6 -10  471.75   22.60
  -2   6 -10    2.10    2.60
   2   6 -10    0.40    3.50
   3   6 -10  437.26   22.10
   4  -6 -10  569.74   26.10
   4   6 -10  591.04   27.60
   5  -6 -10  369.36   18.90
   5   6 -10  358.66   19.80
   6  -6 -10   10.10    3.80
   6   6 -10    8.50    4.70
   7  -6 -10  311.07   18.10
   7   6 -10  333.37   18.90
   8  -6 -10  412.56   21.70
   8   6 -10  402.46   21.90
   9  -6 -10  239.68   15.30
   9   6 -10  231.38   15.30
   0   6 -11  100.19    8.80
  -1   6 -11    9.20    3.40
   1   6 -11   11.70    4.40
   2   6 -11  180.38   12.60
   3   6 -11   33.90    7.20
   4   6 -11  109.29   10.10
   5  -6 -11    4.30    3.30
   5   6 -11    1.10    4.20
   6  -6 -11   83.19    7.90
   6   6 -11   68.49    8.50
   7  -6 -11   14.90    4.60
   7   6 -11   25.60    6.50
   8  -6 -11  113.89    9.80
   8   6 -11  124.09   10.50
   0   6 -12    5.70    2.90
   1   6 -12  313.97   17.30
   2   6 -12  353.36   19.10
   3   6 -12  296.47   17.30
   4   6 -12    6.10    4.20
   5   6 -12  227.78   14.60
   6   6 -12  327.77   18.80
   7   6 -12  236.18   15.30
   1   6 -13   16.50    3.40
   2   6 -13  109.79    8.60
   3   6 -13    9.90    3.20
   4   6 -13   87.99    8.40
   5   6 -13   10.30    4.50
   0  -7   0   25.80    3.30
   0  -7   0   28.30    1.90
   0   7   0   29.80    3.70
   0  -7   0   31.70    3.90
  -1  -7   0   26.20    2.30
  -1   7   0   27.60    3.70
   1   7   0   25.00    3.50
   1  -7   0   29.30    3.40
   1  -7   0   22.90    3.40
  -1  -7   0   28.80    3.90
  -1  -7   0   23.80    3.10
   2  -7   0    6.70    2.20
   2   7   0    5.00    2.60
  -2  -7   0    5.40    2.10
  -2   7   0    5.40    2.70
   2  -7   0    5.00    2.60
  -2  -7   0    7.00    1.90
  -2  -7   0    6.80    2.70
   3   7   0   33.70    4.90
  -3  -7   0   26.10    3.10
  -3  -7   0   28.40    4.40
  -3  -7   0   25.80    3.10
   3  -7   0   33.10    4.70
   3  -7   0   30.80    3.20
  -3   7   0   38.30    5.40
   4  -7   0    2.00    2.30
   4   7   0    2.90    2.40
  -4  -7   0    1.90    1.60
  -4  -7   0    3.30    2.20
  -4   7   0    2.10    2.60
   4  -7   0    3.40    1.30
  -4  -7   0    5.10    1.90
   5   7   0   28.20    5.10
   5   7   0   20.90    2.90
  -5  -7   0   23.60    4.40
   5  -7   0   27.00    4.80
  -5  -7   0   28.50    4.50
  -6  -7   0   16.40    3.80
   6  -7   0   10.40    3.70
   6  -7   0    8.80    3.40
   6   7   0   11.00    3.70
  -6  -7   0   12.40    3.00
   7  -7   0   14.10    4.10
   7  -7   0   12.70    4.10
  -7  -7   0   10.50    2.60
  -7  -7   0    6.00    2.10
   7   7   0   10.20    3.90
   8   7   0   -0.90    2.90
   8  -7   0    1.10    2.70
  -8  -7   0    2.70    1.80
   8  -7   0    1.20    3.20
   9  -7   0   14.80    4.60
   9   7   0   16.90    5.10
   9  -7   0   16.70    5.00
  10  -7   0   16.40    4.40
  10  -7   0    8.70    4.30
  10   7   0    9.80    4.60
  11   7   0   -5.10    2.70
  11  -7   0    3.50    2.30
  11  -7   0    5.10    3.90
  12  -7   0    6.30    3.90
  12   7   0    8.40    3.40
  13   7   0    8.70    3.20
  13  -7   0   10.70    3.70
   0  -7   1    2.80    1.90
   0  -7  -1    2.70    1.80
   0  -7  -1    7.00    2.50
   0  -7   1    3.90    2.20
   0   7   1    3.70    2.20
   0   7  -1    3.70    2.20
   0   7   1    2.60    1.00
   1  -7  -1    0.80    1.80
  -1  -7   1    4.50    2.40
   1   7   1    5.20    2.60
  -1  -7   1    3.20    2.20
  -1   7  -1    9.40    3.10
   1  -7  -1    5.20    2.30
  -1  -7  -1    6.60    2.20
  -1   7   1    4.50    1.20
  -1   7   1    3.70    2.50
  -1  -7  -1    2.60    2.40
  -1  -7  -1    3.70    1.50
   1  -7   1    2.60    2.10
   1  -7   1   -0.60    1.60
   1   7  -1    1.20    2.10
  -2  -7   1   15.00    3.50
  -2  -7   1   23.80    3.20
   2  -7  -1   15.10    3.10
  -2   7  -1   27.00    3.70
  -2  -7   1   12.40    1.90
   2  -7  -1   17.40    3.00
   2   7   1   22.20    4.10
  -2   7   1   13.50    3.30
   2  -7   1   17.40    2.90
  -2  -7  -1   26.10    3.70
  -2  -7  -1   20.40    2.60
   2   7  -1   19.30    3.60
   2  -7   1   20.80    3.50
  -2  -7  -1   17.60    2.60
  -3  -7   1    5.60    2.50
   3  -7  -1    5.90    2.60
   3   7   1    2.70    2.60
  -3  -7   1    2.40    1.50
  -3   7  -1    3.30    2.60
   3  -7  -1    2.50    1.60
  -3  -7   1    3.00    1.90
   3  -7   1    7.90    2.90
  -3  -7  -1    6.30    2.20
  -3  -7  -1    3.40    2.30
   3  -7   1    5.70    1.80
  -3   7   1    6.40    1.40
  -3   7   1    4.30    2.60
   3   7  -1    7.80    2.80
  -3  -7  -1    7.40    2.10
   4  -7  -1    6.40    2.90
  -4  -7   1    6.30    2.20
  -4   7  -1    4.60    2.80
   4  -7  -1    6.20    1.60
   4   7   1    5.80    3.00
  -4  -7   1    1.50    2.10
  -4  -7   1    3.20    1.80
  -4   7   1    6.10    3.10
   4  -7   1    3.90    1.40
   4  -7   1    4.00    2.50
  -4  -7  -1    0.80    1.70
   4   7  -1    3.50    2.60
  -4  -7  -1    6.50    2.60
  -4  -7  -1    4.90    1.70
  -5  -7   1    5.50    2.50
   5  -7  -1    9.30    3.40
   5   7   1   10.40    3.30
  -5  -7   1    6.40    2.30
   5   7  -1    9.80    3.50
   5  -7   1   14.50    3.70
   5  -7   1    9.70    3.30
  -5  -7  -1   10.30    3.10
   5   7  -1    9.50    2.60
  -5  -7  -1    5.80    2.80
  -6  -7   1    4.50    1.90
   6   7   1    0.60    2.70
   6  -7  -1    0.30    2.70
  -6  -7   1    4.70    1.70
   6  -7  -1   -0.30    2.70
   6  -7   1    0.60    2.60
   6  -7   1    1.40    2.80
   6   7  -1    2.30    2.00
   6   7  -1   -1.20    2.30
  -6  -7  -1    0.80    1.70
  -6  -7  -1    2.40    1.80
   7  -7  -1    5.10    3.50
  -7  -7   1    5.80    1.90
  -7  -7   1    5.80    2.20
   7  -7  -1    5.90    3.40
   7   7   1   -1.10    2.70
   7  -7   1    0.30    3.10
  -7  -7  -1    8.30    2.40
   7  -7   1    5.70    3.30
   7   7  -1    0.60    3.00
  -7  -7  -1    7.70    2.10
  -8  -7   1   11.60    2.80
   8  -7  -1   10.30    4.10
   8  -7  -1    6.40    3.50
   8   7   1    6.60    3.80
  -8  -7   1   15.00    2.10
   8  -7   1   10.00    3.60
   8   7  -1    6.90    3.80
   8  -7   1   12.10    4.20
  -8  -7  -1    9.40    2.80
   9  -7  -1   -1.70    2.90
   9  -7  -1    0.20    3.00
   9   7   1   -0.60    3.30
   9   7  -1   -0.10    3.00
   9  -7   1   -0.10    3.00
   9  -7   1   -2.50    2.50
  10   7   1    1.90    3.80
  10  -7  -1   -3.90    3.40
  10  -7  -1   -5.50    2.00
  10  -7   1    3.80    2.70
  10  -7   1    3.20    3.80
  10   7  -1   -0.80    3.10
  11  -7  -1   -1.50    3.70
  11   7   1    1.70    3.70
  11  -7  -1    0.50    2.90
  11   7  -1   -0.70    2.90
  11  -7   1    5.30    2.20
  11  -7   1    0.00    3.30
  12  -7  -1    1.10    3.40
  12   7   1   14.70    4.20
  12  -7  -1    9.80    2.80
  12   7  -1    9.00    3.60
  12  -7   1    4.60    3.20
  13   7   1   11.80    3.40
  13  -7  -1    4.00    3.20
  13   7  -1   15.70    4.00
  13  -7   1    4.40    3.20
   0   7  -2   15.60    3.20
   0  -7   2   13.80    3.20
   0   7   2   18.50    4.00
   0  -7   2   21.80    3.80
   0  -7  -2   16.90    3.00
   0   7   2   13.50    2.50
   0  -7  -2   14.20    3.40
   1   7   2   93.49    5.80
   1  -7  -2   93.29    6.60
  -1   7  -2   94.69    6.30
   1   7   2  102.79    6.70
  -1  -7   2   96.19    6.40
   1  -7  -2   92.39    6.10
  -1  -7   2  102.39    7.00
  -1   7   2   94.39    5.40
  -1  -7  -2   93.99    5.70
   1   7  -2  105.29    6.40
  -1  -7  -2   87.29    6.70
  -1   7   2   96.79    6.70
   1  -7   2   97.49    6.40
   1  -7   2  102.89    6.70
   2   7   2   19.10    3.90
   2  -7  -2   21.70    3.70
  -2  -7   2   18.60    3.80
  -2  -7   2   20.30    3.80
  -2   7  -2   23.20    4.20
   2  -7  -2   17.20    3.30
  -2  -7  -2   10.60    2.50
   2   7  -2   26.50    4.20
  -2   7   2   19.30    4.10
   2  -7   2   23.10    4.00
  -2  -7  -2   22.40    4.20
  -2   7   2   16.90    2.30
  -2  -7  -2   16.00    2.40
   2  -7   2   18.50    3.20
  -3  -7   2   13.80    2.30
   3  -7  -2   14.10    2.70
  -3   7  -2   10.60    3.10
   3   7   2   13.80    3.50
  -3  -7   2   11.10    2.90
  -3  -7   2   11.10    2.90
   3  -7  -2   16.00    3.50
  -3  -7  -2   13.10    3.10
  -3   7   2   13.50    2.40
  -3   7   2   10.40    3.30
   3   7  -2   16.20    3.60
   3  -7   2   12.50    2.60
   3  -7   2   14.90    3.50
  -3  -7  -2   14.30    2.00
  -3  -7  -2   15.70    3.40
  -4  -7   2   26.30    3.10
   4   7   2   28.60    4.70
   4  -7  -2   25.80    4.30
  -4  -7   2   20.40    3.80
  -4   7  -2   28.20    4.50
   4  -7  -2   21.00    2.80
  -4   7   2   21.60    2.60
  -4   7   2   32.80    5.40
  -4  -7  -2   21.30    3.90
  -4  -7  -2   20.10    3.90
   4  -7   2   23.50    4.00
   4   7  -2   29.00    4.40
   4  -7   2   18.60    2.50
  -5  -7   2  104.19    7.70
   5   7   2   85.19    7.20
   5  -7  -2   96.69    7.50
  -5  -7   2  100.19    6.70
   5   7  -2  108.19    7.10
   5   7  -2   92.99    7.00
   5  -7   2   95.99    7.10
  -5  -7  -2  101.09    7.30
  -5  -7  -2   98.99    7.50
  -5   7   2   93.39    7.60
   5  -7   2   97.59    7.20
   6  -7  -2    4.70    3.40
   6   7   2    5.70    3.30
  -6  -7   2    7.70    2.40
  -6  -7   2   10.40    2.80
   6  -7   2    3.70    2.90
   6   7  -2    4.30    2.60
   6  -7   2    3.60    3.00
  -6  -7  -2    8.50    2.70
   6   7  -2    6.10    3.10
  -6  -7  -2    4.40    2.30
  -7  -7   2   12.10    2.90
   7  -7  -2    9.70    3.80
   7   7   2   16.60    4.40
   7  -7  -2   11.80    4.30
   7  -7   2    7.20    3.60
   7   7  -2    9.30    3.20
   7  -7   2    7.00    3.30
  -7  -7  -2    8.50    2.60
   7   7  -2    9.80    3.60
   8   7   2   28.90    6.10
   8  -7  -2   30.10    5.90
   8  -7  -2   26.30    5.90
  -8  -7   2   28.90    3.40
   8   7  -2   34.90    6.10
  -8  -7  -2   34.70    3.50
   8  -7   2   29.30    5.80
   8  -7   2   30.80    5.40
   9  -7  -2   24.30    5.70
   9   7   2   23.20    5.50
   9  -7  -2   13.40    5.10
   9  -7   2   18.70    5.30
   9   7  -2   20.10    5.10
   9  -7   2   15.00    4.10
  10   7   2   12.40    4.90
  10  -7  -2   18.10    5.50
  10  -7  -2    5.80    3.90
  10  -7   2   16.30    5.60
  10  -7   2   16.20    4.10
  10   7  -2   23.10    5.30
  11   7   2   27.20    6.30
  11  -7  -2   19.70    5.90
  11  -7  -2   33.10    6.00
  11  -7   2   20.10    5.80
  11   7  -2   31.70    5.90
  12  -7  -2    9.10    3.20
  12  -7  -2    8.40    4.00
  12   7   2    5.30    3.40
  12  -7   2   11.70    4.30
  12   7  -2   14.50    3.90
  13  -7  -2    5.40    3.60
  13   7   2   12.20    3.80
  13  -7  -2    5.20    2.00
  13   7  -2    3.90    2.80
  13  -7   2    9.00    3.00
   0   7  -3    0.80    1.60
   0   7   3    0.50    1.10
   0  -7   3   -3.70    1.50
   0  -7   3   -0.40    1.50
   0  -7  -3    1.20    1.60
   0  -7  -3    0.90    1.90
   0   7   3   -0.40    2.00
  -1   7  -3    5.90    2.40
   1   7   3    6.60    2.20
   1  -7  -3    5.10    2.50
   1   7   3   11.10    3.60
  -1  -7   3    5.60    2.40
   1  -7  -3    6.40    2.40
  -1  -7   3    2.60    2.10
   1  -7   3    2.40    1.90
  -1   7   3    5.80    2.80
  -1  -7  -3    5.60    1.80
  -1  -7  -3   -1.20    2.00
  -1   7   3    4.20    1.80
   1   7  -3    0.90    1.90
   1  -7   3    6.10    2.60
   2  -7  -3    6.40    2.30
   2   7   3    8.40    2.40
  -2   7  -3    5.30    2.40
  -2  -7   3   11.80    3.10
   2  -7  -3    6.40    2.60
  -2  -7   3    3.60    2.30
   2   7   3    6.80    2.80
  -2   7   3    7.90    3.10
  -2   7   3    9.90    2.30
   2  -7   3    7.70    2.70
   2  -7   3    6.00    2.10
  -2  -7  -3    5.00    2.50
  -2  -7  -3   11.70    2.00
   2   7  -3    7.20    2.30
   3  -7  -3   13.50    2.80
  -3  -7   3   13.40    3.70
  -3   7  -3   14.70    3.40
   3   7   3   15.80    4.00
   3  -7  -3   14.40    3.30
  -3  -7   3   10.00    2.90
   3   7  -3   15.00    3.20
  -3  -7  -3   16.00    3.60
  -3  -7  -3   16.00    3.40
  -3   7   3   12.80    2.60
   3  -7   3   13.10    2.50
   3  -7   3   11.80    3.20
  -3   7   3   14.80    3.90
   4  -7  -3    2.40    1.40
  -4   7  -3    3.10    2.30
  -4  -7   3   -0.10    1.80
   4  -7  -3   -0.10    2.30
   4   7   3    4.30    2.90
   4   7  -3    0.10    2.10
   4  -7   3    2.00    1.20
  -4   7   3    5.00    3.00
  -4   7   3    1.60    1.60
   4  -7   3    6.40    2.70
  -4  -7  -3   -0.10    1.70
   4   7  -3    0.40    2.00
  -4  -7  -3    0.80    2.10
  -5  -7   3    6.10    2.40
   5  -7  -3    2.90    2.90
   5   7   3    3.50    2.90
  -5  -7  -3    3.30    2.00
  -5  -7  -3    2.10    2.20
  -5   7   3    0.90    3.00
   5  -7   3   -0.20    2.00
  -5   7   3    1.80    1.50
   5   7  -3    3.20    2.60
   5   7  -3    0.40    2.20
  -6  -7   3   -0.30    1.20
   6   7   3    0.60    2.50
   6  -7  -3   -1.30    2.70
  -6  -7  -3    1.10    1.60
  -6  -7  -3   -1.50    1.40
   6  -7   3    1.80    2.40
   6   7  -3   -1.90    2.40
  -6   7   3    2.20    3.10
   6  -7   3    0.50    2.40
   6   7  -3   -1.80    1.80
   7  -7  -3   -0.10    3.00
   7   7   3   -1.50    2.80
   7  -7   3   -2.60    2.30
  -7  -7  -3    6.70    2.30
   7  -7   3   -0.10    2.40
   7   7  -3   -2.40    2.40
   7   7  -3   -2.70    2.20
   8  -7  -3    3.90    3.60
   8   7   3    1.90    3.20
   8  -7  -3    8.60    4.00
   8   7  -3    2.10    2.60
   8  -7   3    2.40    2.50
   8  -7   3    4.70    3.10
   8   7  -3    3.30    2.70
   9  -7  -3    0.70    3.80
   9  -7  -3    6.50    4.20
   9   7   3    5.50    4.00
   9  -7   3    5.20    3.20
   9   7  -3    5.50    3.70
   9  -7   3    5.20    2.60
  10  -7  -3   -1.10    3.50
  10   7   3    3.70    3.60
  10  -7  -3    0.10    3.40
  10  -7   3   -0.20    3.10
  10   7  -3    4.90    2.50
  11  -7  -3    2.60    3.70
  11  -7  -3    8.70    3.80
  11   7   3    9.40    4.20
  11  -7   3    7.30    3.70
  11   7  -3    6.10    2.50
  12   7   3    2.20    2.80
  12  -7  -3    7.20    3.20
  12  -7  -3    8.40    3.30
  12   7  -3   15.80    3.50
  12  -7   3    7.30    3.20
   0  -7  -4    0.60    1.30
   0  -7   4   -1.10    1.60
   0  -7   4    1.90    2.10
   0  -7  -4   -1.90    1.80
   0   7   4    0.30    2.20
   0   7   4   -1.00    1.00
   0   7  -4   -0.20    1.50
  -1  -7   4   59.29    5.70
   1  -7  -4   65.59    5.00
   1   7   4   61.59    5.00
  -1   7  -4   62.69    4.70
  -1  -7   4   61.59    5.50
   1  -7  -4   63.59    5.60
   1   7   4   60.99    5.40
   1  -7   4   72.99    5.80
   1  -7   4   58.89    5.40
  -1   7   4   68.39    5.60
  -1  -7  -4   62.79    4.30
  -1   7   4   58.09    4.90
  -1  -7  -4   63.59    6.00
   1   7  -4   63.69    4.70
  -2   7  -4   -0.20    1.50
  -2  -7   4   -3.20    1.50
   2   7   4   -0.20    1.20
  -2  -7   4    2.80    2.20
   2  -7  -4    0.10    1.90
   2   7   4   -2.10    1.90
   2  -7  -4   -1.10    1.70
  -2   7   4   -0.30    1.10
   2   7  -4    0.00    1.40
   2  -7   4    0.20    1.50
  -2   7   4   -0.30    2.10
   2  -7   4   -0.40    2.10
  -2  -7  -4   -0.40    1.80
   3   7   4   11.40    3.60
   3  -7  -4   19.40    3.90
   3   7   4   16.90    3.60
  -3  -7   4   19.50    4.00
  -3   7  -4   15.80    3.40
   3  -7  -4   13.10    2.90
   3  -7   4   17.50    3.80
   3  -7   4   18.20    3.20
  -3  -7  -4    7.80    2.90
  -3   7   4   23.20    4.60
   3   7  -4   21.10    3.50
  -3   7   4   19.60    3.40
   4  -7  -4    3.90    2.80
   4   7   4    1.50    2.70
   4  -7  -4    2.10    1.60
  -4   7  -4    2.30    2.40
  -4  -7   4    1.40    2.10
   4   7  -4    1.90    2.70
   4  -7   4    0.70    2.10
  -4   7   4    1.00    2.70
  -4  -7  -4    1.90    2.00
   4   7  -4    3.50    2.00
  -4  -7  -4    5.00    2.40
  -4   7   4    1.10    1.30
  -5  -7   4   67.29    6.20
   5   7   4   67.99    6.50
   5  -7  -4   63.69    6.40
   5  -7   4   64.19    5.90
   5   7  -4   65.39    5.40
  -5   7   4   76.99    5.70
  -5   7   4   70.59    6.60
  -5  -7  -4   72.29    6.50
  -5  -7  -4   60.09    6.00
   5   7  -4   72.19    6.60
   6  -7  -4    2.80    3.10
   6   7   4   -2.80    2.20
  -6  -7   4    1.50    1.40
   6  -7   4   -0.60    1.90
  -6  -7  -4    3.40    1.60
  -6   7   4   -2.20    2.90
   6   7  -4    3.30    3.10
   6  -7   4   -1.30    1.80
  -6  -7  -4    2.40    1.50
   6   7  -4    3.50    2.30
  -7  -7   4   12.00    2.90
   7   7   4   11.90    4.40
   7  -7  -4    8.40    4.10
  -7  -7  -4   16.70    3.70
   7  -7   4   10.40    3.60
   7  -7   4    8.00    3.30
   7   7  -4   10.50    3.90
   7   7  -4   10.70    3.20
  -7   7   4   11.60    4.80
   8  -7  -4    3.00    3.80
   8   7   4    5.10    3.70
   8  -7   4    5.20    3.30
   8   7  -4   -0.70    1.90
   8   7  -4    0.00    2.70
   8  -7   4   -0.50    2.30
   9   7   4   22.70    5.90
   9  -7  -4   29.10    6.40
   9   7  -4   25.50    5.10
   9  -7   4   29.40    5.80
   9   7  -4   30.20    3.90
  10  -7  -4   -4.00    3.10
  10   7   4    4.90    3.70
  10   7  -4    3.90    2.60
  10  -7   4    4.00    3.20
  11  -7  -4   20.60    5.10
  11   7   4   21.70    4.90
  11  -7   4   21.80    5.00
  12  -7  -4    5.40    2.80
  12   7   4    7.20    3.30
  12  -7   4    8.50    2.80
   0  -7  -5   -0.70    2.10
   0   7   5    0.20    1.40
   0  -7   5    0.40    1.80
   0  -7  -5   -1.70    1.30
   0   7   5    2.50    2.50
   0  -7   5    2.90    2.60
  -1  -7   5    1.30    2.40
   1   7   5    2.30    1.50
   1   7   5    4.00    2.80
   1  -7  -5    3.60    1.90
  -1  -7   5    3.10    2.20
   1  -7  -5   -0.20    1.90
  -1   7   5   -0.50    2.40
   1  -7   5    2.00    2.30
  -1  -7  -5    4.00    2.50
  -1   7   5    0.70    1.60
   1  -7   5    1.80    2.00
   2   7   5   22.20    4.30
  -2  -7   5   15.30    3.90
  -2   7  -5   20.10    2.90
  -2  -7   5   16.10    3.80
   2  -7  -5   23.40    4.10
   2   7   5   21.00    4.00
   2  -7  -5   24.40    4.00
  -2   7   5   16.60    3.30
   2  -7   5   20.70    3.70
   2  -7   5   30.40    4.20
  -2  -7  -5   17.50    4.00
  -2   7   5   22.90    4.30
   3  -7  -5    8.80    2.60
   3  -7  -5    7.30    3.00
   3   7   5    7.10    2.80
  -3  -7   5   10.20    3.40
   3   7   5    8.10    3.40
  -3   7  -5   10.30    2.70
  -3   7   5   11.70    3.90
  -3  -7  -5    4.40    2.40
   3  -7   5    3.20    2.90
  -3   7   5    8.20    2.40
   3  -7   5    7.80    2.30
   3   7  -5    7.20    3.30
   4   7   5   10.80    3.70
  -4   7  -5   12.10    3.00
   4  -7  -5    3.20    3.00
  -4  -7   5    6.10    2.80
  -4   7   5    7.90    3.40
   4   7  -5    5.90    3.20
  -4   7   5    9.50    2.30
   4  -7   5   11.50    3.40
  -4  -7  -5   10.50    3.20
   5   7   5    3.40    3.10
  -5   7  -5    3.70    2.60
   5  -7  -5    5.00    3.40
  -5  -7   5    3.70    2.40
   5   7  -5    7.00    4.00
  -5  -7  -5    7.80    2.90
  -5  -7  -5    9.70    3.30
  -5   7   5    4.70    3.30
   5  -7   5    4.40    2.60
  -5   7   5   10.70    2.70
   6  -7  -5   -0.30    2.90
   6   7   5   -1.70    2.60
  -6  -7   5    3.20    1.40
  -6  -7  -5    0.70    1.50
   6  -7   5   -0.60    2.10
  -6   7   5    0.10    1.00
  -6  -7  -5    3.00    1.50
  -6   7   5   -0.20    2.70
   6   7  -5    0.00    3.00
   7   7   5    6.60    3.90
   7  -7  -5    4.20    3.50
   7   7  -5    7.70    3.80
   7  -7   5    3.50    2.40
   7  -7   5    5.10    2.90
  -7   7   5   11.70    4.30
   8  -7  -5   23.30    5.90
   8   7   5   11.70    4.90
  -8   7   5   14.50    4.80
   8  -7   5   23.30    4.80
   8   7  -5   19.80    5.00
   9  -7  -5    1.30    4.10
   9   7   5    1.00    3.20
  -9   7   5    0.50    3.40
   9  -7   5    6.90    2.80
   9   7  -5   -0.70    3.00
  10   7   5    4.30    3.40
  10  -7  -5    3.00    4.10
 -10   7   5    3.20    3.60
  10  -7   5    5.40    2.50
  10   7  -5    2.40    2.60
  11   7   5   10.70    3.40
  11  -7  -5    5.90    3.50
 -11   7   5    9.30    3.90
  11  -7   5    7.00    2.60
  12   7   5    6.10    3.00
  12  -7  -5    4.90    3.00
 -12   7   5   13.40    3.70
  12  -7   5   13.70    3.40
   0  -7  -6   33.90    5.50
   0   7   6   18.50    3.80
   0  -7   6   26.50    4.50
   0  -7   6   23.10    4.50
   0   7   6   32.10    5.10
  -1  -7   6   13.70    3.60
   1   7   6   14.20    3.40
   1  -7  -6   23.70    3.90
   1  -7  -6   18.00    3.90
   1   7   6   22.40    4.30
  -1  -7   6   19.50    4.40
   1  -7   6   21.60    4.50
  -1   7   6   18.40    4.10
  -1  -7  -6   18.40    4.00
  -1   7   6   21.70    4.00
   1  -7   6   14.40    3.50
  -2  -7   6    0.90    2.00
   2   7   6    0.70    1.60
   2  -7  -6    0.00    2.00
   2  -7  -6   -1.00    1.40
   2   7   6    1.80    2.40
   2   7  -6    0.40    2.80
  -2  -7  -6    4.10    2.50
  -2   7   6    3.00    2.60
  -2   7   6    4.00    1.70
   2  -7   6    2.40    1.80
   2  -7   6    4.90    2.80
   3   7   6   28.10    5.00
   3  -7  -6   15.80    3.20
   3  -7  -6   16.70    4.00
  -3  -7   6   10.70    3.50
   3   7   6   18.70    4.30
   3  -7   6   16.40    3.30
  -3   7   6   21.80    4.40
   3  -7   6   20.30    4.30
  -3  -7  -6   18.80    4.30
   3   7  -6   17.00    4.30
  -3   7   6   14.20    3.10
   4   7   6    8.40    3.40
   4  -7  -6    8.90    3.60
  -4  -7   6    5.10    2.70
   4   7   6   16.60    3.90
   4   7  -6    5.00    3.50
  -4  -7  -6    8.40    3.10
  -4   7   6   10.90    2.80
  -4   7   6    9.30    3.60
   4  -7   6    6.30    2.90
   5  -7  -6   11.00    4.30
   5   7   6   12.40    4.00
   5  -7   6   14.40    3.90
  -5   7   6   14.40    3.20
  -5   7   6   13.00    4.20
   5   7  -6   14.40    4.50
   6  -7  -6   14.60    4.70
   6   7   6    8.50    3.80
   6   7  -6   16.80    5.10
   6  -7   6   13.20    3.80
  -6   7   6   10.70    4.10
   7   7   6    8.00    3.90
   7  -7  -6    7.00    4.20
   7  -7   6   14.40    3.50
  -7   7   6    3.20    3.30
   7   7  -6    2.70    3.90
   8  -7  -6   -4.80    2.90
   8   7   6   -1.20    2.70
  -8   7   6   -0.30    2.50
   8   7  -6    1.50    3.50
   9   7   6   13.70    4.80
   9  -7  -6   18.00    5.70
   9   7  -6   13.60    4.80
  -9   7   6   13.60    4.30
  10   7   6   15.30    4.40
  10  -7  -6   22.50    5.70
 -10   7   6   23.30    4.60
  10   7  -6   25.60    4.90
  11   7   6   11.40    3.50
  11  -7  -6    4.60    3.70
 -11   7   6    9.30    2.70
   0   7   7    0.90    2.20
   0  -7   7    3.10    2.20
   0  -7   7    4.20    3.00
   0   7   7    4.20    1.80
   1   7   7   15.20    3.60
   1  -7  -7   16.30    3.90
  -1  -7   7   16.20    4.10
   1   7   7   17.90    3.90
   1  -7  -7   14.60    3.20
  -1   7   7   15.20    3.70
  -1  -7  -7   16.20    3.80
   1  -7   7   11.30    3.90
   1   7  -7   17.40    4.70
   1  -7   7   15.70    3.70
  -1   7   7   14.40    3.60
   2  -7  -7   -0.70    1.80
   2   7   7    1.00    2.20
  -2  -7   7    0.10    1.80
   2   7   7    0.80    1.60
   2  -7  -7   -0.40    1.30
   2   7  -7    4.10    3.20
  -2   7   7    0.60    2.20
   2  -7   7   -0.40    2.30
  -2  -7  -7    2.20    1.70
   2  -7   7    0.60    1.70
  -2   7   7    4.80    2.00
   3   7   7    3.30    2.70
   3  -7  -7    6.80    3.00
   3   7   7    2.20    1.60
   3  -7  -7    4.40    2.20
   3   7  -7    3.10    3.20
  -3  -7  -7    6.00    2.20
  -3   7   7   10.40    3.00
  -3   7   7   10.60    3.30
   3  -7   7    6.80    2.50
   3  -7   7    8.10    3.20
   4   7   7    0.00    2.20
   4  -7  -7    0.40    2.80
  -4   7   7    3.60    1.40
  -4   7   7   -0.10    2.30
   4  -7   7   -1.10    2.10
   5  -7  -7   16.80    4.70
   5   7   7   21.90    4.70
   5  -7   7   10.20    3.50
  -5   7   7   11.30    3.80
   5   7  -7   18.00    4.90
   6   7   7    1.80    2.60
   6  -7  -7    2.50    3.50
   6  -7   7    3.20    2.20
  -6   7   7    2.80    2.90
   6   7  -7    4.60    4.10
   7   7   7   -1.80    2.70
   7  -7  -7   -1.20    3.30
  -7   7   7    5.10    3.10
   7   7  -7    6.90    4.50
   8   7   7    4.70    3.20
   8  -7  -7   -0.70    3.40
   8   7  -7   -1.30    3.50
  -8   7   7    1.50    2.50
   9  -7  -7    3.50    4.40
   9   7   7   13.50    3.80
   9   7  -7    9.80    4.40
  10  -7  -7    3.40    3.60
  10   7   7    3.20    2.30
  10   7  -7    5.70    3.30
  11   7   7    7.90    2.60
  11  -7  -7    6.10    3.40
  11   7  -7    0.70    2.80
   0   7   8    4.80    1.70
   0   7  -8    4.40    3.30
   1   7   8   45.00    4.90
   1   7  -8   50.39    6.10
  -1   7   8   55.19    5.80
   2  -7  -8    4.40    2.30
   2  -7  -8   -0.70    1.40
   2   7   8   -0.60    1.90
   2   7  -8    1.70    3.30
   2  -7   8   -1.50    2.30
   2  -7   8   -0.80    1.40
   3   7   8    6.00    2.80
   3  -7  -8    5.00    2.30
   3  -7  -8    1.40    2.40
   3   7  -8    3.30    3.40
   3  -7   8   12.60    4.00
   3  -7   8    6.80    2.50
   4   7   8    1.40    2.20
   4  -7  -8    0.60    2.90
   4  -7   8    0.80    2.50
   4   7  -8   -2.20    3.50
   5  -7  -8   56.89    6.90
   5   7   8   75.59    6.40
   5  -7   8   63.29    6.30
   5   7  -8   75.39    8.20
   6  -7  -8    1.90    3.30
   6   7   8    5.40    2.50
   6   7  -8   -1.20    3.80
   7   7   8   17.40    3.70
   7  -7  -8   11.50    4.90
   7   7  -8   12.70    5.20
   8  -7  -8    1.30    3.60
   8   7   8    9.80    3.00
   8   7  -8   12.20    4.90
   9  -7  -8   26.00    6.30
   9   7   8   17.70    3.80
   9   7  -8   20.20    5.90
  10   7   8    9.30    2.70
  10  -7  -8    0.20    2.90
  10   7  -8   -0.10    3.00
   0   7  -9    2.70    3.40
  -1   7  -9   -0.20    3.00
   1   7  -9   -2.70    2.80
  -2   7  -9    4.00    3.10
   2   7  -9   -0.10    3.30
   3  -7  -9    4.30    2.80
  -3   7  -9    3.80    2.80
   3   7  -9   -0.60    3.60
   4  -7  -9   -0.90    2.30
   4   7  -9    1.60    4.00
   5  -7  -9    3.80    3.60
   5   7  -9    1.50    3.80
   6  -7  -9   -2.40    2.70
   6   7  -9   -3.60    3.20
   7  -7  -9   -0.60    3.20
   7   7  -9   -0.50    4.00
   8  -7  -9    1.30    3.40
   8   7  -9    3.10    3.30
   9  -7  -9   10.70    4.10
   9   7  -9    3.40    3.30
   0   7 -10    5.70    3.60
  -1   7 -10   23.20    5.40
   1   7 -10   18.90    5.30
  -2   7 -10    2.60    2.60
   2   7 -10    6.10    4.20
  -3   7 -10   12.70    3.40
   3   7 -10    7.20    4.60
   4  -7 -10    1.20    2.30
   4   7 -10   -3.90    3.80
   5  -7 -10   14.70    4.30
   5   7 -10   11.70    5.30
   6  -7 -10    1.60    2.90
   6   7 -10    0.70    3.90
   7  -7 -10    3.60    3.40
   7   7 -10    7.10    4.90
   8  -7 -10   -4.60    2.50
   8   7 -10    5.80    4.00
  -1   7 -11   20.50    4.80
   1   7 -11   11.10    4.70
  -2   7 -11   11.20    4.20
   2   7 -11    1.30    3.90
   3   7 -11    8.70    4.10
   4   7 -11   -3.20    3.30
   5   7 -11   32.60    7.10
   6  -7 -11    4.50    2.80
   6   7 -11    2.70    4.60
   7  -7 -11   11.90    3.70
   7   7 -11   13.10    4.30
   0   7 -12   17.30    3.50
   1   7 -12   19.80    4.50
   2   7 -12    2.10    3.00
   3   7 -12   11.00    3.90
   4   7 -12   12.10    4.30
   5   7 -12   16.60    4.90
   6   7 -12   13.10    4.10
   1   7 -13    8.50    2.50
   2   7 -13   12.10    3.00
   0  -8   0  657.33   28.40
   0   8   0  649.04   27.30
   0  -8   0  671.33   26.80
   1   8   0 2178.28   81.19
  -1   8   0 2205.88   81.19
  -1  -8   0 2111.49   84.09
   1  -8   0 2207.78   83.69
  -1  -8   0 2161.48   79.29
   1  -8   0 2107.59   79.49
   2   8   0  286.37   14.40
  -2  -8   0  301.07   15.40
   2  -8   0  302.27   14.50
   2  -8   0  297.37   14.30
  -2   8   0  298.77   14.50
  -2  -8   0  305.87   13.70
  -3  -8   0 1452.15   58.49
  -3  -8   0 1407.06   54.19
   3   8   0 1500.65   56.29
  -3   8   0 1407.96   56.19
   3  -8   0 1475.75   55.49
   3  -8   0 1474.05   56.89
   4   8   0  422.46   18.80
  -4  -8   0  401.76   17.30
  -4  -8   0  385.36   19.40
  -4   8   0  382.06   18.60
  -5   8   0 1422.46   58.39
   5   8   0 1520.55   58.49
   5   8   0 1493.45   55.79
   5  -8   0 1519.15   57.59
  -5  -8   0 1518.05   60.69
  -6  -8   0  128.49    9.10
   6   8   0  118.79    8.90
  -6   8   0  119.49    9.10
   6  -8   0  137.19    9.40
   7  -8   0  966.30   38.70
  -7  -8   0  898.61   40.20
   7   8   0  920.31   39.00
   8  -8   0  206.78   12.70
   8   8   0  193.18   12.50
   8  -8   0  197.58   12.80
   9  -8   0  592.64   28.70
   9   8   0  616.94   28.60
   9  -8   0  623.24   28.10
  10   8   0  104.59    9.40
  10  -8   0  100.79    9.70
  10  -8   0   94.49    8.70
  11  -8   0  591.04   27.40
  11  -8   0  610.24   29.00
  11   8   0  568.44   28.10
  12  -8   0  157.58   10.50
  12   8   0  143.39   10.90
   0   8  -1 1015.60   40.80
   0  -8   1 1025.10   42.50
   0   8   1 1066.49   41.30
   0  -8  -1 1067.59   40.00
   0  -8  -1 1060.29   42.60
   0  -8   1 1002.40   40.10
  -1  -8   1   30.30    3.90
  -1   8  -1   38.40    5.30
   1  -8  -1   27.00    3.90
   1  -8  -1   31.70    3.80
   1   8   1   30.30    4.10
  -1  -8   1   27.60    4.70
   1  -8   1   27.80    4.30
  -1  -8  -1   30.20    3.50
   1  -8   1   30.10    4.00
   1   8  -1   32.40    4.10
  -1  -8  -1   30.50    4.10
  -1   8   1   37.30    4.50
  -2  -8   1  632.04   28.50
   2  -8  -1  650.03   27.70
  -2  -8   1  645.24   26.30
   2  -8  -1  611.94   26.60
   2   8   1  693.73   27.50
  -2   8  -1  699.83   27.40
  -2  -8  -1  683.43   28.80
   2   8  -1  625.14   26.90
  -2  -8  -1  645.94   25.80
  -2  -8  -1  605.94   26.00
  -2   8   1  589.04   27.00
   2  -8   1  675.43   27.00
   2  -8   1  691.73   27.70
  -3   8  -1   16.20    4.10
   3  -8  -1   18.70    3.10
   3   8   1   17.70    4.10
   3  -8  -1   16.10    3.80
  -3  -8   1    7.30    3.00
  -3  -8   1   16.40    3.50
  -3  -8  -1   20.60    4.10
   3  -8   1   19.80    2.70
  -3  -8  -1   16.80    3.10
  -3  -8  -1   14.50    2.80
   3  -8   1   12.20    3.40
  -3   8   1   20.50    4.60
   3   8  -1   15.80    4.00
  -4  -8   1  598.54   25.20
   4   8   1  668.33   26.80
   4  -8  -1  591.94   26.10
  -4   8  -1  650.73   26.60
  -4  -8   1  583.84   27.50
   4  -8   1  593.84   26.00
  -4   8   1  604.64   26.60
  -4  -8  -1  589.54   27.60
  -4  -8  -1  668.93   24.70
  -4  -8  -1  600.74   26.00
   4   8  -1  592.14   26.10
  -5  -8   1   26.30    4.90
   5  -8  -1   19.10    4.50
  -5   8  -1   28.40    5.40
   5   8   1   28.50    5.50
   5   8  -1   22.80    4.00
   5  -8   1   18.10    4.40
  -5  -8  -1   25.70    3.50
  -5   8   1   34.80    6.20
   5   8  -1   31.90    5.40
  -5  -8  -1   21.60    4.20
   6   8   1  377.06   19.20
  -6  -8   1  388.16   19.80
   6  -8  -1  418.66   19.60
  -6   8   1  406.66   19.80
  -6  -8  -1  399.06   20.00
   6   8  -1  390.46   19.20
   6  -8   1  421.06   19.60
  -6  -8  -1  408.66   19.50
   6   8  -1  390.66   17.70
   7  -8  -1   15.90    4.70
   7   8   1   24.00    5.60
  -7  -8  -1   17.50    3.70
   7  -8   1   14.20    4.50
   7   8  -1   16.90    4.40
   8  -8  -1  266.97   15.10
   8   8   1  249.38   15.00
   8  -8   1  250.47   14.70
   8   8  -1  264.17   15.00
   8  -8   1  275.77   15.40
   9  -8  -1    8.00    4.10
   9  -8  -1   10.80    5.10
   9   8   1    2.60    3.70
   9  -8   1    5.10    4.00
   9  -8   1    3.80    3.30
   9   8  -1    5.00    3.70
  10  -8  -1  226.08   14.10
  10   8   1  207.78   14.20
  10  -8  -1  222.38   14.80
  10   8  -1  231.38   14.30
  10  -8   1  231.68   13.90
  10  -8   1  239.48   14.90
  11  -8  -1    9.40    3.60
  11   8   1   19.10    5.30
  11   8  -1   17.40    4.70
  11  -8   1   16.20    4.70
  11  -8   1   16.10    3.50
  12   8   1  104.79    9.20
  12  -8  -1  103.39    8.50
  12   8  -1  101.69    8.90
  12  -8   1  122.49    9.90
   0   8  -2  268.47   13.00
   0  -8  -2  259.37   12.50
   0  -8   2  270.07   13.90
   0   8   2  270.97   13.60
   0  -8   2  262.37   13.10
   0  -8  -2  272.67   14.00
   1   8   2 1360.66   53.09
  -1  -8   2 1353.76   51.89
  -1  -8   2 1379.86   55.09
   1  -8  -2 1369.26   51.69
   1  -8  -2 1368.46   54.49
  -1   8  -2 1379.86   52.49
   1  -8   2 1428.36   54.69
   1  -8   2 1348.67   51.99
  -1   8   2 1349.27   53.09
  -1  -8  -2 1360.86   54.99
   1   8  -2 1338.67   52.39
  -1  -8  -2 1364.06   51.09
   2   8   2  831.92   34.60
   2  -8  -2  830.02   35.10
  -2   8  -2  881.41   34.30
  -2  -8   2  841.22   36.10
   2  -8  -2  810.62   33.70
  -2  -8   2  821.02   33.70
  -2  -8  -2  925.31   36.50
   2  -8   2  855.41   34.20
   2  -8   2  926.61   35.50
  -2  -8  -2  866.01   32.70
  -2  -8  -2  839.92   34.00
  -2   8   2  809.32   34.70
   2   8  -2  825.92   34.10
  -3   8  -2 1321.17   51.69
   3  -8  -2 1370.66   51.29
   3  -8  -2 1389.66   52.89
  -3  -8   2 1317.47   54.19
  -3  -8   2 1338.77   50.89
   3  -8   2 1378.36   52.69
   3  -8   2 1363.56   51.29
  -3  -8  -2 1257.57   51.79
   3   8  -2 1295.87   51.49
  -3   8   2 1370.56   52.49
  -3  -8  -2 1247.28   49.20
  -3  -8  -2 1340.57   54.19
   4  -8  -2  133.59    8.90
  -4  -8   2  136.49    9.30
   4   8   2  134.09    8.90
  -4   8  -2  134.79    8.70
  -4  -8  -2  127.39    9.10
   4   8  -2  120.19    8.20
   4  -8   2  139.39    8.90
  -4  -8  -2  142.19    8.40
  -4   8   2  131.49    9.10
   5  -8  -2  895.71   36.80
  -5  -8   2  886.21   38.70
  -5   8  -2  919.11   37.20
   5   8   2  901.51   37.40
  -5   8   2  898.51   37.50
  -5  -8  -2  888.31   38.70
   5  -8   2  906.31   36.60
  -5  -8  -2  894.41   37.50
   5   8  -2  906.11   36.00
   5   8  -2  902.31   36.80
  -6  -8   2  367.56   19.00
   6  -8  -2  379.66   18.50
   6   8   2  356.56   18.40
   6  -8   2  357.36   18.00
  -6  -8  -2  352.26   18.90
   6   8  -2  372.76   18.20
  -6  -8  -2  422.26   19.20
   6   8  -2  374.76   17.30
   7   8   2  755.12   33.10
   7  -8  -2  793.32   32.90
  -7  -8  -2  719.53   33.20
   7   8  -2  744.13   30.90
  -7   8   2  749.53   33.10
   7   8  -2  761.62   32.50
   7  -8   2  755.52   32.20
   8   8   2   50.49    6.40
   8  -8  -2   50.79    7.40
   8   8  -2   43.70    6.00
   8  -8   2   48.90    6.00
   8  -8   2   53.29    6.50
   9  -8  -2  485.95   23.80
   9   8   2  449.66   23.70
   9  -8   2  479.75   23.00
   9   8  -2  523.05   23.90
   9  -8   2  485.95   24.00
  10  -8  -2  189.98   13.10
  10   8   2  186.98   13.20
  10   8  -2  221.98   13.20
  10  -8   2  201.48   12.30
  10  -8   2  213.78   13.90
  11  -8  -2  367.66   19.50
  11   8   2  353.06   19.70
  11  -8   2  378.16   20.20
  11   8  -2  344.77   19.00
  12   8   2   49.50    6.40
  12  -8  -2   53.09    5.80
  12  -8   2   52.99    6.60
 -12   8   2   56.39    7.40
  12   8  -2   57.29    5.90
   0  -8   3  928.11   36.40
   0   8  -3  967.30   36.30
   0  -8  -3  926.41   38.30
   0   8   3  913.51   37.00
   0  -8  -3  897.11   35.40
   0   8   3  873.51   36.10
   0  -8   3  887.41   38.20
   1  -8  -3   14.70    3.30
   1  -8  -3   17.10    3.50
  -1   8  -3   19.00    3.60
   1   8   3   13.30    3.60
  -1  -8   3   19.50    3.90
   1   8   3   14.80    2.80
  -1  -8   3   18.50    4.00
  -1  -8  -3   18.20    3.80
  -1   8   3   18.00    4.30
   1   8  -3   19.90    3.70
  -1  -8  -3   17.70    3.00
   1  -8   3   16.40    3.50
  -1   8   3   18.10    2.80
   1  -8   3   21.40    4.40
  -2  -8   3  379.96   19.70
  -2  -8   3  352.96   18.30
  -2   8  -3  453.65   18.70
   2  -8  -3  368.66   18.10
   2   8   3  463.85   19.40
   2  -8  -3  365.56   18.80
   2  -8   3  442.46   19.10
   2   8  -3  404.36   18.20
   2  -8   3  461.25   19.10
  -2  -8  -3  445.36   17.20
  -2   8   3  347.37   18.50
  -2  -8  -3  451.55   20.40
  -3   8  -3   43.80    4.70
  -3  -8   3   44.70    5.10
   3  -8  -3   52.99    4.40
   3  -8  -3   37.70    5.30
  -3  -8   3   33.00    4.80
   3   8   3   48.10    5.30
  -3  -8  -3   46.40    4.40
  -3   8   3   40.30    5.30
   3  -8   3   46.70    5.10
   3   8  -3   42.00    4.50
   3  -8   3   38.20    3.90
  -3  -8  -3   44.00    5.10
   4  -8  -3  508.75   23.30
  -4   8  -3  571.94   23.50
   4   8   3  542.45   23.70
  -4  -8   3  482.55   24.50
  -4  -8  -3  558.74   25.10
  -4  -8  -3  555.54   23.90
   4   8  -3  503.05   22.80
   4   8  -3  489.35   22.90
  -4   8   3  512.55   23.80
   4  -8   3  564.54   23.60
   5   8   3    0.80    2.90
  -5  -8   3    6.20    2.00
  -5   8  -3   10.10    3.60
   5  -8  -3    7.90    3.60
  -5   8   3    7.50    3.80
  -5  -8  -3    7.90    2.30
   5   8  -3   10.50    3.10
  -5  -8  -3   10.90    2.70
   5   8  -3    7.00    3.10
   5  -8   3    3.40    3.00
  -6   8  -3  443.66   20.60
   6   8   3  430.36   20.70
   6  -8  -3  427.86   20.70
  -6  -8   3  427.16   21.50
  -6  -8  -3  412.66   21.40
   6   8  -3  444.96   20.00
  -6   8   3  437.96   21.20
  -6  -8  -3  411.36   20.90
   6   8  -3  431.76   20.00
   6  -8   3  425.26   20.20
   7  -8  -3   25.00    5.50
   7   8   3   29.00    6.30
  -7   8   3   13.90    4.70
   7  -8   3   22.40    4.80
   7   8  -3   18.60    4.50
   7   8  -3   19.70    4.40
   8  -8  -3  152.78   11.20
   8   8   3  160.78   11.30
   8   8  -3  136.59    9.80
  -8   8   3  156.08   11.40
   8   8  -3  137.69    9.40
   8  -8   3  145.79   10.00
   8  -8   3  170.08   11.10
   9   8   3   16.70    5.50
   9  -8  -3   18.30    5.10
  -9   8   3   10.90    4.80
   9   8  -3   14.50    4.30
   9  -8   3   12.90    3.60
   9  -8   3    5.80    4.20
  10   8   3  238.98   14.80
  10  -8  -3  229.98   14.70
 -10   8   3  225.58   15.10
  10  -8   3  225.18   14.30
  10  -8   3  223.58   14.30
  10   8  -3  238.48   13.80
  11  -8  -3    7.90    3.50
  11   8   3    3.90    3.50
 -11   8   3    9.90    4.10
  11   8  -3   17.10    3.70
  11  -8   3   11.70    4.10
  12  -8  -3   74.99    7.40
  12   8   3  103.89    8.70
   0  -8  -4  412.46   19.70
   0   8  -4  437.16   17.90
   0   8   4  403.06   18.80
   0  -8   4  395.16   18.40
   0  -8  -4  404.26   17.40
   0  -8   4  390.76   19.20
   0   8   4  371.26   17.80
   1  -8  -4 1372.46   50.99
   1  -8  -4 1331.17   54.39
   1   8   4 1334.97   52.59
  -1  -8   4 1308.57   51.79
  -1   8  -4 1404.46   51.59
  -1  -8   4 1375.96   54.89
   1   8   4 1280.77   52.59
   1  -8   4 1359.76   54.19
  -1  -8  -4 1415.86   55.09
   1  -8   4 1298.97   51.69
  -1  -8  -4 1334.97   50.09
  -1   8   4 1352.86   52.59
  -1   8   4 1298.07   52.29
   1   8  -4 1360.66   51.39
  -2  -8   4  151.48    9.60
  -2   8  -4  164.58    8.90
   2   8   4  142.59    9.30
  -2  -8   4  159.98   10.40
   2  -8  -4  149.09    8.90
   2  -8  -4  137.59    9.20
   2   8   4  142.09    8.90
   2  -8   4  153.88    9.30
   2   8  -4  163.48    8.60
  -2   8   4  137.59    8.40
   2  -8   4  130.59    9.10
  -2  -8  -4  158.58   10.20
  -2   8   4  158.58    9.70
   3   8   4 1246.68   48.30
  -3   8  -4 1210.38   47.20
   3  -8  -4 1205.88   47.20
   3  -8  -4 1203.48   48.80
  -3  -8   4 1134.79   50.19
   3  -8   4 1200.08   47.20
  -3  -8  -4 1235.48   50.39
   3  -8   4 1262.67   48.80
  -3   8   4 1231.28   48.50
   3   8  -4 1187.48   46.80
   4  -8  -4  381.66   18.10
  -4   8  -4  394.66   17.70
  -4  -8   4  341.07   19.00
   4   8   4  397.86   18.50
  -4  -8  -4  385.36   19.40
   4   8  -4  375.26   18.20
   4   8  -4  370.86   17.20
  -4   8   4  371.46   18.50
   4  -8   4  381.56   18.00
  -4  -8  -4  360.46   18.20
   5  -8  -4  992.50   39.90
  -5   8  -4  978.70   39.60
   5   8   4 1009.50   40.40
  -5  -8   4  972.70   42.10
  -5  -8  -4  952.80   41.80
   5   8  -4  956.10   39.60
  -5   8   4  979.50   40.60
  -5  -8  -4  969.50   41.10
   5   8  -4  973.30   39.10
   5  -8   4  969.70   39.40
   6  -8  -4  151.08   10.30
   6   8   4  146.49   10.00
  -6   8  -4  132.69    9.40
  -6  -8  -4  132.59    9.60
   6  -8   4  140.49    9.30
  -6   8   4  140.19   10.10
   6   8  -4  124.29    9.30
   6   8  -4  136.79    8.80
   7  -8  -4  784.62   33.70
  -7   8  -4  748.03   33.10
   7   8   4  773.12   33.80
  -7   8   4  789.22   34.10
   7  -8   4  791.02   32.70
   7   8  -4  735.33   32.30
   8   8   4  256.17   15.20
   8  -8  -4  237.68   15.10
   8  -8   4  274.87   14.30
   8   8  -4  248.08   14.00
  -8   8   4  241.18   15.30
   8   8  -4  265.17   13.90
   9  -8  -4  503.85   24.90
   9   8   4  485.25   24.60
   9  -8   4  491.55   22.90
  -9   8   4  523.45   25.50
  10   8   4  111.69    9.40
  10  -8  -4   93.39    9.30
 -10   8   4  103.29    9.80
  10  -8   4   93.59    8.40
  11  -8  -4  400.96   20.60
  11   8   4  362.46   20.10
  12   8   4  171.38   11.60
  12  -8  -4  149.59   11.20
   0  -8  -5  511.55   21.40
   0  -8   5  532.05   24.20
   0  -8   5  495.35   22.80
   0   8   5  493.15   22.70
   0  -8  -5  546.85   24.40
   0   8   5  521.25   23.10
  -1  -8   5   17.00    4.10
  -1  -8   5   18.50    4.10
   1  -8  -5   22.70    3.80
   1   8   5   16.80    4.20
   1   8   5   18.30    3.50
   1  -8  -5   17.60    4.00
   1  -8   5   20.90    4.60
   1  -8   5   20.10    4.00
  -1  -8  -5   20.10    4.50
  -1   8   5   23.60    4.90
  -1   8   5   23.30    3.80
   2   8   5  471.55   20.60
  -2  -8   5  444.36   20.70
  -2   8  -5  438.86   19.70
   2   8   5  409.26   20.30
   2  -8  -5  437.16   19.70
  -2  -8   5  443.56   21.80
   2  -8  -5  420.66   20.80
  -2  -8  -5  465.25   22.00
  -2   8   5  455.75   20.60
   2  -8   5  428.66   20.60
  -2   8   5  429.66   20.10
   2  -8   5  469.65   20.50
   3  -8  -5    3.30    1.70
   3   8   5    2.30    3.00
   3   8   5    9.60    2.80
  -3  -8   5    3.10    2.30
   3  -8  -5    4.50    2.70
  -3   8  -5    6.50    2.50
   3  -8   5    5.60    3.00
  -3   8   5    3.20    3.00
   3  -8   5    3.70    1.90
  -3   8   5    4.40    1.80
  -3  -8  -5    3.50    2.10
   3   8  -5    1.70    3.10
  -4  -8   5  438.36   22.90
   4  -8  -5  419.06   21.20
  -4   8  -5  515.15   21.20
   4   8   5  503.85   22.20
   4   8  -5  452.15   21.90
  -4  -8  -5  526.95   23.80
  -4   8   5  463.95   22.00
   4  -8   5  461.15   21.50
   5   8   5   25.90    5.40
   5  -8  -5   22.50    5.30
  -5   8  -5   29.40    4.90
  -5   8   5   26.00    5.70
  -5  -8  -5   24.50    4.90
   5   8  -5   38.50    6.20
   5  -8   5   25.90    5.00
   6   8   5  348.97   17.70
   6  -8  -5  307.17   17.30
  -6   8  -5  349.67   16.90
   6   8  -5  308.37   17.20
  -6   8   5  308.07   17.40
   6  -8   5  377.86   17.20
   7   8   5    8.20    4.40
   7  -8  -5    2.60    3.60
  -7   8  -5    8.10    3.40
   7   8  -5    8.90    4.10
   7  -8   5   12.80    3.60
  -7   8   5    7.00    4.00
  -8   8  -5  258.37   14.20
   8   8   5  245.38   14.60
   8  -8  -5  226.58   14.70
   8  -8   5  221.28   12.90
  -8   8   5  232.38   14.60
   8   8  -5  223.48   13.60
   9   8   5    7.90    4.10
   9  -8  -5    3.00    3.70
  -9   8   5    7.20    3.90
   9   8  -5    8.40    3.50
  10  -8  -5  198.98   13.20
  10   8   5  179.28   12.30
 -10   8   5  165.68   12.40
  11   8   5   16.10    4.20
  11  -8  -5   13.90    4.30
 -11   8   5    9.80    3.30
   0   8   6  110.19    7.70
   0  -8  -6  111.89    8.50
   0  -8   6  112.59    8.50
   0  -8   6   99.19    8.20
   0   8   6  117.89    8.10
  -1  -8   6 1134.59   46.10
  -1  -8   6 1093.49   43.70
   1   8   6 1067.89   43.50
   1  -8  -6 1090.49   45.50
   1   8   6 1009.80   44.20
   1  -8  -6 1111.89   42.00
   1  -8   6 1117.69   45.40
  -1   8   6 1103.39   43.60
   1  -8   6 1027.20   43.30
  -1   8   6 1042.70   44.10
  -1  -8  -6 1100.99   46.00
  -2  -8   6  398.16   19.50
   2  -8  -6  371.26   18.40
   2   8   6  319.57   17.70
   2   8   6  380.66   17.90
   2  -8  -6  376.16   17.20
  -2   8   6  357.66   17.90
  -2  -8  -6  360.86   19.10
   2   8  -6  370.36   18.40
   2  -8   6  357.16   18.00
   2  -8   6  372.96   18.00
  -2   8   6  369.06   17.90
   3  -8  -6  821.22   34.60
   3  -8  -6  821.72   33.10
   3   8   6  765.22   33.30
   3   8   6  745.93   34.50
  -3   8   6  789.12   34.20
  -3   8   6  824.82   33.80
   3  -8   6  788.22   33.20
   3   8  -6  833.52   34.20
   3  -8   6  798.82   34.10
   4  -8  -6  113.39    8.60
   4   8   6  114.49    8.50
   4   8  -6  107.39    9.10
   4  -8   6  122.89    8.70
  -4   8   6  113.49    8.50
   5  -8  -6  883.41   37.20
   5   8   6  892.61   37.30
   5   8  -6  897.71   37.60
   5  -8   6  862.61   36.40
  -5   8   6  890.01   37.40
   6   8   6  327.07   17.20
   6  -8  -6  315.97   17.40
  -6   8   6  321.07   17.20
   6  -8   6  322.37   16.50
   6   8  -6  322.57   17.50
   7   8   6  574.44   27.10
   7  -8  -6  594.74   27.60
   7   8  -6  592.14   27.20
   7  -8   6  560.34   25.70
  -7   8   6  584.04   27.20
   8  -8  -6   81.19    8.70
   8   8   6   90.79    8.50
  -8   8   6   82.69    8.20
   8   8  -6   84.79    8.40
   9   8   6  405.16   21.20
   9  -8  -6  409.06   21.90
  -9   8   6  422.36   21.40
   9   8  -6  401.06   20.70
  10   8   6  178.08   11.90
  10  -8  -6  173.28   12.90
 -10   8   6  184.18   12.00
  10   8  -6  170.78   11.40
  11   8   6  365.56   19.90
  11  -8  -6  402.26   20.80
   0   8   7  418.96   21.20
   0   8   7  465.35   20.70
   0  -8   7  452.25   23.50
   0  -8   7  449.26   21.40
   1   8   7   17.30    4.10
   1  -8  -7   21.30    4.20
   1   8   7   17.10    3.90
   1   8  -7   12.70    4.70
  -1   8   7   13.30    3.90
   1  -8   7   11.70    3.90
  -1   8   7   13.60    3.30
   1  -8   7   19.60    3.90
   2   8   7  243.28   14.40
   2  -8  -7  271.67   13.60
   2   8   7  282.87   14.30
   2  -8  -7  248.48   14.50
  -2   8   7  257.47   13.90
   2  -8   7  289.27   14.90
   2   8  -7  264.57   14.90
  -2   8   7  259.97   14.50
   2  -8   7  242.18   14.20
   3  -8  -7   19.10    4.40
   3   8   7   16.70    4.20
   3   8  -7   21.00    5.40
  -3   8   7   24.10    4.80
   3  -8   7   24.90    5.10
  -3   8   7   22.10    4.10
   4   8   7  340.57   17.20
   4  -8  -7  332.87   17.20
   4   8  -7  331.27   17.90
   4  -8   7  369.16   17.60
  -4   8   7  322.77   16.90
   5  -8  -7   10.90    4.30
   5   8   7   20.70    4.70
  -5   8   7   20.50    4.70
   5   8  -7   14.30    5.30
   5  -8   7   16.80    4.30
   6  -8  -7  273.17   16.20
   6   8   7  299.27   16.00
   6   8  -7  285.17   16.60
  -6   8   7  263.07   15.40
   6  -8   7  321.37   15.80
   7  -8  -7   17.70    5.40
   7   8   7   14.40    4.70
   7   8  -7   14.70    5.50
  -7   8   7   22.60    4.90
   8   8   7  189.98   11.90
   8  -8  -7  151.58   12.10
   8   8  -7  154.78   11.60
  -8   8   7  163.08   11.10
   9   8   7   11.70    3.70
   9  -8  -7   10.00    4.30
   9   8  -7    5.10    3.60
  10   8   7  182.08   11.60
  10  -8  -7  159.28   12.20
  10   8  -7  163.68   11.30
   0   8   8  205.18   11.60
   0   8  -8  202.78   12.70
   1   8   8  605.34   26.30
  -1   8   8  624.04   26.30
   1   8  -8  570.34   27.10
   2   8   8   50.09    5.40
  -2   8   8   55.19    5.50
   2   8  -8   54.09    6.90
   2  -8   8   56.79    6.70
   3  -8  -8  665.63   27.90
   3   8   8  625.34   27.90
   3   8  -8  626.84   29.00
   3  -8   8  641.64   28.50
   4  -8  -8  252.57   14.30
   4   8   8  242.58   13.70
   4  -8   8  244.98   14.20
   4   8  -8  275.57   15.80
   5  -8  -8  492.35   23.50
   5   8   8  477.45   22.80
   5  -8   8  478.15   22.80
   5   8  -8  505.55   24.50
   6  -8  -8   89.79    8.60
   6   8   8   94.59    7.60
   6   8  -8   87.39    9.20
   7  -8  -8  406.56   21.60
   7   8   8  414.36   20.60
   7   8  -8  420.36   21.90
   8   8   8  247.78   14.30
   8  -8  -8  259.17   15.80
   8   8  -8  249.68   15.50
   9  -8  -8  306.77   17.70
   9   8   8  292.07   16.20
   9   8  -8  300.97   17.10
  10  -8  -8  103.29    9.00
  10   8   8   76.99    7.60
  10   8  -8   72.69    7.90
   0   8  -9  234.78   14.20
  -1   8  -9    2.20    3.20
   1   8  -9    2.30    3.60
  -2   8  -9  117.89    9.30
   2   8  -9  109.09    9.70
   3   8  -9    0.10    3.80
   4  -8  -9  167.38   11.10
   4   8  -9  177.68   12.80
   5  -8  -9    8.00    3.00
   5   8  -9   -0.90    3.70
   6  -8  -9  164.48   11.60
   6   8  -9  165.28   12.50
   7  -8  -9   -0.40    3.20
   7   8  -9    3.00    3.60
   8  -8  -9   76.49    8.20
   8   8  -9   88.99    8.90
   9  -8  -9    6.50    3.40
   9   8  -9   12.10    4.50
   0   8 -10   68.89    7.60
  -1   8 -10  537.55   25.40
   1   8 -10  529.45   25.70
  -2   8 -10  193.58   12.40
   2   8 -10  196.78   13.30
  -3   8 -10  421.16   20.70
   3   8 -10  408.56   21.70
   4   8 -10   89.79    9.10
   5  -8 -10  449.56   22.10
   5   8 -10  458.55   23.60
   6  -8 -10  170.28   11.60
   6   8 -10  169.78   12.50
   7  -8 -10  334.37   18.50
   7   8 -10  346.97   19.40
   8  -8 -10   53.79    6.60
   8   8 -10   73.59    7.80
   0   8 -11  193.58   12.80
  -1   8 -11   21.20    5.30
   1   8 -11   18.10    5.50
  -2   8 -11  179.68   11.40
   2   8 -11  176.38   12.80
   3   8 -11    3.90    4.30
   4   8 -11  185.38   13.00
   5   8 -11   18.90    5.30
   6   8 -11  132.89   10.90
   0   8 -12  183.58   11.90
  -1   8 -12  351.66   18.70
   1   8 -12  336.87   18.50
   2   8 -12   54.59    6.80
   3   8 -12  300.77   17.40
   4   8 -12  152.08   11.40
   5   8 -12  293.97   17.10
   0   9   0   28.30    5.10
   0  -9   0   22.50    4.10
   0  -9   0   19.90    3.80
   1  -9   0   32.40    4.80
   1  -9   0   26.30    3.90
   1   9   0   43.40    6.30
  -1  -9   0   33.30    4.40
  -1   9   0   37.90    5.70
  -1  -9   0   36.10    4.20
   2  -9   0    9.10    3.20
  -2  -9   0   12.40    3.10
   2  -9   0    7.80    2.40
   2   9   0   18.50    4.30
  -2   9   0    6.70    3.20
  -2  -9   0    6.90    2.60
   3   9   0  118.39    8.40
   3  -9   0  113.89    8.20
  -3   9   0  116.79    8.50
   3  -9   0  117.29    7.30
  -3  -9   0  119.29    7.50
  -3  -9   0  114.99    8.60
  -4  -9   0   -1.20    1.20
  -4   9   0    1.10    2.50
   4  -9   0    1.60    2.40
  -4  -9   0   -0.30    1.30
   4   9   0   -1.10    2.30
   5   9   0    5.60    3.60
  -5  -9   0    9.10    2.60
  -5   9   0    6.90    3.90
   5  -9   0    3.40    3.20
  -6   9   0    4.60    3.90
   6   9   0    4.80    3.40
   6  -9   0    1.90    3.10
  -7   9   0   51.39    6.70
   7   9   0   57.29    6.90
   7  -9   0   54.89    6.90
  -8   9   0   -2.10    3.20
   8  -9   0   -0.10    3.30
   8   9   0    0.10    3.30
   9   9   0   22.70    5.60
   9  -9   0   30.80    6.50
  -9   9   0   11.00    5.10
 -10   9   0    8.00    5.00
  10   9   0    8.40    4.60
  10  -9   0    9.40    3.90
 -11   9   0   13.50    4.40
  11  -9   0   10.10    3.20
  11   9   0   17.10    4.30
  12   9   0   18.20    4.10
 -12   9   0   20.70    4.60
   0   9  -1    2.80    2.70
   0  -9   1    4.00    2.10
   0  -9   1    2.80    2.40
   0  -9  -1    8.50    2.80
   0  -9  -1    4.80    2.40
   0   9   1    5.70    3.00
  -1   9  -1    6.80    3.00
  -1  -9   1    7.60    2.60
   1  -9  -1    6.70    2.70
   1   9   1    5.10    3.10
  -1  -9   1    4.00    2.60
   1  -9  -1    3.80    1.90
   1  -9   1    5.00    2.40
  -1   9   1    5.70    3.30
   1  -9   1    3.70    2.40
   1   9  -1    6.90    3.10
  -1  -9  -1    7.40    2.50
  -1  -9  -1    8.40    2.90
   2  -9  -1    1.40    2.00
  -2   9  -1   10.10    3.50
   2  -9  -1    3.40    1.60
   2   9   1    3.50    3.00
  -2  -9   1    3.30    2.20
  -2  -9   1   -0.30    1.90
   2   9  -1    4.00    2.60
  -2  -9  -1    3.10    2.00
   2  -9   1    6.70    2.10
  -2  -9  -1    3.90    2.20
  -2   9   1   -0.80    2.60
   2  -9   1    6.60    2.90
   3  -9  -1    3.30    1.50
  -3   9  -1    2.30    2.80
  -3  -9   1    2.60    2.10
  -3  -9   1    3.00    2.20
   3  -9  -1    0.20    2.40
   3   9   1    2.20    3.10
  -3  -9  -1    1.20    1.50
  -3   9   1    2.30    2.80
   3  -9   1    1.70    2.20
   3   9  -1    6.90    3.20
  -3  -9  -1    1.90    1.80
   3  -9   1    4.80    1.70
   4  -9  -1    0.30    2.60
  -4   9  -1   -2.10    2.40
  -4  -9   1   -0.10    1.80
   4   9   1    3.60    2.90
  -4  -9   1   -0.10    1.40
   4  -9   1   -2.90    1.80
  -4  -9  -1    2.40    1.60
   4   9  -1   -0.40    2.40
  -4   9   1    0.80    3.00
  -5  -9   1    7.40    2.30
   5   9   1   -0.90    2.70
  -5   9  -1    8.50    4.00
   5  -9  -1   -0.80    2.50
   5   9  -1    3.90    3.30
   5   9  -1    3.90    2.60
  -5   9   1    2.10    3.20
   5  -9   1    2.20    2.60
  -5  -9  -1    4.70    1.60
   6  -9  -1    2.10    3.00
  -6   9  -1    4.00    3.60
   6   9   1    0.40    2.90
   6   9  -1    1.40    2.90
  -6   9   1   -1.40    3.20
   6  -9   1   -2.60    2.30
  -7   9  -1   -2.90    3.10
   7  -9  -1   -3.80    2.60
   7   9   1    7.80    4.20
   7   9  -1    2.80    3.30
  -7   9   1    3.30    3.60
   7  -9   1   -1.80    2.70
   8  -9  -1    1.80    3.20
  -8   9  -1    0.20    3.70
   8   9   1   -0.80    3.20
   8   9  -1   -0.70    2.90
  -8   9   1   -0.90    3.40
   8  -9   1   -0.40    2.80
  -9   9  -1   -4.10    2.80
   9   9   1    8.70    4.60
   9  -9  -1    2.60    3.50
  -9   9   1    2.60    4.20
   9   9  -1    5.60    3.60
  10   9   1   -1.10    3.20
  10  -9  -1   -0.40    2.70
 -10   9  -1    1.30    3.70
 -10   9   1    0.50    3.60
  10   9  -1    0.70    3.00
  10  -9   1    4.50    2.80
  11   9   1   15.50    3.90
  11  -9  -1    2.50    2.50
 -11   9  -1   11.80    3.70
  11   9  -1    5.40    3.10
  11  -9   1    8.40    2.50
 -11   9   1    3.30    4.10
 -12   9  -1   13.10    4.00
  12   9   1   12.10    3.40
 -12   9   1   10.50    4.00
  12   9  -1   14.10    3.90
   0   9  -2   -1.70    2.10
   0  -9   2    3.00    1.90
   0  -9  -2    1.20    1.80
   0  -9  -2   -1.60    1.30
   0   9   2    1.50    2.60
   0  -9   2    0.70    2.30
  -1  -9   2   61.29    5.80
   1  -9  -2   50.19    5.20
  -1   9  -2   59.99    5.50
   1   9   2   36.60    5.10
  -1  -9   2   48.90    5.20
   1  -9  -2   59.59    5.30
   1   9  -2   63.89    5.60
  -1  -9  -2   57.39    5.60
  -1  -9  -2   53.69    4.70
  -1   9   2   57.89    5.70
   1  -9   2   54.79    5.30
   1  -9   2   43.50    5.20
  -2  -9   2   -0.10    1.80
   2  -9  -2    3.20    2.60
  -2   9  -2    0.90    2.40
  -2  -9   2    4.20    2.40
   2  -9  -2    3.90    1.60
   2   9   2    2.30    3.10
  -2  -9  -2    0.60    1.40
  -2   9   2    0.10    2.30
   2   9  -2   -3.50    1.80
   2  -9   2    3.80    1.60
  -2  -9  -2    0.50    2.00
   2  -9   2   -0.70    2.10
  -3  -9   2   75.09    6.70
  -3  -9   2   79.89    6.50
  -3   9  -2   76.09    6.50
   3  -9  -2   74.99    5.70
   3  -9  -2   70.89    6.70
   3   9   2   74.99    6.80
  -3  -9  -2   75.89    6.70
   3  -9   2   76.79    6.80
   3   9  -2   71.09    6.40
  -3   9   2   64.19    6.60
   3  -9   2   72.89    5.60
  -4  -9   2    1.20    1.50
  -4   9  -2   -2.70    2.70
   4   9   2    0.50    2.80
   4  -9  -2    3.10    2.80
   4  -9   2   -0.40    2.60
  -4  -9  -2    5.60    2.40
  -4   9   2    0.70    3.10
   4   9  -2   -1.60    2.20
   5   9   2   28.60    5.90
   5  -9  -2   45.90    6.90
  -5   9  -2   32.40    5.80
   5  -9   2   26.50    5.10
   5   9  -2   36.50    5.60
  -5   9   2   38.10    6.40
   5   9  -2   37.80    6.20
   6  -9  -2   -0.20    3.10
   6   9   2    3.50    3.50
  -6   9  -2    2.80    3.40
   6   9  -2    0.30    2.20
   6   9  -2   -1.00    2.60
  -6   9   2    4.50    3.80
   6  -9   2    1.30    2.60
  -7   9  -2   49.99    7.80
   7  -9  -2   52.49    6.80
   7   9   2   52.79    6.80
   7   9  -2   46.60    5.90
  -7   9   2   46.60    6.60
   7  -9   2   46.90    7.10
   8  -9  -2    0.20    3.60
   8   9   2    2.70    3.60
  -8   9  -2    1.90    3.80
   8   9  -2   -1.70    2.40
  -8   9   2    3.10    4.20
   8  -9   2    2.60    2.80
   9  -9  -2   19.00    5.40
  -9   9  -2   26.10    6.60
   9   9   2   26.00    6.10
   9  -9   2   11.10    4.00
  -9   9   2   17.30    5.60
   9   9  -2   40.00    6.70
 -10   9  -2    4.90    4.00
  10   9   2    7.60    4.30
  10  -9  -2    8.40    3.60
  10   9  -2    1.90    2.60
  10  -9   2    7.20    2.60
 -10   9   2    3.00    3.90
 -11   9  -2   28.20    6.00
  11   9   2   30.60    5.50
  11  -9  -2   28.40    5.50
  11   9  -2   23.50    4.70
 -11   9   2   30.40    6.90
 -12   9  -2    2.20    2.50
   0  -9   3   20.70    3.90
   0   9   3   22.10    4.80
   0  -9  -3   32.40    4.20
   0  -9  -3   20.10    3.60
   0  -9   3   23.30    4.80
   0   9  -3   28.00    4.60
  -1  -9   3    0.70    2.30
   1   9   3   -0.50    2.60
   1  -9  -3   -0.70    2.00
  -1   9  -3    1.90    2.30
  -1  -9   3   -1.20    1.50
   1  -9  -3   -0.10    1.40
   1   9  -3    0.90    2.10
   1  -9   3   -1.20    2.20
  -1  -9  -3    5.90    2.30
  -1  -9  -3    0.00    1.30
   1  -9   3   -1.50    1.20
  -1   9   3    1.10    2.90
   2  -9  -3    8.10    2.10
   2  -9  -3    4.60    3.00
  -2  -9   3    6.50    2.90
   2   9   3   12.40    4.10
  -2   9  -3   12.20    3.40
   2   9  -3    6.50    2.70
   2  -9   3    8.10    3.40
   2  -9   3    8.00    2.20
  -2   9   3    1.40    3.00
  -2  -9  -3   12.00    3.20
   3  -9  -3   13.70    2.70
  -3  -9   3    7.80    3.60
  -3   9  -3   27.90    5.00
  -3  -9   3   15.20    3.70
   3  -9  -3   16.20    4.00
   3   9   3   18.40    4.90
   3  -9   3   13.20    3.70
   3   9  -3   13.00    3.60
  -3   9   3   17.40    4.70
  -3  -9  -3   25.90    3.50
  -4   9  -3   10.10    3.60
   4  -9  -3    5.10    3.30
  -4  -9   3    7.50    2.40
   4   9   3   12.40    4.10
   4   9  -3    1.00    2.90
   4  -9   3    5.20    3.00
  -4  -9  -3    9.00    2.40
   4   9  -3    9.00    3.30
  -4   9   3    4.80    3.50
  -5   9  -3   12.70    4.10
   5  -9  -3    5.10    3.40
   5   9   3    8.60    4.10
   5   9  -3    9.30    3.40
  -5   9   3   12.00    4.50
   5  -9   3   10.70    3.80
   5   9  -3    5.00    2.90
  -6   9  -3   23.60    5.00
   6  -9  -3   14.70    4.70
   6   9   3   14.40    5.00
   6  -9   3   20.30    5.00
   6   9  -3   15.30    4.00
  -6   9   3   14.20    5.10
   6   9  -3   13.60    4.10
   7   9   3    2.80    3.60
   7  -9  -3    3.90    3.30
  -7   9  -3    0.10    2.90
   7  -9   3    0.00    2.70
   7   9  -3    0.10    2.40
  -7   9   3    4.40    3.60
   7   9  -3    0.80    2.70
   8  -9  -3   -2.70    2.90
   8   9   3    0.10    3.20
  -8   9  -3    0.00    3.20
   8  -9   3    3.00    2.90
   8   9  -3    7.50    3.10
  -8   9   3   -3.90    3.20
   9  -9  -3    4.10    3.40
  -9   9  -3    5.40    4.10
   9   9   3    3.50    4.10
   9  -9   3    5.20    2.40
   9   9  -3    5.30    2.80
  -9   9   3    2.50    4.10
  10   9   3   14.40    4.50
 -10   9  -3    8.80    4.20
  10  -9  -3    6.70    3.40
 -10   9   3   13.90    5.00
  10   9  -3    7.90    2.80
  10  -9   3   12.70    3.20
 -11   9  -3    5.20    2.70
  11  -9  -3    9.10    3.10
  11   9   3   19.50    4.70
 -11   9   3   12.30    4.10
   0  -9   4   -0.30    1.10
   0   9  -4    1.40    2.10
   0  -9   4    1.30    2.40
   0  -9  -4    1.10    1.80
   0  -9  -4    5.30    2.40
   0   9   4   -0.10    3.00
   1  -9  -4   28.60    4.50
  -1   9  -4   30.60    4.80
   1   9   4   26.20    5.40
   1  -9  -4   32.20    4.30
  -1  -9   4   26.30    5.00
  -1  -9   4   18.10    4.30
  -1  -9  -4   27.30    4.90
  -1   9   4   28.10    5.60
   1  -9   4   23.80    4.30
   1  -9   4   24.70    5.00
   1   9  -4   30.80    4.70
   2   9   4   -2.90    2.70
  -2  -9   4    3.20    2.80
   2  -9  -4    2.90    2.50
   2  -9  -4    5.00    1.70
  -2  -9   4    2.90    2.00
  -2   9  -4    2.10    2.00
  -2   9   4    1.10    2.80
   2  -9   4   -0.80    2.30
   2   9  -4   -1.90    1.60
  -2  -9  -4    0.80    1.30
  -3   9  -4   56.29    5.30
  -3  -9   4   61.89    6.20
   3   9   4   47.10    5.90
  -3  -9   4   46.20    5.80
   3  -9  -4   45.40    5.60
   3  -9   4   46.70    5.80
   3   9  -4   48.40    4.80
  -3  -9  -4   58.19    5.70
  -3   9   4   44.10    5.70
   4  -9  -4    3.10    2.80
  -4   9  -4    2.40    2.50
   4   9   4   -1.10    2.70
   4  -9   4   -3.10    2.00
   4   9  -4    0.50    2.50
  -4   9   4    1.30    2.90
   4   9  -4    1.20    2.00
   5   9   4   13.60    4.50
   5  -9  -4    4.70    3.50
  -5   9  -4    7.10    3.20
   5   9  -4   12.50    4.30
   5  -9   4   11.20    3.60
  -5   9   4   11.60    4.80
   5   9  -4    9.60    2.90
   6   9   4   -1.70    3.00
  -6   9  -4    1.50    2.90
   6  -9  -4    1.80    3.30
   6   9  -4    5.10    2.50
   6   9  -4    5.80    3.40
   6  -9   4   -0.80    2.40
  -6   9   4    4.40    3.80
   7  -9  -4   32.60    6.30
  -7   9  -4   41.70    6.60
   7   9   4   37.20    7.30
   7   9  -4   38.90    4.70
   7   9  -4   38.30    5.40
   7  -9   4   33.00    5.70
  -7   9   4   30.70    6.40
  -8   9  -4    2.40    2.80
   8   9   4    4.00    3.90
   8  -9  -4    0.00    3.60
   8   9  -4    0.60    2.50
  -8   9   4    2.60    4.00
   8  -9   4    2.60    2.40
  -9   9  -4   15.50    4.20
   9  -9  -4   11.80    4.70
   9   9   4   18.50    5.70
  -9   9   4   14.80    4.90
   9  -9   4   13.80    3.70
  10  -9  -4   11.00    4.00
  10   9   4    9.20    3.40
 -10   9  -4   10.70    3.30
 -10   9   4    6.90    3.40
  11  -9  -4   16.40    4.30
  11   9   4   15.10    4.30
 -11   9   4   18.40    4.80
   0  -9  -5   10.00    2.60
   0  -9   5    4.00    2.90
   0  -9   5   10.00    2.90
   0   9   5    4.00    3.20
   0  -9  -5   12.10    3.40
  -1  -9   5    9.70    3.50
   1  -9  -5   10.10    3.00
   1   9   5   18.80    4.80
  -1  -9   5   13.60    3.20
   1  -9  -5   14.00    3.00
   1  -9   5   19.50    4.60
   1  -9   5   16.30    3.40
  -1  -9  -5   16.20    3.70
  -1   9   5   11.60    4.20
   2  -9  -5   -0.20    2.20
   2   9   5    3.60    2.90
  -2  -9   5    6.20    2.30
   2  -9  -5    3.70    1.50
  -2  -9   5    2.60    2.90
  -2  -9  -5    4.20    1.80
   2  -9   5    1.70    1.50
   2  -9   5    1.60    2.70
  -2   9   5   -0.30    2.60
   3  -9  -5    1.10    2.60
   3   9   5    3.50    3.30
  -3   9  -5    6.30    2.50
   3  -9   5    2.80    2.80
  -3   9   5    8.00    3.70
   3   9  -5    8.10    4.00
  -4   9  -5    4.40    2.30
   4  -9  -5   -2.10    2.40
   4   9   5    2.90    3.30
   4   9  -5    1.60    2.90
   4  -9   5    6.00    3.20
  -4   9   5    6.10    4.00
   5   9   5   10.90    4.30
   5  -9  -5   17.30    4.70
  -5   9  -5   11.90    3.40
   5   9  -5    8.80    4.10
   5  -9   5    9.50    3.60
  -5   9   5    9.00    4.20
   6   9   5   -0.40    3.10
  -6   9  -5    9.40    2.90
   6  -9  -5    5.50    3.50
  -6   9   5    2.60    3.80
   6   9  -5    2.50    3.30
   6  -9   5    8.30    3.50
  -7   9  -5   12.70    3.10
   7  -9  -5    5.70    4.30
   7   9   5    2.20    3.50
  -7   9   5    4.40    4.00
   7  -9   5   -0.20    2.50
   7   9  -5    3.00    3.20
  -8   9  -5    2.90    2.00
   8   9   5    0.00    3.30
   8  -9  -5   -2.00    3.30
  -8   9   5   -0.70    3.40
   8  -9   5    3.00    2.20
   8   9  -5   -1.50    2.70
   9  -9  -5    4.70    3.50
   9   9   5   11.40    4.30
  -9   9  -5   10.80    2.70
   9   9  -5    4.50    2.70
  -9   9   5   -0.30    3.10
  10  -9  -5    9.50    4.50
  10   9   5   11.10    3.50
 -10   9  -5   16.10    3.70
 -10   9   5    7.20    3.20
  11  -9  -5   10.30    3.10
  11   9   5    9.20    2.80
 -11   9   5   13.90    3.30
   0   9   6    2.80    3.00
   0  -9   6    2.40    2.50
   1  -9  -6   35.80    4.20
  -1  -9   6   42.20    6.50
   1   9   6   46.70    6.90
   1  -9  -6   52.29    5.20
   1  -9   6   42.50    4.90
  -1   9   6   40.90    5.70
   1  -9   6   40.00    5.60
   2  -9  -6   11.10    3.40
   2   9   6    9.00    3.70
   2  -9   6    7.80    3.60
   2   9  -6    8.20    4.20
   2  -9   6    9.70    2.30
  -2   9   6   15.20    4.50
   3  -9  -6   81.19    7.10
   3   9   6   87.29    7.50
   3  -9   6   88.19    7.70
  -3   9   6   86.59    7.60
   3   9  -6   91.39    8.40
   4   9   6    1.90    3.20
   4  -9  -6   -1.90    2.60
   4  -9   6   -1.20    2.40
   4   9  -6    0.20    3.70
  -4   9   6    0.40    2.80
   5   9   6    8.40    4.10
   5  -9  -6   17.70    4.70
  -5   9   6   15.80    5.10
   5   9  -6   20.50    5.50
   5  -9   6   12.60    4.20
   6  -9  -6   -3.50    2.70
   6   9   6    1.10    3.10
   6   9  -6    0.40    3.50
   6  -9   6    3.30    2.70
  -6   9   6    1.50    3.10
   7   9   6   49.00    6.70
   7  -9  -6   60.59    8.90
   7  -9   6   55.39    6.10
  -7   9   6   51.09    6.80
   7   9  -6   51.09    8.10
   8  -9  -6    4.10    4.20
   8   9   6    7.60    3.50
  -8   9   6    1.30    3.50
   8   9  -6    4.80    3.90
   9  -9  -6   27.90    5.80
   9   9   6   32.10    6.00
   9   9  -6   43.30    5.40
  -9   9   6   36.70    6.60
  10   9   6    6.90    3.10
  10  -9  -6   13.10    3.90
 -10   9   6    5.00    2.80
   0  -9   7   10.50    4.00
   0   9   7    5.40    3.30
   1   9   7    1.70    2.40
   1  -9   7    2.20    3.00
  -1   9   7    0.70    2.70
   1   9  -7    2.90    3.60
   2  -9  -7    4.50    2.60
   2   9   7    4.30    3.00
   2  -9   7    6.40    3.50
  -2   9   7    2.50    3.00
   2   9  -7    5.00    3.80
   3   9   7    9.00    3.50
   3   9  -7    2.70    3.30
   3  -9   7    8.80    3.90
  -3   9   7    7.80    3.80
   4   9   7    3.40    2.80
   4  -9  -7    0.60    2.70
   4  -9   7    0.80    2.60
   4   9  -7    6.50    4.20
  -4   9   7    3.80    3.00
   5   9   7   -0.50    2.60
   5  -9  -7   -2.30    2.50
   5   9  -7   -4.10    2.90
  -5   9   7    2.30    2.90
   5  -9   7   -1.80    2.00
   6   9   7   10.70    4.30
   6  -9  -7    8.80    4.20
  -6   9   7    8.80    3.40
   6  -9   7   20.20    4.40
   6   9  -7    3.60    4.30
   7  -9  -7   -2.70    2.70
   7   9   7    2.40    3.10
   7   9  -7    3.60    3.70
  -7   9   7   12.90    3.60
   8  -9  -7    5.80    3.70
   8   9   7    4.10    3.20
   8   9  -7    3.40    3.60
  -8   9   7    6.10    2.50
   9   9   7   11.80    3.10
   9  -9  -7    2.50    2.90
   9   9  -7    1.90    2.50
  10  -9  -7    3.80    2.70
   0   9  -8    2.90    3.80
   0   9   8    3.00    2.50
   1   9   8   24.10    5.00
   1   9  -8   14.00    4.90
  -1   9   8   17.80    4.30
   2   9   8   -0.90    2.00
   2   9  -8    2.70    3.70
   2  -9   8    2.40    3.40
  -2   9   8   -2.10    1.90
   3   9   8   29.00    5.30
   3  -9  -8   20.80    3.80
   3  -9   8   16.20    4.60
   3   9  -8    8.50    4.50
  -3   9   8   18.10    4.40
   4   9   8    5.30    2.70
   4  -9  -8   -0.80    2.10
   4  -9   8    2.70    2.90
   4   9  -8   -3.40    3.30
   5  -9  -8   28.20    5.30
   5   9   8   14.80    3.80
   5  -9   8    9.20    3.30
   5   9  -8   16.30    5.50
   6  -9  -8   -2.90    2.60
   6   9   8   10.20    2.90
   6   9  -8    1.40    4.00
   7  -9  -8   17.90    5.30
   7   9  -8   20.90    5.70
   8  -9  -8    9.10    3.40
   8   9   8    9.00    2.60
   8   9  -8    7.40    3.90
   9   9   8   12.40    2.90
   9  -9  -8   12.90    3.80
   9   9  -8   15.00    3.50
   0   9  -9    7.30    4.00
  -1   9  -9    3.30    3.70
   1   9  -9    9.20    4.50
  -2   9  -9    5.80    3.50
   2   9  -9   -4.60    3.00
   3   9  -9   13.70    5.40
   4  -9  -9   -1.00    1.90
   4   9  -9    2.10    4.10
   5  -9  -9    7.00    2.90
   5   9  -9    5.50    4.20
   6  -9  -9   11.30    3.70
   6   9  -9    3.00    3.90
   7  -9  -9    6.40    3.20
   7   9  -9    9.70    4.10
   8  -9  -9    4.90    3.00
   8   9  -9    7.80    4.00
   0   9 -10   -1.50    3.30
  -1   9 -10   17.90    4.70
   1   9 -10   14.20    5.40
  -2   9 -10   10.10    3.80
   2   9 -10    0.70    3.40
  -3   9 -10   45.00    5.00
   3   9 -10   38.60    8.00
   4   9 -10    5.30    4.20
   5   9 -10    5.80    4.20
   6  -9 -10    6.80    2.60
   6   9 -10    5.10    4.10
   7  -9 -10   19.50    4.10
   0   9 -11    3.60    2.80
  -1   9 -11   34.60    4.60
   1   9 -11   16.10    5.00
   2   9 -11   15.00    4.40
   3   9 -11   15.70    4.70
   4   9 -11    4.50    3.30
   5   9 -11   21.20    5.20
  -1   9 -12   47.10    4.70
   1   9 -12   41.50    4.80
   2   9 -12   36.10    5.00
   3   9 -12   30.40    5.60
   0  10   0  482.35   22.20
   0 -10   0  484.45   21.50
   0 -10   0  479.35   22.80
   1 -10   0  927.11   37.40
  -1 -10   0  900.21   36.80
   1 -10   0  930.21   39.10
  -1  10   0  937.61   38.20
  -1 -10   0  928.01   39.60
   1  10   0  912.61   38.10
   2 -10   0   53.89    6.00
   2  10   0   68.19    6.60
  -2 -10   0   67.69    6.20
   2 -10   0   71.79    5.70
  -2 -10   0   71.89    5.90
  -2  10   0   61.59    6.40
   3 -10   0  608.04   27.50
  -3  10   0  629.24   28.10
  -3 -10   0  644.74   29.40
   3  10   0  641.44   28.10
  -3 -10   0  646.74   26.70
   4 -10   0  417.96   20.70
   4  10   0  421.56   20.70
  -4 -10   0  477.45   19.80
  -4  10   0  416.56   20.90
   5 -10   0  565.24   29.10
  -5  10   0  728.13   30.80
   5  10   0  744.93   30.70
   6 -10   0   83.19    8.00
  -6  10   0   87.99    8.40
   6  10   0   77.19    7.60
  -7  10   0  435.56   22.00
   7 -10   0  443.56   21.80
   7  10   0  397.96   21.30
  -8  10   0  325.87   18.40
   8 -10   0  318.47   17.90
   8  10   0  315.37   17.80
  -9  10   0  347.47   19.40
   9  10   0  332.97   18.80
   9 -10   0  334.47   18.60
  10  10   0   53.79    6.40
  10 -10   0   55.39    6.60
 -10  10   0   63.79    7.30
 -11  10   0  271.27   16.50
  11 -10   0  252.77   15.00
  11  10   0  270.27   15.80
   0  10  -1  358.66   17.10
   0  10   1  326.27   16.90
   0 -10  -1  348.67   16.20
   0 -10   1  314.27   16.30
   0 -10  -1  342.17   17.40
   0 -10   1  338.47   17.30
  -1 -10   1  145.69    9.80
  -1  10  -1  155.68    9.80
  -1 -10   1  135.09    9.10
   1 -10  -1  148.09    9.50
   1 -10  -1  144.19    9.30
   1  10   1  148.89    9.90
   1 -10   1  141.09    9.30
  -1 -10  -1  142.89    9.80
  -1 -10  -1  143.69    8.70
   1  10  -1  141.79    9.50
   1 -10   1  144.09    9.40
  -1  10   1  148.59    9.90
   2  10   1  512.55   23.50
   2 -10  -1  466.05   22.50
   2 -10  -1  500.45   23.20
  -2  10  -1  548.65   23.50
  -2 -10   1  473.85   23.90
  -2 -10   1  475.15   22.10
   2  10  -1  504.95   23.10
   2 -10   1  509.25   23.00
  -2  10   1  494.65   23.40
  -2 -10  -1  524.55   24.40
   2 -10   1  534.35   23.40
  -2 -10  -1  539.25   22.00
   3 -10  -1  150.78   10.00
  -3  10  -1  153.08   10.10
   3  10   1  150.78   10.20
  -3 -10   1  164.68    9.80
  -3 -10   1  161.68   10.50
   3 -10   1  138.99    9.90
  -3 -10  -1  158.78   10.50
  -3  10   1  157.88   10.50
  -3 -10  -1  157.68    8.90
   3  10  -1  132.09    9.70
  -4 -10   1  269.27   13.90
  -4  10  -1  279.87   15.10
   4 -10  -1  272.27   15.00
   4  10   1  285.77   15.20
   4 -10   1  261.17   14.80
   4  10  -1  255.07   14.60
  -4  10   1  283.37   15.40
   5 -10  -1   82.29    8.00
  -5  10  -1   71.69    7.60
   5  10   1   90.69    8.10
  -5  10   1   88.19    8.30
   5 -10   1   83.49    7.60
   5  10  -1   90.49    7.80
   5  10  -1   88.99    7.00
  -6  10  -1  196.58   12.70
   6 -10  -1  209.68   13.10
   6  10   1  188.08   12.50
  -6  10   1  181.48   12.50
   6  10  -1  192.78   12.20
   6 -10   1  188.58   12.30
   7  10   1   96.69    8.80
  -7  10  -1   99.29    9.20
   7 -10  -1   87.29    8.90
   7 -10   1   98.49    8.70
   7  10  -1  105.89    8.90
  -7  10   1   90.89    9.10
   8 -10  -1  234.48   14.30
   8  10   1  195.78   13.30
  -8  10  -1  207.28   14.00
  -8  10   1  180.28   13.40
   8  10  -1  206.28   13.10
   8 -10   1  202.28   13.20
  -9  10  -1   52.59    8.10
   9  10   1   50.09    7.00
   9 -10  -1   59.09    7.20
   9 -10   1   51.49    6.40
  -9  10   1   55.09    8.80
   9  10  -1   47.90    6.50
 -10  10  -1  103.19    8.90
  10 -10  -1   78.79    7.90
  10  10   1   90.19    8.50
  10 -10   1   74.79    7.60
 -10  10   1   99.59    9.40
  10  10  -1   87.49    8.10
  11  10   1   45.40    5.90
 -11  10  -1   58.99    6.80
  11 -10  -1   50.09    6.00
  11 -10   1   43.30    5.20
 -11  10   1   57.29    7.00
  11  10  -1   54.99    5.80
   0 -10  -2   54.99    5.20
   0  10  -2   59.29    5.90
   0  10   2   41.10    5.70
   0 -10  -2   54.59    5.40
   0 -10   2   54.69    5.40
   0 -10   2   50.99    5.90
   1 -10  -2 1049.40   41.50
  -1  10  -2 1076.89   42.50
   1 -10  -2 1055.89   44.00
  -1 -10   2 1049.79   44.40
  -1 -10   2 1027.30   41.80
   1  10   2 1043.50   42.90
   1  10  -2 1060.69   42.40
   1 -10   2  999.80   41.80
   1 -10   2 1083.19   44.00
  -1 -10  -2 1036.70   40.80
  -1 -10  -2 1039.00   44.40
   2 -10  -2  519.95   23.70
  -2  10  -2  545.05   24.10
   2 -10  -2  518.15   24.40
   2  10   2  535.45   24.70
  -2 -10   2  510.95   25.30
  -2 -10   2  548.55   23.90
  -2 -10  -2  546.15   25.60
  -2 -10  -2  548.25   22.70
  -2  10   2  522.95   24.60
   2  10  -2  534.35   24.00
   2 -10   2  559.44   24.70
   2 -10   2  550.74   24.30
  -3 -10   2 1042.70   42.20
   3  10   2 1045.90   43.40
  -3  10  -2 1117.59   43.30
   3 -10  -2 1087.19   42.80
   3  10  -2  982.80   42.50
   3 -10   2 1053.39   42.60
  -3  10   2 1049.20   43.60
   4  10   2   47.30    6.20
  -4  10  -2   31.10    5.80
   4 -10  -2   43.80    6.60
   4  10  -2   38.80    5.20
  -4  10   2   47.40    6.10
   4 -10   2   45.10    5.90
  -5  10  -2  816.62   33.20
   5  10   2  747.93   33.10
   5 -10  -2  752.52   32.70
  -5  10   2  743.43   33.30
   5 -10   2  712.53   32.30
   5  10  -2  769.12   31.60
   5  10  -2  713.23   32.20
  -6  10  -2  390.86   19.70
   6  10   2  359.56   19.50
   6 -10  -2  365.36   19.60
  -6  10   2  389.66   20.20
   6 -10   2  387.06   19.50
   6  10  -2  378.76   18.10
   6  10  -2  372.26   19.00
   7 -10  -2  632.64   28.30
   7  10   2  587.74   28.00
  -7  10  -2  583.74   27.80
   7 -10   2  607.94   27.60
  -7  10   2  601.24   28.60
   7  10  -2  564.44   27.10
   8 -10  -2   50.99    8.10
  -8  10  -2   57.29    8.70
   8  10   2   53.69    8.20
  -8  10   2   30.30    6.90
   8  10  -2   51.19    5.90
   8 -10   2   52.19    7.70
   9  10   2  498.55   25.40
  -9  10  -2  514.15   25.50
   9 -10  -2  532.35   25.60
   9 -10   2  507.65   24.60
   9  10  -2  500.65   24.60
  -9  10   2  507.55   25.80
  10 -10  -2  271.27   15.70
  10  10   2  237.98   15.00
 -10  10  -2  228.88   15.10
 -10  10   2  230.08   15.50
  10 -10   2  268.47   14.80
  10  10  -2  244.08   14.60
  11  10   2  254.37   15.50
  11 -10  -2  247.98   15.50
  11  10  -2  286.97   15.50
   0 -10  -3  376.96   18.90
   0 -10   3  384.96   19.10
   0 -10  -3  369.76   17.10
   0  10  -3  400.76   18.10
   0  10   3  340.17   18.40
   0 -10   3  354.46   18.00
   1  10   3  153.68   10.20
  -1  10  -3  146.39    9.50
   1 -10  -3  151.68    9.80
   1 -10  -3  136.89    9.00
  -1 -10   3  142.49   10.10
  -1 -10   3  143.19    9.80
  -1  10   3  149.99   10.40
   1 -10   3  141.39    9.90
  -1 -10  -3  147.09    8.60
  -1 -10  -3  159.58   10.30
   1 -10   3  157.88   10.00
   1  10  -3  158.18    9.60
   2 -10  -3  299.37   17.10
  -2  10  -3  408.76   18.10
   2  10   3  414.16   19.10
  -2 -10   3  324.17   17.70
   2 -10  -3  340.87   17.90
   2 -10   3  385.36   18.40
   2 -10   3  405.96   18.40
  -2  10   3  342.07   18.40
   2  10  -3  338.77   17.30
  -2 -10  -3  418.06   21.30
  -3 -10   3  253.07   13.60
   3  10   3  243.48   14.00
   3 -10  -3  217.98   13.00
  -3  10  -3  228.88   12.90
   3  10  -3  204.68   12.40
   3 -10   3  238.28   13.50
  -3  10   3  245.58   14.00
   4 -10  -3  233.58   14.60
   4  10   3  284.97   15.40
  -4  10  -3  298.17   15.10
  -4  10   3  257.97   15.40
   4  10  -3  257.67   14.40
   4  10  -3  282.87   15.00
   4 -10   3  299.37   15.40
   5  10   3   77.19    7.70
  -5  10  -3   76.59    7.30
   5 -10  -3   73.29    7.80
   5  10  -3   64.19    6.50
   5  10  -3   80.69    7.30
   5 -10   3   93.79    7.90
  -5  10   3   76.49    7.80
   6  10   3  266.77   15.50
  -6  10  -3  282.67   15.40
   6 -10  -3  247.98   15.20
   6  10  -3  258.27   14.40
  -6  10   3  250.87   15.60
   6  10  -3  258.77   14.20
   6 -10   3  263.17   15.00
   7 -10  -3  126.49   10.50
  -7  10  -3  121.79    9.90
   7  10   3  119.09   10.20
   7  10  -3  120.39    8.80
   7  10  -3  141.19    9.60
   7 -10   3  112.29    9.40
  -7  10   3  130.39   10.60
   8 -10  -3  139.39   11.10
   8  10   3  130.19   10.80
  -8  10  -3  163.68   11.20
   8  10  -3  127.59    9.50
  -8  10   3  133.39   11.00
   8 -10   3  138.29   10.30
   9  10   3   90.29    8.70
  -9  10  -3   76.59    8.10
   9 -10  -3   85.69    8.30
   9  10  -3   73.39    6.80
   9 -10   3   70.49    7.10
  -9  10   3   78.99    8.40
 -10  10  -3   98.99    9.10
  10 -10  -3  129.49   10.20
  10  10   3  110.19    9.50
  10 -10   3  108.49    8.20
 -10  10   3   95.69    9.30
 -11  10  -3   54.29    6.60
  11  10   3   49.60    7.90
  11 -10  -3   46.10    6.10
 -11  10   3   53.19    6.70
   0  10   4  446.96   21.90
   0 -10   4  440.36   21.40
   0 -10  -4  462.55   20.10
   0  10  -4  462.65   20.70
   0 -10  -4  474.15   22.50
   0 -10   4  445.26   22.10
   1  10   4  748.53   32.50
  -1  10  -4  739.83   31.20
  -1 -10   4  745.23   32.30
   1 -10  -4  723.13   33.00
   1 -10  -4  754.22   31.00
  -1  10   4  787.72   33.00
   1 -10   4  730.13   31.80
   1 -10   4  736.93   32.90
   1  10  -4  765.12   31.30
  -2 -10   4   44.00    6.00
  -2  10  -4   44.40    5.00
   2 -10  -4   52.79    6.00
   2 -10  -4   58.89    5.10
   2  10   4   63.19    6.60
   2 -10   4   54.59    5.00
   2 -10   4   58.59    6.50
  -2  10   4   60.99    6.60
   2  10  -4   48.10    5.10
   3  10   4  750.12   32.30
  -3  10  -4  730.83   30.90
   3 -10  -4  698.73   30.90
  -3  10   4  753.62   32.40
   3  10  -4  697.03   30.30
   3 -10   4  729.23   31.40
   4  10   4  433.06   21.10
  -4  10  -4  432.06   20.30
   4 -10  -4  379.96   20.30
  -4  10   4  444.66   21.60
   4  10  -4  413.16   19.60
   4 -10   4  433.56   20.80
   5 -10  -4  578.74   26.40
  -5  10  -4  580.04   25.80
   5  10   4  541.25   26.30
  -5  10   4  603.44   27.30
   5  10  -4  552.14   25.00
   5  10  -4  552.44   25.80
   5 -10   4  546.15   25.80
  -6  10  -4   41.60    5.60
   6 -10  -4   52.29    7.70
   6  10   4   46.00    6.40
   6 -10   4   54.09    6.40
   6  10  -4   45.20    6.00
  -6  10   4   52.99    8.20
   7 -10  -4  421.36   22.50
   7  10   4  434.26   22.90
  -7  10  -4  460.45   22.40
   7 -10   4  431.76   21.90
  -7  10   4  475.05   23.50
   7  10  -4  483.05   22.00
   8  10   4  288.77   17.20
   8 -10  -4  305.17   17.60
  -8  10  -4  310.47   16.80
   8 -10   4  297.07   16.40
  -8  10   4  287.37   17.50
   9 -10  -4  365.86   20.30
  -9  10  -4  380.86   19.70
   9  10   4  388.06   20.50
   9 -10   4  349.37   18.70
  -9  10   4  383.76   20.70
  10 -10  -4   46.10    7.60
 -10  10  -4   45.30    5.10
  10  10   4   47.80    6.30
 -10  10   4   30.60    6.20
   0 -10   5  161.28   11.30
   0  10   5  171.08   11.30
   1  10   5   99.59    8.30
  -1 -10   5   92.09    8.30
   1 -10  -5   97.09    7.20
   1 -10   5   90.99    8.20
  -1  10   5   90.69    8.30
   2 -10  -5  376.16   18.10
   2  10   5  402.66   19.50
  -2 -10   5  354.76   19.00
  -2  10   5  361.16   19.20
   2 -10   5  380.46   19.00
   3 -10  -5   96.49    7.80
   3  10   5   93.69    8.50
   3 -10   5   85.49    8.00
  -3  10   5   87.09    8.10
   3  10  -5   92.09    8.60
   4 -10  -5  244.08   14.20
   4  10   5  262.07   14.90
  -4  10   5  247.08   14.80
   4  10  -5  224.98   14.30
   4 -10   5  259.87   14.50
   5  10   5   59.29    7.00
   5 -10  -5   66.49    7.30
   5 -10   5   66.39    7.10
  -5  10   5   61.69    7.30
   5  10  -5   58.99    7.00
   6 -10  -5  145.79   11.30
   6  10   5  202.48   12.50
   6  10  -5  153.28   11.20
  -6  10   5  147.89   11.50
   6 -10   5  182.98   11.70
   7  10   5   73.49    7.90
   7 -10  -5   61.59    7.60
   7 -10   5   74.49    7.40
   7  10  -5   64.49    7.20
  -7  10   5   72.89    7.90
   8  10   5  221.08   14.00
   8 -10  -5  196.88   13.80
  -8  10   5  213.38   14.00
   8  10  -5  205.98   12.60
   8 -10   5  213.78   12.90
   9  10   5   49.20    6.10
   9 -10  -5   47.30    6.40
  -9  10   5   37.90    7.10
  10  10   5   90.49    8.00
  10 -10  -5   82.29    8.00
 -10  10   5   83.79    7.80
   0  10   6   83.49    7.80
   0 -10   6   72.49    7.60
  -1 -10   6  667.03   30.30
   1  10   6  659.93   29.90
  -1  10   6  672.93   30.10
   1 -10   6  694.83   30.50
   2 -10  -6  374.06   18.00
   2  10   6  379.96   19.20
   2 -10   6  363.76   19.00
  -2  10   6  364.36   19.10
   2  10  -6  361.66   19.30
   3  10   6  512.65   24.60
   3 -10  -6  508.35   23.70
   3 -10   6  504.25   24.50
   3  10  -6  531.45   25.20
  -3  10   6  550.74   25.30
   4  10   6   59.79    6.90
   4 -10  -6   48.90    6.30
   4  10  -6   54.09    8.10
  -4  10   6   46.30    6.50
   4 -10   6   53.59    6.60
   5  10   6  606.54   27.90
   5 -10  -6  581.94   27.30
   5 -10   6  572.54   27.00
  -5  10   6  624.04   28.30
   5  10  -6  590.64   27.80
   6  10   6  236.38   14.50
   6 -10  -6  221.58   14.30
  -6  10   6  243.28   14.70
   6  10  -6  222.88   14.40
   6 -10   6  231.88   13.90
   7 -10  -6  347.37   19.50
   7  10   6  358.86   19.40
   7  10  -6  389.46   19.70
   7 -10   6  339.27   18.20
  -7  10   6  363.66   19.60
   8 -10  -6   30.60    5.80
   8  10   6   54.09    6.20
   8  10  -6   50.49    5.60
  -8  10   6   45.10    6.10
   9  10   6  318.27   17.70
   9 -10  -6  306.87   17.90
  -9  10   6  306.67   17.50
   0 -10   7  154.38   11.30
   0  10   7  138.89   10.10
   1  10   7   78.09    7.30
   1 -10   7   81.99    8.20
  -1  10   7   71.69    7.20
   1  10  -7   74.09    8.20
   2  10   7  176.88   12.10
  -2  10   7  213.08   12.90
   2  10  -7  203.98   13.50
   2 -10   7  198.38   12.90
   3 -10  -7  117.79    8.40
   3  10   7   99.49    8.60
  -3  10   7  107.89    8.90
   3  10  -7  105.49    9.40
   3 -10   7  109.69    9.50
   4 -10  -7  137.69    9.90
   4  10   7  146.89   10.60
   4  10  -7  143.29   11.20
   4 -10   7  158.08   11.10
  -4  10   7  127.79   10.10
   5 -10  -7   64.79    6.50
   5  10   7   56.29    6.60
  -5  10   7   49.00    6.20
   5  10  -7   62.99    9.20
   5 -10   7   59.19    7.10
   6  10   7  145.29   10.60
   6 -10  -7  121.29   10.10
   6  10  -7  125.79   10.80
  -6  10   7  140.59   10.10
   6 -10   7  144.89   10.20
   7  10   7   83.79    7.90
   7 -10  -7   79.79    8.00
   7  10  -7   55.89    7.20
  -7  10   7   69.29    7.00
   8 -10  -7   97.99    9.10
   8  10   7  124.59    9.50
   8  10  -7  112.89    9.20
  -8  10   7  113.29    9.10
   9 -10  -7   50.29    6.10
   9  10   7   66.19    6.30
   9  10  -7   51.59    5.70
   0  10  -8  298.77   17.60
   0  10   8  336.17   17.10
   1  10   8  476.95   22.10
   1  10  -8  443.06   22.90
  -1  10   8  431.56   21.60
   2  10   8   44.40    5.30
   2  10  -8   50.99    8.30
  -2  10   8   40.90    6.50
   2 -10   8   52.49    8.10
   3  10   8  555.54   25.40
  -3  10   8  534.75   25.20
   3 -10   8  534.15   25.80
   3  10  -8  540.55   26.30
   4 -10  -8  264.67   15.20
   4  10   8  285.77   15.70
  -4  10   8  301.47   16.70
   4  10  -8  307.57   17.40
   4 -10   8  272.97   16.10
   5 -10  -8  348.77   18.60
   5  10   8  360.46   18.70
   5 -10   8  360.46   19.00
   5  10  -8  369.36   20.10
   6  10   8   36.30    4.80
   6 -10  -8   27.90    5.20
   6 -10   8   31.30    6.60
   6  10  -8   47.00    6.40
   7  10   8  332.07   18.10
   7 -10  -8  338.87   18.80
   7  10  -8  364.26   19.30
   8 -10  -8  210.38   13.70
   8  10   8  211.68   12.90
   8  10  -8  219.08   13.60
   0  10  -9  165.48   12.10
  -1  10  -9   52.19    7.10
   1  10  -9   54.89    7.20
  -2  10  -9  146.99   11.30
   2  10  -9  159.78   12.00
   3  10  -9   82.09    9.10
   4  10  -9  156.58   12.00
   5 -10  -9   40.00    4.80
   5  10  -9   29.40    6.20
   6 -10  -9  148.79   10.40
   6  10  -9  149.49   11.50
   7 -10  -9   57.19    6.30
   7  10  -9   63.79    7.20
   0  10 -10   59.89    7.60
  -1  10 -10  280.97   17.00
   1  10 -10  329.17   18.00
  -2  10 -10  218.28   13.60
   2  10 -10  214.48   14.00
  -3  10 -10  277.67   16.10
   3  10 -10  310.07   17.60
   4  10 -10   56.79    7.20
   5  10 -10  307.97   17.70
   6  10 -10  177.18   13.20
   0  10 -11   50.09    6.10
  -1  10 -11   53.09    5.60
   1  10 -11   35.20    6.30
  -2  10 -11  109.19    8.50
   2  10 -11  117.79    9.80
   3  10 -11   47.90    6.20
   4  10 -11   63.19    7.30
   0  11   0    7.50    3.90
   0 -11   0   -0.70    2.10
   1  11   0   42.80    6.00
  -1 -11   0   48.30    5.50
   1 -11   0   47.00    5.70
   1 -11   0   61.99    5.40
  -1  11   0   56.49    6.50
  -2 -11   0    0.70    2.00
   2  11   0    4.90    3.50
   2 -11   0    2.50    2.80
  -2  11   0    3.70    3.00
  -3 -11   0   50.59    5.30
   3  11   0   43.80    6.10
  -3  11   0   49.50    6.20
   3 -11   0   47.10    6.10
   4  11   0    0.90    3.20
  -4  11   0    1.10    3.50
   4 -11   0    6.30    3.50
   5  11   0   47.30    6.30
   5 -11   0   45.30    6.20
  -5  11   0   45.10    6.20
   6 -11   0    4.40    3.40
   6  11   0    8.70    4.00
  -6  11   0    4.40    4.10
  -7  11   0   35.70    7.10
   7  11   0   36.80    6.90
   7 -11   0   36.60    6.70
   8  11   0   -1.50    2.50
  -8  11   0    3.20    3.80
   8 -11   0   -0.70    2.70
  -9  11   0   38.90    7.30
   9 -11   0   46.80    6.00
   9  11   0   38.70    5.50
  10  11   0    8.30    3.40
 -10  11   0    4.50    4.00
  10 -11   0    8.20    2.70
   0 -11   1    8.70    3.60
   0 -11  -1    5.10    2.90
   0  11  -1    8.30    4.10
   0  11   1   14.10    4.90
   1  11   1    3.80    3.40
  -1  11  -1    2.00    3.00
  -1 -11   1    4.20    2.80
   1 -11  -1    7.70    3.10
  -1 -11  -1    4.90    2.70
   1 -11   1    4.50    2.90
  -1  11   1    7.10    4.10
   1  11  -1    1.40    3.00
   2 -11  -1    3.80    3.10
   2  11   1   13.60    4.20
  -2 -11   1    4.40    2.60
  -2  11  -1    3.40    3.20
   2  11  -1    3.10    3.00
   2 -11   1   11.10    3.70
  -2 -11  -1    5.50    2.40
  -2  11   1    7.30    3.80
  -3  11  -1    1.70    3.10
   3  11   1    0.60    3.00
  -3 -11   1   -1.40    1.70
   3 -11  -1   -1.10    2.10
   3  11  -1    3.40    3.10
  -3  11   1   -0.80    3.20
   3 -11   1    0.00    2.60
  -4 -11   1    4.20    2.60
   4 -11  -1    1.50    3.10
   4  11   1    6.50    4.00
  -4  11  -1    5.50    3.50
   4  11  -1    6.00    3.70
  -4  11   1    5.60    3.90
   4 -11   1    2.80    3.10
   5 -11  -1    8.10    3.80
   5  11   1    5.10    4.10
  -5  11  -1    3.00    3.60
   5  11  -1    5.60    3.60
  -5  11   1    1.80    3.60
   5 -11   1    5.90    3.60
   6  11   1   -2.00    3.00
  -6  11  -1    0.90    3.50
   6 -11  -1   -3.50    2.50
   6  11  -1    0.40    2.60
  -6  11   1    4.30    4.20
   6 -11   1    0.80    3.10
  -7  11  -1    3.80    3.90
   7 -11  -1    1.50    3.20
   7  11   1    4.40    3.50
   7 -11   1   -3.00    2.50
  -7  11   1   10.70    5.30
   7  11  -1    3.60    2.80
  -8  11  -1    7.00    4.60
   8  11   1    3.10    3.60
   8 -11  -1    5.40    3.30
   8 -11   1    9.70    3.70
  -8  11   1    1.90    3.80
   8  11  -1    0.10    2.20
   9 -11  -1    5.50    3.30
   9  11   1    6.00    3.00
  -9  11  -1    7.60    3.40
  -9  11   1    4.10    3.70
   9 -11   1    6.90    3.00
   9  11  -1   -0.70    2.30
  10 -11  -1    4.70    2.40
  10  11   1    1.20    3.10
 -10  11  -1    2.50    2.90
 -10  11   1    4.20    3.40
  10  11  -1    9.20    2.50
  10 -11   1    6.90    2.00
   0  11   2   45.00    6.10
   0 -11   2   56.39    6.30
   0  11  -2   48.20    5.70
   0 -11  -2   41.60    5.00
   1 -11  -2   45.10    5.30
   1  11   2   47.10    7.40
  -1 -11   2   41.00    5.60
   1 -11  -2   45.90    4.70
  -1  11  -2   38.80    5.40
   1  11  -2   38.90    6.30
  -1 -11  -2   49.50    5.00
  -1  11   2   56.29    8.30
   1 -11   2   39.10    6.30
   1 -11   2   51.69    4.90
  -2 -11   2    2.90    2.90
   2  11   2    3.10    3.20
  -2  11  -2   -0.10    2.50
   2 -11  -2   -3.10    1.70
   2  11  -2    1.70    2.50
   2 -11   2    2.60    2.90
  -2  11   2    2.00    3.60
   3 -11  -2   35.00    5.80
  -3 -11   2   29.10    5.20
   3  11   2   24.40    5.70
  -3  11  -2   28.30    5.70
  -3  11   2   17.20    5.40
   3  11  -2   25.50    5.40
   3 -11   2   22.10    5.20
   4 -11  -2   14.10    4.40
  -4  11  -2   18.10    4.70
   4  11   2    8.10    4.10
  -4  11   2   10.10    4.50
   4 -11   2    8.80    3.80
   4  11  -2    9.30    3.80
   5 -11  -2   33.50    6.40
  -5  11  -2   49.80    7.60
   5  11   2   54.39    8.30
  -5  11   2   55.49    8.50
   5  11  -2   46.50    5.50
   5 -11   2   45.40    6.20
   5  11  -2   43.70    6.80
   6  11   2   13.80    5.40
   6 -11  -2   23.30    5.90
  -6  11  -2   14.80    5.20
   6 -11   2    6.50    4.00
  -6  11   2   14.80    5.10
   6  11  -2   17.30    4.60
   7  11   2   27.50    6.50
   7 -11  -2   26.30    6.10
  -7  11  -2   21.20    6.00
   7  11  -2   36.30    6.20
  -7  11   2   10.60    5.00
   7 -11   2   20.50    5.50
  -8  11  -2    2.20    3.70
   8 -11  -2   -0.40    2.70
   8  11   2    1.80    3.30
  -8  11   2    3.50    3.40
   8 -11   2    3.10    2.60
   8  11  -2    5.30    3.50
   9 -11  -2   25.30    5.10
  -9  11  -2   18.40    5.20
   9  11   2   32.10    6.20
   9  11  -2   29.90    5.80
  -9  11   2   20.50    5.70
   9 -11   2   24.90    5.30
  10  11   2   20.40    5.10
 -10  11  -2   15.00    3.80
  10 -11  -2   14.80    4.50
  10 -11   2   14.50    3.60
 -10  11   2   27.60    5.60
  10  11  -2   17.70    3.80
   0 -11  -3    2.90    2.00
   0 -11   3    1.90    2.70
   0  11   3    3.50    3.80
   0  11  -3    5.20    3.10
   1  11   3    5.00    3.90
  -1 -11   3    0.00    2.70
   1 -11  -3    1.20    2.20
  -1  11  -3    5.90    3.30
  -1  11   3    5.70    4.10
  -1 -11  -3    7.70    2.40
   1 -11   3    4.40    3.30
   1  11  -3    0.20    2.40
  -2  11  -3    2.40    3.10
  -2 -11   3    0.70    2.70
   2 -11  -3    1.70    2.50
   2  11   3    1.20    3.10
   2  11  -3   -1.50    2.10
   2 -11   3    2.60    3.10
  -2  11   3    0.90    3.60
   3 -11  -3   11.40    4.10
  -3 -11   3   24.00    5.30
  -3  11  -3   26.00    5.30
   3  11   3   25.70    6.50
  -3  11   3   29.40    6.40
   3 -11   3   25.70    5.70
   3  11  -3   15.60    4.10
   4  11   3    5.40    3.60
   4 -11  -3    0.20    3.10
  -4  11  -3    1.90    2.90
   4 -11   3   -2.10    2.60
  -4  11   3    1.50    3.50
   4  11  -3    0.10    2.70
   4  11  -3    0.50    2.50
   5  11   3   -1.10    3.30
   5 -11  -3   -2.10    2.90
  -5  11  -3    0.40    2.60
  -5  11   3   -2.40    2.90
   5  11  -3    0.80    2.10
   5 -11   3    2.90    3.10
   5  11  -3   -1.10    2.20
   6  11   3   -4.00    2.70
  -6  11  -3    0.60    2.40
   6 -11  -3   -4.20    3.00
   6  11  -3    1.70    2.30
   6 -11   3    0.80    2.40
   6  11  -3    2.00    2.40
  -6  11   3    4.30    4.10
  -7  11  -3    9.20    3.60
   7 -11  -3    7.10    4.60
   7  11   3    9.20    4.30
   7  11  -3   12.30    3.70
  -7  11   3    8.30    4.90
   7 -11   3   10.90    3.70
   8 -11  -3    4.20    4.10
   8  11   3    0.20    3.00
  -8  11  -3   -0.50    2.70
   8 -11   3    1.00    2.20
   8  11  -3    4.00    2.20
  -8  11   3    6.90    3.90
  -9  11  -3    2.50    3.10
   9  11   3    4.60    3.30
   9 -11  -3    5.90    3.20
   9 -11   3    2.50    1.70
  -9  11   3    2.40    3.10
  10 -11  -3    5.50    2.80
 -10  11  -3    5.40    2.60
  10  11   3    1.90    3.10
  10 -11   3    4.30    2.10
 -10  11   3   12.90    3.80
   0 -11   4   17.90    4.70
   0  11   4   26.00    5.80
   0 -11  -4   25.40    4.30
   0  11  -4   24.90    4.90
  -1  11  -4   52.19    5.70
  -1 -11   4   52.39    6.60
   1  11   4   53.39    6.60
   1 -11  -4   51.59    5.50
   1 -11   4   64.39    7.00
  -1  11   4   68.19    7.40
   1  11  -4   54.59    5.50
   2  11   4    1.20    3.10
   2 -11  -4    3.10    2.60
  -2  11  -4    3.60    2.80
  -2 -11   4    0.70    2.80
   2  11  -4    2.10    2.40
   2 -11   4   -2.10    2.60
  -2  11   4   -0.90    3.90
   3  11   4   45.50    7.80
   3 -11  -4   31.60    5.70
  -3  11  -4   39.30    6.20
   3 -11   4   41.00    6.80
   3  11  -4   41.40    4.90
  -3  11   4   36.40    6.90
   4  11   4    4.20    3.80
   4 -11  -4    9.40    4.00
  -4  11  -4    5.00    2.90
   4  11  -4    7.50    3.70
  -4  11   4    0.90    3.70
   4 -11   4    6.30    3.90
   5 -11  -4   52.19    6.90
  -5  11  -4   50.29    5.80
   5  11   4   60.99    7.30
  -5  11   4   55.79    7.40
   5  11  -4   60.29    6.70
   5 -11   4   46.10    6.50
   6  11   4    2.30    3.50
   6 -11  -4    1.00    3.40
  -6  11  -4    4.10    3.00
  -6  11   4    3.10    3.80
   6 -11   4    0.20    2.80
   6  11  -4    3.50    3.20
   7 -11  -4   29.10    6.70
  -7  11  -4   47.20    5.90
   7  11   4   29.20    6.40
  -7  11   4   32.60    7.00
   7  11  -4   36.10    4.50
   7 -11   4   33.90    6.20
   8  11   4    0.30    2.90
   8 -11  -4    2.30    3.00
  -8  11  -4   14.50    3.50
   8 -11   4    3.70    2.70
  -8  11   4   14.30    4.20
   9 -11  -4   33.30    6.30
   9  11   4   44.80    6.10
  -9  11  -4   43.40    5.30
   9 -11   4   35.70    6.10
  -9  11   4   35.90    6.50
   0 -11   5    7.60    4.20
   0  11   5    6.60    4.20
   1 -11  -5   10.40    2.70
   1  11   5    5.90    3.90
  -1 -11   5    3.20    3.40
  -1  11   5   10.00    4.60
   1 -11   5    6.60    3.50
   2  11   5    7.60    4.20
  -2 -11   5    7.40    4.00
   2 -11  -5   10.30    3.40
   2 -11   5   11.10    4.30
  -2  11   5    9.40    4.70
   3 -11  -5   -2.90    2.00
   3  11   5   -0.50    3.10
  -3  11   5    4.20    4.30
   3 -11   5   -0.80    2.90
   3  11  -5    1.70    3.10
   4 -11  -5    6.20    3.60
   4  11   5   19.40    5.70
  -4  11   5    4.30    3.80
   4 -11   5   20.20    5.20
   4  11  -5   10.50    4.50
   5 -11  -5    9.60    4.00
   5  11   5   15.60    5.40
  -5  11   5   19.40    6.00
   5 -11   5   13.40    4.50
   5  11  -5    2.50    3.30
   6 -11  -5    4.20    3.60
   6  11   5    7.50    4.10
  -6  11   5    3.30    4.10
   6  11  -5    0.30    3.20
   6 -11   5   -1.60    2.60
   7 -11  -5    3.50    3.50
   7  11   5    2.60    3.20
   7  11  -5   13.50    3.40
   7 -11   5   -1.30    2.00
  -7  11   5    2.60    3.30
   8  11   5   20.10    4.70
   8 -11  -5   17.80    4.50
  -8  11   5   15.80    4.60
   9  11   5    9.70    3.30
   9 -11  -5    3.00    2.90
  -9  11   5    5.30    2.80
   0  11   6    2.70    3.40
   0 -11   6    3.40    3.60
   1  11   6   25.70    6.10
  -1 -11   6   25.40    6.10
   1 -11   6   17.80    5.50
  -1  11   6   29.20    6.10
   2 -11  -6    4.90    2.00
   2  11   6    6.70    4.30
   2 -11   6   -0.10    3.50
  -2  11   6    3.10    3.70
   2  11  -6    0.50    3.50
   3  11   6   20.80    5.20
   3 -11  -6   12.20    3.90
  -3  11   6   23.00    5.70
   3  11  -6   20.50    5.50
   3 -11   6   24.00    5.60
   4 -11  -6   18.20    4.20
   4  11   6    3.90    3.20
   4  11  -6   -4.10    3.10
  -4  11   6    3.10    3.60
   4 -11   6    3.00    3.30
   5  11   6   19.40    5.50
   5 -11  -6   15.30    4.20
   5 -11   6   16.80    4.70
  -5  11   6   17.10    5.00
   5  11  -6   23.60    5.70
   6 -11  -6   -0.40    2.50
   6  11   6    0.70    2.70
   6  11  -6   -0.80    3.40
   6 -11   6   -1.70    2.40
  -6  11   6    4.70    3.70
   7 -11  -6   26.10    5.40
   7  11   6   19.80    4.80
   7 -11   6   17.30    4.30
   7  11  -6   17.20    4.20
  -7  11   6   11.30    4.40
   8  11   6   11.40    3.50
   8  11  -6   11.50    3.00
  -8  11   6    7.50    2.90
   0 -11   7    0.30    3.10
   0  11   7   -4.20    2.30
   1  11   7    1.00    3.50
   1 -11   7    1.40    3.00
   1  11  -7    2.70    4.10
  -1  11   7    0.10    2.90
   2  11   7   -1.40    2.40
   2  11  -7    0.90    3.20
   2 -11   7    1.30    3.10
  -2  11   7    7.00    4.00
   3  11   7    3.50    3.20
  -3  11   7    6.00    3.80
   3 -11   7    1.30    3.00
   3  11  -7    3.60    3.80
   4  11   7   -0.70    2.30
   4 -11  -7    2.60    2.40
   4  11  -7   -3.00    2.70
   4 -11   7    1.80    2.60
  -4  11   7    3.70    3.30
   5  11   7    1.30    2.50
   5 -11  -7    4.90    2.60
   5 -11   7    5.30    3.40
  -5  11   7    9.80    3.60
   5  11  -7    8.90    3.90
   6  11   7    3.50    2.80
   6 -11  -7    2.10    2.20
   6 -11   7    5.60    2.90
   6  11  -7    9.60    3.60
  -6  11   7    9.00    3.50
   7  11   7   10.70    3.40
   7 -11  -7    5.40    2.80
   7 -11   7    6.00    2.80
  -7  11   7    4.20    2.70
   7  11  -7    9.40    3.20
   8 -11  -7    1.50    2.00
  -8  11   7   -3.30    2.10
   0  11  -8   35.30    7.50
   0  11   8   50.79    5.60
   1  11   8   36.50    5.10
   1  11  -8   24.80    6.30
  -1  11   8   33.70    4.70
   2  11   8    5.80    2.40
   2 -11   8    0.40    3.10
   2  11  -8    1.60    3.50
  -2  11   8    8.40    2.90
   3  11   8   21.20    4.90
   3 -11   8   14.90    4.60
  -3  11   8   16.40    4.20
   3  11  -8   19.60    5.20
   4  11   8   24.70    4.80
   4 -11   8    8.20    3.50
   4  11  -8   11.00    4.50
  -4  11   8    6.60    3.80
   5 -11  -8   39.80    4.90
   5  11   8   49.10    5.50
   5  11  -8   51.09    6.60
   5 -11   8   43.50    5.70
   6 -11  -8   20.80    4.00
   6  11   8   26.30    5.00
   6  11  -8   17.40    4.50
   6 -11   8   17.70    3.80
   7 -11  -8    8.80    3.00
   7  11  -8   16.50    4.00
   0  11  -9    4.90    3.60
  -1  11  -9   14.50    5.10
   1  11  -9   14.50    4.80
  -2  11  -9    5.90    3.50
   2  11  -9    3.60    3.50
  -3  11  -9   12.20    3.90
   3  11  -9   10.90    4.50
   4  11  -9    5.00    3.90
   5  11  -9   11.30    3.90
   0  11 -10    9.90    3.70
  -1  11 -10   24.90    5.70
   1  11 -10   19.80    5.30
   2  11 -10    5.20    3.20
  -3  11 -10   32.50    4.00
   3  11 -10   27.40    5.50
   4  11 -10   10.20    3.40
   0  12   0    3.30    3.60
   0 -12   0    3.40    2.90
  -1 -12   0  479.65   22.60
   1 -12   0  494.35   23.10
  -1  12   0  509.75   24.10
   1  12   0  498.55   23.90
  -2  12   0  887.31   37.20
   2 -12   0  841.02   35.90
  -2 -12   0  805.62   34.80
   2  12   0  852.61   36.60
   3 -12   0  318.17   17.50
  -3  12   0  324.67   18.00
  -3 -12   0  327.97   16.40
   3  12   0  346.17   18.20
   4 -12   0    3.20    3.20
  -4  12   0    3.20    3.60
   4  12   0    3.00    3.50
   5 -12   0  433.76   21.90
   5  12   0  424.06   21.80
  -5  12   0  423.16   22.00
  -6  12   0  579.44   27.90
   6  12   0  567.54   27.30
   6 -12   0  576.94   27.40
   7  12   0  232.38   14.90
  -7  12   0  252.37   15.70
   7 -12   0  254.77   15.30
  -8  12   0   17.00    4.60
   8 -12   0   10.00    3.70
   8  12   0    1.20    2.40
   9  12   0  196.88   13.20
  -9  12   0  189.58   13.60
   9 -12   0  223.98   13.60
   0 -12   1  138.39   10.20
   0 -12  -1  160.68   10.30
   0  12   1  158.18   11.20
   0  12  -1  167.38   11.00
  -1 -12   1  322.67   17.00
  -1  12  -1  335.37   17.80
   1 -12  -1  341.87   17.20
   1  12   1  338.27   18.10
  -1  12   1  307.97   17.80
   1  12  -1  343.47   17.70
   1 -12   1  343.47   17.70
  -1 -12  -1  330.07   16.60
  -2  12  -1  168.48   11.20
  -2 -12   1  146.09   10.10
   2 -12  -1  134.69   10.00
   2  12   1  154.28   11.00
   2 -12   1  156.38   10.70
  -2  12   1  137.29   10.80
   2  12  -1  122.99    9.90
  -2 -12  -1  156.18    9.50
  -3  12  -1  227.38   13.30
   3 -12  -1  186.68   12.60
  -3 -12   1  208.58   12.30
   3  12   1  189.58   13.00
  -3  12   1  186.48   13.00
   3  12  -1  217.98   13.30
   3 -12   1  221.08   13.30
   4  12   1  112.19    9.30
   4 -12  -1   87.39    8.50
  -4  12  -1  101.79    9.00
   4  12  -1   95.79    8.50
   4 -12   1  106.29    9.10
  -4  12   1   95.39    9.00
  -5  12  -1  286.17   16.30
   5  12   1  277.17   16.20
   5 -12  -1  288.27   16.30
   5 -12   1  226.58   15.30
   5  12  -1  284.47   15.90
  -5  12   1  279.67   16.50
  -6  12  -1   91.39    8.60
   6  12   1   66.09    7.50
   6 -12  -1   60.09    7.60
   6  12  -1   73.99    7.30
   6 -12   1   63.09    7.50
  -6  12   1   71.19    8.10
   7  12   1  136.59   10.80
  -7  12  -1  129.19   10.80
   7 -12  -1  163.38   11.30
  -7  12   1  115.99   10.50
   7 -12   1  145.99   10.80
   7  12  -1  117.49    9.80
   8  12   1   69.09    7.30
   8 -12  -1   68.69    7.60
  -8  12  -1   72.79    7.70
   8 -12   1   76.29    7.60
  -8  12   1   81.49    8.20
   8  12  -1   76.79    7.30
  -9  12  -1  169.18   11.90
   9 -12  -1  153.38   11.00
   9  12   1  143.99   10.90
   9 -12   1  152.58   10.90
  -9  12   1  139.59   11.30
   9  12  -1  140.89   10.30
   0  12  -2  860.21   35.80
   0  12   2  832.52   36.40
   0 -12   2  795.72   35.10
   0 -12  -2  824.92   34.40
   1  12   2  348.07   19.10
  -1  12  -2  366.86   18.90
   1 -12  -2  350.06   18.00
  -1 -12   2  431.96   19.40
  -1 -12  -2  361.46   17.50
   1  12  -2  344.17   18.50
   1 -12   2  364.06   18.90
  -1  12   2  358.16   19.50
   2  12   2    4.70    3.70
  -2  12  -2   10.00    4.10
  -2 -12   2    6.70    3.40
   2 -12  -2    4.30    3.00
   2 -12   2    1.50    3.10
   2  12  -2    4.80    3.10
  -2  12   2    6.30    4.00
   3 -12  -2  416.06   20.40
   3  12   2  414.76   21.20
  -3 -12   2  406.26   20.00
  -3  12  -2  395.16   20.30
  -3  12   2  403.06   21.00
   3 -12   2  391.96   20.20
   3  12  -2  379.56   19.90
  -4  12  -2  652.73   29.50
   4 -12  -2  660.73   29.50
   4  12   2  683.03   30.20
  -4  12   2  595.44   29.60
   4  12  -2  635.44   29.20
   4 -12   2  630.74   29.40
   5 -12  -2  264.67   15.50
  -5  12  -2  245.48   14.90
   5  12   2  238.18   15.20
   5  12  -2  284.37   15.10
   5  12  -2  283.27   14.50
  -5  12   2  199.18   14.70
   5 -12   2  252.17   15.10
   6 -12  -2    5.40    3.90
  -6  12  -2    4.80    3.50
   6  12   2    9.90    4.40
   6  12  -2   15.30    3.80
  -6  12   2    9.20    4.20
   6 -12   2    8.10    3.50
   7 -12  -2  238.98   15.30
  -7  12  -2  223.38   14.80
   7  12   2  254.17   15.50
   7  12  -2  238.88   14.30
  -7  12   2  244.58   15.50
   7 -12   2  259.77   15.10
   8 -12  -2  450.35   22.70
  -8  12  -2  436.76   22.30
   8  12   2  424.06   22.20
   8  12  -2  397.26   21.20
   8 -12   2  420.66   21.60
  -8  12   2  431.16   22.90
   9  12   2  206.68   13.30
  -9  12  -2  194.28   13.00
   9 -12  -2  198.38   13.00
  -9  12   2  207.88   13.60
   9  12  -2  193.88   12.30
   9 -12   2  174.78   12.00
   0  12   3  204.98   13.00
   0  12  -3  181.08   11.40
   0 -12  -3  159.08   10.30
   0 -12   3  184.38   12.10
  -1 -12   3  192.98   12.90
  -1  12  -3  214.88   12.70
   1 -12  -3  196.38   12.00
   1  12   3  198.78   13.40
  -1  12   3  214.68   13.80
   1 -12   3  208.58   13.10
   1  12  -3  213.08   12.50
   2 -12  -3   76.69    7.50
  -2  12  -3  116.99    8.70
   2  12   3  118.69    9.50
  -2  12   3   78.19    8.60
   2 -12   3   97.39    8.70
   2  12  -3  101.89    8.20
  -3  12  -3  174.58   11.20
   3 -12  -3  148.89   10.70
  -3 -12   3  149.39   10.90
   3  12   3  179.28   12.20
   3 -12   3  153.38   11.30
  -3  12   3  154.68   11.80
   3  12  -3  156.68   10.50
   4  12   3  119.79    9.90
   4 -12  -3   91.19    8.40
  -4  12  -3  116.89    8.80
   4  12  -3   77.59    7.90
   4 -12   3  102.89    9.20
  -4  12   3  104.29    9.40
   4  12  -3  102.09    8.20
   5 -12  -3  192.88   12.90
   5  12   3  186.28   13.00
  -5  12  -3  201.48   12.40
   5 -12   3  181.18   12.50
   5  12  -3  201.48   12.10
   5  12  -3  173.38   11.50
  -5  12   3  182.78   13.10
   6  12   3  109.89    9.50
   6 -12  -3  103.29    9.40
  -6  12  -3  104.09    8.90
   6 -12   3  108.59    9.30
   6  12  -3   97.89    8.00
  -6  12   3  100.89    9.60
   7 -12  -3   94.09    9.10
   7  12   3  106.99    9.40
  -7  12  -3   89.29    8.20
  -7  12   3  110.49    9.70
   7 -12   3   96.69    8.60
   7  12  -3   92.99    8.60
  -8  12  -3   54.99    6.10
   8  12   3   47.00    6.20
   8 -12  -3   51.99    6.40
  -8  12   3   37.80    7.10
   8 -12   3   39.40    5.10
   9 -12  -3  122.59    9.80
  -9  12  -3  107.89    8.80
   9  12   3  102.39    9.10
  -9  12   3   98.89    9.10
   9 -12   3  114.69    8.60
   0  12   4    3.80    4.10
   0 -12   4    1.80    3.40
   0  12  -4    2.50    2.00
   1  12   4  369.06   19.60
   1 -12  -4  349.47   17.50
  -1 -12   4  345.17   19.00
  -1  12  -4  350.16   17.80
  -1  12   4  392.36   20.10
   1 -12   4  352.66   19.00
  -2  12  -4  633.14   27.80
  -2 -12   4  606.44   28.50
   2 -12  -4  588.54   27.20
   2  12   4  601.64   28.90
   2 -12   4  630.04   28.60
  -2  12   4  654.23   29.60
   3  12   4  364.36   19.70
  -3  12  -4  350.46   18.20
   3 -12  -4  372.16   18.60
  -3  12   4  351.06   19.70
   3 -12   4  344.27   19.00
   4 -12  -4    2.80    3.40
   4  12   4    6.00    4.00
  -4  12  -4    0.60    2.70
   4 -12   4    3.00    3.50
  -4  12   4    2.70    3.90
   4  12  -4    3.50    3.00
   5  12   4  286.87   17.10
  -5  12  -4  292.97   16.00
   5 -12  -4  298.07   17.00
   5 -12   4  298.47   16.90
  -5  12   4  300.37   17.50
   5  12  -4  277.87   16.10
  -6  12  -4  538.05   24.90
   6 -12  -4  508.75   25.50
   6  12   4  526.45   25.80
   6 -12   4  524.25   25.20
  -6  12   4  514.05   25.90
   6  12  -4  502.25   24.10
  -7  12  -4  231.88   14.10
   7 -12  -4  244.98   15.20
   7  12   4  239.88   15.10
   7 -12   4  232.88   14.50
  -7  12   4  263.77   15.80
  -8  12  -4   10.00    2.80
   8 -12  -4    9.20    3.60
   8  12   4   10.30    3.50
  -8  12   4   13.80    4.60
   8 -12   4    5.30    2.80
   0 -12   5   56.79    8.50
   0  12   5   53.39    7.00
   1  12   5  285.47   16.40
  -1 -12   5  274.57   16.20
  -1  12   5  281.17   16.50
   1 -12   5  245.88   15.90
   2  12   5  120.49   10.00
   2 -12  -5  117.69    8.60
  -2  12   5  105.69   10.10
   2 -12   5  124.19   10.10
   3 -12  -5  173.98   11.20
   3  12   5  183.28   12.50
  -3  12   5  164.28   12.40
   3 -12   5  186.88   12.50
   3  12  -5  163.78   12.10
   4  12   5  117.19    9.60
   4 -12  -5   77.69    7.60
  -4  12   5   84.39    8.80
   4 -12   5   91.09    8.70
   4  12  -5   88.49    8.70
   5  12   5  283.27   16.50
   5 -12  -5  252.27   15.70
   5  12  -5  259.97   15.70
   5 -12   5  300.17   16.40
  -5  12   5  273.87   16.50
   6 -12  -5   54.79    7.00
   6  12   5   84.49    8.00
  -6  12   5   73.89    8.00
   6 -12   5   68.39    7.30
   6  12  -5   63.09    6.40
   7 -12  -5  123.19   10.30
   7  12   5  143.89   10.70
   7  12  -5  140.59    9.60
   7 -12   5  144.79   10.20
  -7  12   5  112.79    9.90
   8  12   5   80.29    7.60
   8 -12  -5   73.49    7.50
   8 -12   5   59.49    6.50
  -8  12   5   64.19    7.00
   0 -12   6  598.84   28.50
   1  12   6  334.87   18.50
   1 -12   6  332.37   18.70
  -1  12   6  331.27   18.60
   2  12   6    6.20    4.20
  -2  12   6    1.50    3.70
   2 -12   6   14.40    4.70
   2  12  -6    5.10    4.30
   3  12   6  224.98   14.40
   3 -12  -6  230.68   13.30
   3  12  -6  237.48   14.90
   3 -12   6  234.88   14.70
  -3  12   6  220.68   14.60
   4  12   6  559.44   27.30
   4 -12  -6  566.44   26.40
   4 -12   6  582.94   27.20
   4  12  -6  561.84   27.30
  -4  12   6  566.14   27.60
   5  12   6  307.57   17.20
   5 -12  -6  290.97   16.70
   5 -12   6  280.87   16.70
   5  12  -6  283.47   16.80
  -5  12   6  328.07   18.10
   6  12   6   11.90    3.30
   6 -12  -6    3.00    2.80
   6  12  -6    9.90    3.70
   6 -12   6    8.70    3.60
  -6  12   6    1.50    3.10
   7 -12  -6  179.08   12.60
   7  12   6  187.68   12.70
   7 -12   6  183.38   12.10
  -7  12   6  202.68   13.00
   0  12   7   86.59    8.20
   1  12   7  140.89   10.90
   1 -12   7  147.89   11.50
   1  12  -7  152.98   11.50
  -1  12   7  132.39   10.70
   2  12   7   83.09    8.10
   2 -12   7   68.49    7.90
   2  12  -7   84.29    8.60
  -2  12   7   66.49    7.60
   3  12   7  102.69    9.00
  -3  12   7   96.89    8.80
   3 -12   7  109.99    9.50
   3  12  -7  106.89    9.60
   4 -12  -7   66.19    6.40
   4  12   7   77.59    7.60
  -4  12   7   66.89    7.40
   4 -12   7   68.89    7.70
   4  12  -7   90.69    8.00
   5  12   7  141.49   10.50
   5 -12  -7  129.69    9.90
  -5  12   7  135.79   10.50
   5  12  -7  167.38   11.40
   5 -12   7  156.68   11.10
   6 -12  -7   74.79    7.20
   6  12   7   94.79    7.80
   6  12  -7   83.79    7.60
   6 -12   7   74.89    7.40
  -6  12   7   73.39    7.50
   0  12  -8    1.20    3.20
   0  12   8    3.50    2.70
  -1  12  -8  213.78   14.10
   1  12   8  232.18   13.70
  -1  12   8  216.78   13.40
   1  12  -8  206.08   14.10
   2  12   8  359.16   19.30
   2  12  -8  390.86   20.80
  -2  12   8  382.96   19.90
   3  12   8  275.27   15.20
   3  12  -8  271.17   16.20
   3 -12   8  244.78   15.40
  -3  12   8  243.28   14.80
   4  12   8   17.00    4.60
   4  12  -8   12.20    4.40
   5  12   8  169.48   11.10
   5 -12   8  150.88   11.10
   5  12  -8  164.58   11.80
   0  12  -9   65.79    7.40
  -1  12  -9  141.29   10.90
   1  12  -9  138.69   11.20
  -2  12  -9   60.99    6.60
   2  12  -9   40.90    7.20
  -3  12  -9   95.69    8.20
   3  12  -9  112.79    9.20
   4  12  -9   58.59    6.80
   0  13   0    1.20    3.30
   0 -13   0    2.90    2.60
   1  13   0   29.00    6.40
  -1  13   0   45.40    7.90
  -1 -13   0   30.20    5.40
   1 -13   0   39.60    6.60
  -2 -13   0   82.89    7.30
   2 -13   0   74.59    7.60
  -2  13   0   74.09    7.80
   2  13   0   75.69    7.90
  -3  13   0   26.50    6.30
   3  13   0   40.60    7.70
   3 -13   0   32.10    6.10
   4 -13   0   15.90    4.70
  -4  13   0   16.80    5.40
   4  13   0   22.30    6.00
  -5  13   0   34.60    6.90
   5 -13   0   38.50    6.70
   5  13   0   24.30    5.90
  -6  13   0    8.70    4.00
   6 -13   0    4.50    3.00
   6  13   0   10.00    3.90
  -7  13   0   23.30    5.60
   7  13   0   12.90    4.40
   7 -13   0   28.70    6.00
  -8  13   0   53.39    6.40
   8 -13   0   58.79    6.30
   8  13   0   37.20    5.40
   0 -13  -1    5.80    2.80
   0  13   1    3.20    3.90
   0  13  -1   16.60    5.10
   0 -13   1   11.70    3.90
  -1 -13   1    8.70    3.70
   1 -13  -1    5.50    3.10
   1  13   1    6.90    4.40
  -1  13  -1    4.90    3.70
   1 -13   1    2.00    3.10
   1  13  -1   10.70    4.50
  -1  13   1    7.00    4.60
  -1 -13  -1    6.50    2.80
  -2  13  -1    0.10    2.90
   2  13   1   -1.80    2.80
  -2 -13   1    2.20    2.50
   2 -13  -1    2.20    2.30
   2  13  -1    6.50    3.60
   2 -13   1    9.40    3.90
  -2  13   1    6.30    4.40
   3  13   1    0.00    3.20
  -3  13  -1    3.40    4.00
   3 -13  -1    0.00    2.40
  -3 -13   1   -0.40    1.80
  -3  13   1   -2.30    3.70
   3  13  -1    4.70    3.00
   3 -13   1    3.10    3.10
   4  13   1    6.10    4.40
  -4  13  -1    5.30    3.80
   4 -13  -1   -0.10    3.00
   4  13  -1    2.80    3.00
   4 -13   1    1.60    2.80
  -4  13   1    3.40    3.70
  -5  13  -1    7.20    4.00
   5 -13  -1    4.50    3.80
   5  13   1    1.20    3.30
   5 -13   1    3.50    2.90
  -5  13   1    4.40    3.90
   5  13  -1    4.20    3.50
  -6  13  -1    7.00    3.80
   6 -13  -1   -0.40    2.70
   6  13   1    4.80    3.10
  -6  13   1   11.50    4.00
   6 -13   1    0.20    2.10
   6  13  -1    5.00    3.10
   7 -13  -1    4.20    3.00
  -7  13  -1   10.30    3.90
   7  13   1    6.10    2.90
   7  13  -1    8.70    3.10
   7 -13   1    0.90    2.30
  -7  13   1    6.40    3.70
   8 -13  -1    5.90    2.50
  -8  13  -1    2.10    2.60
   8  13   1    7.40    2.80
   8 -13   1    3.90    2.10
  -8  13   1    6.40    3.20
   8  13  -1    3.60    2.50
   0 -13   2    9.10    3.90
   0  13   2    3.60    3.50
   0 -13  -2    5.40    2.70
   0  13  -2    9.70    3.70
  -1 -13   2   50.29    7.60
   1 -13  -2   45.50    5.10
   1  13   2   37.70    7.60
  -1  13  -2   44.20    7.20
  -1  13   2   48.30    8.20
   1  13  -2   39.20    5.30
   1 -13   2   35.80    6.60
  -2 -13   2    8.20    3.70
   2  13   2    8.10    4.60
  -2  13  -2   13.10    4.00
   2 -13  -2   10.70    3.30
   2  13  -2   10.10    3.80
   2 -13   2    3.40    3.40
  -2  13   2   10.40    5.30
   3  13   2   22.50    6.50
  -3 -13   2   30.90    5.80
  -3  13  -2   38.00    6.80
   3 -13  -2   21.80    5.40
  -3  13   2   36.70    7.30
   3 -13   2   20.40    5.30
   3  13  -2   35.80    6.00
   4  13   2    3.90    3.80
   4 -13  -2   -2.60    2.20
  -4  13  -2    1.30    3.10
   4 -13   2    0.80    3.20
   4  13  -2    7.00    2.20
  -4  13   2   -1.30    4.00
   4  13  -2    6.70    2.80
   5 -13  -2   26.20    5.60
  -5  13  -2   30.60    6.40
   5  13   2   51.79    8.30
   5 -13   2   43.80    6.00
  -5  13   2   36.40    7.50
   5  13  -2   38.90    6.40
   6  13   2    3.10    2.70
  -6  13  -2    7.30    3.10
   6 -13  -2    3.30    2.80
   6 -13   2    9.30    3.30
  -6  13   2    4.60    4.00
   6  13  -2    6.50    2.90
   7 -13  -2   15.90    4.60
  -7  13  -2   15.80    4.50
   7  13   2   25.60    5.60
  -7  13   2   14.40    5.10
   7  13  -2   21.10    4.50
   7 -13   2   21.90    5.00
   8 -13  -2    6.20    2.90
   8  13   2    7.10    3.20
  -8  13  -2    9.30    3.30
   8 -13   2    3.80    1.90
  -8  13   2    4.40    3.00
   8  13  -2    7.60    2.50
   0  13   3    6.80    4.40
   0 -13   3    7.10    3.90
   0  13  -3   12.60    3.70
   1 -13  -3    0.20    1.50
  -1 -13   3    4.80    3.40
  -1  13  -3    3.00    2.80
   1  13   3    5.40    4.00
   1 -13   3    2.40    2.70
   1  13  -3   -0.30    1.90
  -1  13   3   -2.00    3.30
  -2 -13   3    0.90    2.50
  -2  13  -3    5.00    2.80
   2  13   3    6.40    4.30
   2 -13  -3   10.40    3.20
   2 -13   3   -1.40    2.90
  -2  13   3   -1.90    3.00
   2  13  -3    5.00    2.90
   3 -13  -3   20.50    4.40
   3  13   3   16.40    5.60
  -3  13  -3   17.90    4.60
  -3  13   3   27.40    6.90
   3 -13   3   12.20    4.70
   3  13  -3   13.90    3.90
   4 -13  -3    4.10    3.10
  -4  13  -3    5.20    3.70
   4  13   3   12.30    4.70
   4 -13   3    3.50    3.40
  -4  13   3    5.60    4.00
   4  13  -3   10.60    3.30
   4  13  -3   10.70    3.40
   5  13   3    0.00    3.20
  -5  13  -3    6.40    3.00
   5 -13  -3    1.10    2.50
   5 -13   3    4.10    3.10
  -5  13   3    4.80    3.60
   5  13  -3    2.50    2.00
   6 -13  -3    8.50    3.10
  -6  13  -3    2.60    2.60
   6  13   3   13.00    4.50
  -6  13   3    6.00    4.00
   6 -13   3    7.80    3.20
   7  13   3    9.40    3.80
   7 -13  -3    4.50    2.70
  -7  13  -3    9.10    2.60
  -7  13   3    3.30    3.20
   7 -13   3    3.60    2.70
   0 -13   4    3.50    3.80
   0  13   4    4.60    4.00
   1  13   4   31.80    6.80
  -1 -13   4   17.50    5.30
   1 -13   4   26.60    6.20
  -1  13   4   36.50    7.60
   2 -13  -4   41.60    6.30
  -2 -13   4   22.60    5.50
   2  13   4   26.70    6.40
  -2  13   4   50.39    8.80
   2 -13   4   28.00    6.20
   3  13   4   28.40    6.40
   3 -13  -4   15.40    3.60
   3  13  -4   24.10    5.60
  -3  13   4   31.80    7.00
   3 -13   4   26.30    5.90
   4 -13  -4    4.70    2.70
   4  13   4   17.20    4.90
   4 -13   4   11.70    4.20
  -4  13   4   13.20    5.10
   4  13  -4   13.50    4.40
   5 -13  -4   34.80    6.20
   5  13   4   42.90    6.10
  -5  13   4   36.80    7.20
   5 -13   4   28.30    6.20
   5  13  -4   45.50    5.00
   6  13   4   17.00    5.00
   6 -13  -4    5.90    2.90
   6 -13   4   11.30    4.10
  -6  13   4   18.70    5.40
   7 -13  -4   19.30    4.00
   7  13   4   20.40    4.40
   7 -13   4   13.90    4.10
  -7  13   4   26.60    6.00
   0  13   5    6.90    3.90
   0 -13   5   -4.10    2.60
   1  13   5   10.40    4.80
  -1 -13   5    8.20    4.40
  -1  13   5   10.30    4.60
   1 -13   5    1.80    3.30
   2  13   5   -3.00    2.70
   2 -13   5    4.10    3.60
  -2  13   5    3.70    3.20
   3 -13  -5   13.10    3.20
   3  13   5   -1.90    2.40
   3 -13   5    2.50    3.30
   3  13  -5    5.00    3.30
  -3  13   5    0.70    3.20
   4  13   5    9.60    3.60
   4 -13  -5   14.70    3.50
   4  13  -5    3.60    2.80
  -4  13   5    4.40    3.70
   4 -13   5    3.70    3.40
   5  13   5   19.10    4.90
   5  13  -5   13.00    3.20
  -5  13   5   17.50    4.90
   5 -13   5    6.30    3.90
   6 -13  -5    8.30    3.20
   6  13   5   10.10    3.60
   6 -13   5    3.60    2.80
  -6  13   5    6.40    3.60
   0 -13   6    1.70    3.50
   0  13   6   -1.30    2.80
   1  13   6   30.60    6.60
  -1  13   6   29.40    5.90
   1 -13   6   37.60    7.20
   2  13   6   45.90    6.20
  -2  13   6   40.90    7.40
   2  13  -6   47.00    6.50
   2 -13   6   39.10    7.50
   3  13   6   29.20    5.80
   3 -13   6   14.60    4.70
   3  13  -6   40.80    5.40
  -3  13   6   29.20    6.20
   4 -13  -6   25.70    3.50
   4  13   6   16.30    4.20
   4 -13   6    9.80    4.30
  -4  13   6   16.40    5.00
   4  13  -6   13.00    4.20
   5  13   6   25.40    5.20
   5 -13  -6   21.40    4.50
   5 -13   6   22.00    5.30
  -5  13   6   27.20    5.80
   6 -13  -6    3.00    2.40
   6  13   6    8.60    3.60
  -6  13   6    5.40    3.40
   6  13  -6    9.80    2.60
   6 -13   6    2.00    2.10
   0  13   7   11.50    4.30
   0  13  -7    2.50    3.40
   1  13   7    3.50    2.90
  -1  13   7    7.70    3.30
   1 -13   7    5.20    3.70
   1  13  -7    8.60    4.10
   2  13   7    3.40    2.90
   2 -13   7    9.00    4.10
   2  13  -7    4.80    3.30
  -2  13   7    9.90    3.60
   3  13   7   19.60    4.80
   3  13  -7   13.50    4.80
   3 -13   7   17.50    4.80
  -3  13   7   10.90    3.70
   4  13   7   11.30    3.20
   4 -13   7    4.00    3.10
   4  13  -7   12.60    4.00
  -4  13   7    7.80    3.50
   0  13  -8    5.40    3.30
   0  13   8    7.40    3.00
  -1  13  -8   26.60    5.30
   1  13   8   25.40    5.20
  -1  13   8   22.40    5.00
   1  13  -8   27.50    5.90
   2  13   8    9.50    3.50
  -2  13   8   10.40    3.20
   3  13   8   16.40    4.00
   0  14   0  790.92   35.50
   0 -14   0  789.42   34.20
  -1 -14   0  137.89    9.90
   1 -14   0  147.29   10.70
  -1  14   0  147.79   11.30
   1  14   0  146.69   11.10
   2  14   0   43.70    7.60
  -2  14   0   49.40    8.20
   2 -14   0   38.70    6.70
  -3  14   0   98.89    8.90
   3 -14   0   77.59    8.00
   3  14   0   82.89    8.20
   4  14   0  731.73   32.80
   4 -14   0  682.03   32.00
  -4  14   0  707.33   32.70
   5 -14   0  113.39    9.60
  -5  14   0  123.49   10.20
   5  14   0  144.09   10.50
  -6  14   0   18.30    5.10
   6 -14   0   27.40    5.50
   6  14   0   21.60    5.10
   0 -14  -1   34.10    5.90
   0 -14   1   31.60    6.00
   0  14  -1   33.70    6.40
   0  14   1   36.90    7.50
  -1  14  -1  233.98   15.00
   1  14   1  235.88   15.30
  -1 -14   1  264.17   15.10
   1 -14  -1  251.97   14.60
   1  14  -1  256.27   15.30
   1 -14   1  292.97   15.80
  -1  14   1  244.38   15.70
  -2  14  -1   21.90    5.50
   2 -14  -1   16.20    4.60
  -2 -14   1   17.60    4.20
   2  14   1   25.70    6.50
  -2  14   1    8.40    4.60
   2  14  -1    8.50    3.70
   2 -14   1   18.90    5.10
   3  14   1  278.77   16.40
  -3  14  -1  269.07   16.20
   3 -14  -1  260.97   15.70
   3  14  -1  264.07   15.70
  -3  14   1  278.57   16.70
   3 -14   1  286.77   16.40
  -4  14  -1   17.70    5.40
   4  14   1   24.10    5.60
   4 -14  -1   21.00    5.10
   4  14  -1   14.10    4.30
  -4  14   1   26.00    6.20
   4 -14   1   15.60    4.50
   5  14   1  185.98   12.50
   5 -14  -1  170.08   12.00
  -5  14  -1  160.68   12.10
  -5  14   1  186.68   13.00
   5 -14   1  174.38   12.10
   5  14  -1  185.78   12.10
   6  14   1    8.90    3.20
   6 -14  -1    5.90    3.20
  -6  14  -1    9.80    3.60
   6 -14   1    7.20    2.80
   6  14  -1   13.20    3.60
  -6  14   1    6.80    4.30
   0  14  -2   39.90    6.90
   0 -14   2   25.20    5.60
   0 -14  -2   29.70    5.40
   0  14   2   34.00    7.60
   1  14   2   80.69    8.50
  -1 -14   2   71.99    7.80
  -1  14  -2   79.19    7.60
   1 -14  -2   79.09    7.30
   1  14  -2   83.79    7.80
   1 -14   2   92.09    8.60
  -1  14   2   84.49    8.90
  -2 -14   2  748.43   33.70
   2 -14  -2  763.42   33.50
   2  14   2  794.62   35.40
  -2  14  -2  782.32   34.40
  -2  14   2  782.22   35.40
   2  14  -2  730.03   33.90
   2 -14   2  785.52   34.40
  -3  14  -2  116.89    9.50
   3  14   2  109.09    9.80
   3 -14  -2  122.89    9.40
   3  14  -2  126.09    9.30
  -3  14   2  116.49   10.30
   3 -14   2  115.39   10.00
   4  14   2   36.40    6.50
  -4  14  -2   26.60    6.10
   4 -14  -2   31.40    5.50
   4  14  -2   35.40    6.30
  -4  14   2   36.00    7.00
   4 -14   2   26.00    5.80
   5  14   2   54.59    6.90
   5 -14  -2   62.59    6.70
  -5  14  -2   47.10    6.40
   5  14  -2   64.29    6.20
   5 -14   2   64.59    7.30
  -5  14   2   53.19    7.20
   6  14   2  566.94   26.60
  -6  14  -2  527.75   25.90
   6 -14  -2  512.65   25.70
   6 -14   2  541.75   26.00
   6  14  -2  512.55   25.20
  -6  14   2  552.94   26.90
   0  14   3   50.39    6.90
   0  14  -3   47.90    5.40
   0 -14   3   48.30    7.70
   1 -14  -3  297.37   17.10
   1  14   3  305.17   17.80
  -1  14  -3  301.67   16.40
  -1 -14   3  292.67   17.10
  -1  14   3  300.77   17.80
   1  14  -3  286.87   16.20
   1 -14   3  315.97   17.60
  -2 -14   3    7.90    3.60
   2  14   3   13.70    5.10
   2 -14  -3    5.40    2.20
  -2  14  -3   20.10    4.90
   2  14  -3    5.40    2.80
  -2  14   3   14.40    5.10
   2 -14   3    3.40    3.30
   3 -14  -3  311.57   17.00
   3  14   3  335.27   18.60
  -3  14  -3  322.37   17.50
   3 -14   3  342.57   18.30
  -3  14   3  281.07   18.00
   4  14   3   37.60    6.90
   4 -14  -3   15.20    3.90
  -4  14  -3   33.90    4.80
   4 -14   3   17.30    5.10
  -4  14   3   17.80    5.80
   4  14  -3   19.90    4.10
   5  14   3  234.18   14.40
  -5  14  -3  189.68   12.90
   5 -14  -3  212.58   13.50
   5 -14   3  213.38   13.80
  -5  14   3  214.38   14.30
   6  14   3   29.90    5.80
   6 -14  -3   20.70    4.60
  -6  14  -3   16.20    4.10
   6 -14   3   17.10    4.50
  -6  14   3   25.00    5.60
   0 -14   4  722.13   33.10
   0  14   4  727.83   33.60
  -1 -14   4  103.79    9.70
   1  14   4  132.29   10.50
   1 -14   4  124.49   10.40
  -1  14   4  108.89    9.70
   2  14   4   49.00    8.00
   2 -14   4   35.70    6.70
  -2  14   4   52.79    6.80
   3  14   4  114.19   10.00
   3 -14  -4  113.49    8.60
   3 -14   4  111.59    9.90
   3  14  -4  120.39    9.30
  -3  14   4   99.19    9.60
   4  14   4  733.33   32.90
   4 -14  -4  653.13   30.80
   4  14  -4  687.23   31.10
  -4  14   4  688.53   32.70
   4 -14   4  722.63   32.10
   5  14   4   67.59    7.30
   5 -14  -4   93.09    7.70
  -5  14   4   79.09    8.40
   5 -14   4   67.39    7.30
   0  14   5    8.90    4.00
   0 -14   5   10.10    3.90
   1  14   5  187.98   12.80
   1 -14   5  155.48   12.10
  -1  14   5  178.48   12.70
   2  14   5    9.00    4.00
  -2  14   5   13.50    5.00
   2  14  -5   16.80    4.40
   2 -14   5   14.10    5.00
   3  14   5  215.58   14.20
   3  14  -5  218.58   13.60
   3 -14   5  212.28   14.00
  -3  14   5  202.48   14.00
   4  14   5   26.10    6.00
   4 -14  -5   31.00    3.80
   4  14  -5   31.30    4.20
   4 -14   5   22.40    5.10
   0  14   6    6.50    3.60
   1  14   6   97.59    9.10
   1 -14   6   93.29    9.00
  -1  14   6   89.19    8.70
   1  14  -6  125.99    9.80
   2  14   6  559.34   27.40
   2  14  -6  583.84   27.50
   2 -14   6  567.74   27.50
  -2  14   6  568.14   27.60
   3  14   6   55.29    6.90
  -3  14   6   51.99    6.60
   3  14  -6   72.99    7.30
   3 -14   6   64.19    7.20
   0  14  -7   19.60    4.40
   0  14   7   17.20    4.50
   1  14   7  203.38   13.50
   1  14  -7  195.48   13.10
  -1  14   7  174.68   13.40
   0  15   0    9.90    4.00
   0 -15   0   10.50    3.70
   1 -15   0   11.60    4.00
  -1  15   0   16.70    5.00
   1  15   0   21.00    5.40
  -2  15   0   16.10    5.00
   2  15   0   13.30    4.20
   2 -15   0   20.60    4.60
  -3  15   0   30.60    6.60
   3 -15   0   18.00    4.90
   3  15   0   22.80    5.50
   4 -15   0   12.70    4.30
  -4  15   0   19.80    5.30
   4  15   0   14.10    4.00
   0  15   1    8.70    3.60
   0  15  -1   12.70    4.50
   0 -15   1    8.10    3.40
   0 -15  -1    6.00    2.40
  -1 -15   1   10.10    3.40
   1 -15  -1    7.20    3.10
   1  15   1   12.90    4.30
  -1  15  -1    0.30    2.50
   1 -15   1    5.30    2.80
  -1  15   1    7.30    3.50
   1  15  -1    2.40    2.70
   2 -15  -1    7.20    2.90
   2  15   1   12.80    4.30
  -2  15  -1    3.10    3.50
  -2  15   1    4.30    4.00
   2  15  -1    7.60    3.20
   2 -15   1    1.50    2.60
   3  15   1    4.80    3.20
  -3  15  -1    1.60    2.80
   3 -15  -1   -1.50    2.40
   3 -15   1    0.60    2.40
  -3  15   1    1.20    3.10
   3  15  -1    6.90    3.00
   4  15   1    9.30    3.00
  -4  15  -1    2.20    3.00
   4 -15  -1    3.50    2.30
   4 -15   1    7.50    3.10
   4  15  -1    5.70    2.70
  -4  15   1    3.90    3.60
   0  15   2   62.69    9.80
   0  15  -2   51.79    5.90
   0 -15   2   58.69    6.80
   1  15   2   18.20    4.80
   1 -15  -2   13.00    3.90
  -1  15  -2   22.90    4.90
  -1 -15   2    8.10    3.40
   1 -15   2   14.30    4.60
  -1  15   2    8.50    4.60
   1  15  -2   14.80    4.20
  -2 -15   2   20.10    4.60
  -2  15  -2   21.50    4.80
   2  15   2   29.30    6.50
   2 -15  -2   14.60    3.70
   2 -15   2   25.40    5.70
   2  15  -2   20.50    4.50
  -2  15   2   28.60    6.50
   3  15   2   24.20    5.90
  -3  15  -2   30.80    6.20
   3 -15  -2   38.50    5.00
   3 -15   2   26.90    5.40
  -3  15   2   41.60    7.60
   3  15  -2   26.60    5.40
   4  15   2   35.20    6.30
  -4  15  -2   31.60    5.90
   4 -15  -2   23.40    4.80
  -4  15   2   21.40    5.30
   4 -15   2   36.90    6.30
   4  15  -2   25.00    4.80
   0  15   3    7.20    3.90
   0 -15   3    8.90    3.60
   1  15   3    8.00    3.80
  -1 -15   3    1.90    2.20
   1 -15   3    0.90    2.60
  -1  15   3    9.10    3.80
   2  15   3   13.90    4.70
  -2  15   3   16.50    4.20
   2 -15   3   26.50    5.50
   3 -15  -3   10.30    2.60
   3  15   3   12.30    4.80
  -3  15   3    6.10    3.50
   3 -15   3    9.30    3.40
   0 -15   4   29.70    6.20
   0  15   4   44.90    5.90
   1  15   4   13.50    4.00
  -1  15   4   15.60    4.50
   2  15   4   24.40    5.50
  -2  15   4   22.70    4.70
   2 -15   4   18.10    4.80

_computing_structure_solution     'SHELXT 2014/4 (Sheldrick, 2014)'
;
_shelx_hkl_checksum              95775
loop_
_space_group_symop_operation_xyz
'x, y, z'
'-x+1/2, -y+1/2, z'
'x+1/2, -y, -z'
'-x, y+1/2, -z'
'-x, -y, -z'
'x-1/2, y-1/2, -z'
'-x-1/2, y, z'
'x, -y-1/2, z'
loop_
_atom_site_label
_atom_site_type_symbol
_atom_site_fract_x
_atom_site_fract_y
_atom_site_fract_z
_atom_site_U_iso_or_equiv
_atom_site_adp_type
_atom_site_occupancy
_atom_site_site_symmetry_order
_atom_site_calc_flag
_atom_site_refinement_flags_posn
_atom_site_refinement_flags_adp
_atom_site_refinement_flags_occupancy
Dy1 Dy 0.2500 0.2500 0.77911(4) 0.00559(8) Uani 1 4 d S T P
Dy2 Dy 0.2500 0.2500 0.28309(4) 0.00610(8) Uani 1 4 d S T P
Mn1 Mn 0.7500 0.2500 0.71992(16) 0.00623(18) Uani 1 4 d S T P
Mn2 Mn 0.7500 0.2500 0.23984(13) 0.00223(15) Uani 1 4 d S T P
Mn3 Mn 0.5000 0.0000 0.0000 0.00381(12) Uani 1 2 d S . P
Mn4 Mn 0.0000 0.5000 0.5000 0.00361(12) Uani 1 2 d S . P
O1 O 0.4362(4) -0.0685(4) 0.2676(3) 0.0065(4) Uani 1 1 d . . .
O2 O 0.0569(6) 0.2500 0.0403(5) 0.0060(6) Uani 1 2 d S T P
O3 O 0.2500 0.5292(6) 0.9231(5) 0.0050(5) Uani 1 2 d S T P
O4 O 0.5398(6) 0.2500 0.4157(5) 0.0116(8) Uani 1 2 d S T P
O5 O 0.2500 0.4329(6) 0.5392(5) 0.0053(6) Uani 1 2 d S T P
loop_
_atom_site_aniso_label
_atom_site_aniso_U_11
_atom_site_aniso_U_22
_atom_site_aniso_U_33
_atom_site_aniso_U_23
_atom_site_aniso_U_13
_atom_site_aniso_U_12
Dy1 0.00852(14) 0.00475(15) 0.00349(11) 0.000 0.000 0.000
Dy2 0.00424(12) 0.01017(17) 0.00390(11) 0.000 0.000 0.000
Mn1 0.0046(4) 0.0050(5) 0.0090(4) 0.000 0.000 0.000
Mn2 0.0024(3) 0.0021(4) 0.0022(3) 0.000 0.000 0.000
Mn3 0.0030(2) 0.0037(3) 0.0047(2) -0.0004(2) -0.00027(17) 0.0004(2)
Mn4 0.0035(2) 0.0037(3) 0.0036(2) -0.0002(2) 0.00001(17) 0.0003(2)
O1 0.0067(9) 0.0080(12) 0.0049(8) -0.0009(8) -0.0007(7) -0.0022(9)
O2 0.0076(14) 0.0042(15) 0.0063(13) 0.000 -0.0025(10) 0.000
O3 0.0019(11) 0.0051(15) 0.0079(12) -0.0001(11) 0.000 0.000
O4 0.0058(14) 0.023(2) 0.0057(13) 0.000 -0.0002(11) 0.000
O5 0.0025(11) 0.0063(16) 0.0073(13) 0.0018(11) 0.000 0.000
loop_
_atom_type_symbol
_atom_type_description
_atom_type_scat_dispersion_real
_atom_type_scat_dispersion_imag
_atom_type_scat_source
Dy Dy -0.1892 4.4098 'International Tables Vol C Tables 4.2.6.8 and 6.1.1.4'
Mn Mn 0.3368 0.7283 'International Tables Vol C Tables 4.2.6.8 and 6.1.1.4'
O O 0.0106 0.0060 'International Tables Vol C Tables 4.2.6.8 and 6.1.1.4'
loop_
_geom_angle_atom_site_label_1
_geom_angle_atom_site_label_2
_geom_angle_atom_site_label_3
_geom_angle
_geom_angle_site_symmetry_1
_geom_angle_site_symmetry_3
O5 Dy1 O5 72.1(2) 2 .
O5 Dy1 O3 154.43(15) 2 .
O5 Dy1 O3 82.29(15) . .
O5 Dy1 O3 82.29(15) 2 2
O5 Dy1 O3 154.43(15) . 2
O3 Dy1 O3 123.3(2) . 2
O5 Dy1 O2 131.78(9) 2 2_556
O5 Dy1 O2 131.78(9) . 2_556
O3 Dy1 O2 66.95(8) . 2_556
O3 Dy1 O2 66.95(8) 2 2_556
O5 Dy1 O2 131.78(9) 2 1_556
O5 Dy1 O2 131.78(9) . 1_556
O3 Dy1 O2 66.95(8) . 1_556
O3 Dy1 O2 66.95(8) 2 1_556
O2 Dy1 O2 68.96(19) 2_556 1_556
O5 Dy1 O1 65.89(7) 2 3_456
O5 Dy1 O1 100.82(8) . 3_456
O3 Dy1 O1 120.69(7) . 3_456
O3 Dy1 O1 67.62(8) 2 3_456
O2 Dy1 O1 126.48(10) 2_556 3_456
O2 Dy1 O1 68.31(10) 1_556 3_456
O5 Dy1 O1 100.82(8) 2 4_656
O5 Dy1 O1 65.89(7) . 4_656
O3 Dy1 O1 67.62(8) . 4_656
O3 Dy1 O1 120.69(7) 2 4_656
O2 Dy1 O1 68.31(10) 2_556 4_656
O2 Dy1 O1 126.48(10) 1_556 4_656
O1 Dy1 O1 164.31(11) 3_456 4_656
O5 Dy1 O1 100.82(8) 2 6_566
O5 Dy1 O1 65.89(7) . 6_566
O3 Dy1 O1 67.62(8) . 6_566
O3 Dy1 O1 120.69(7) 2 6_566
O2 Dy1 O1 126.48(10) 2_556 6_566
O2 Dy1 O1 68.31(10) 1_556 6_566
O1 Dy1 O1 60.84(14) 3_456 6_566
O1 Dy1 O1 116.75(13) 4_656 6_566
O5 Dy1 O1 65.89(7) 2 5_656
O5 Dy1 O1 100.82(8) . 5_656
O3 Dy1 O1 120.69(7) . 5_656
O3 Dy1 O1 67.62(8) 2 5_656
O2 Dy1 O1 68.31(10) 2_556 5_656
O2 Dy1 O1 126.48(10) 1_556 5_656
O1 Dy1 O1 116.75(13) 3_456 5_656
O1 Dy1 O1 60.84(14) 4_656 5_656
O1 Dy1 O1 164.31(11) 6_566 5_656
O5 Dy1 Mn3 142.98(3) 2 4_656
O5 Dy1 Mn3 95.45(9) . 4_656
O3 Dy1 Mn3 37.98(3) . 4_656
O3 Dy1 Mn3 105.26(8) 2 4_656
O2 Dy1 Mn3 38.32(3) 2_556 4_656
O2 Dy1 Mn3 82.72(8) 1_556 4_656
O1 Dy1 Mn3 150.77(6) 3_456 4_656
O1 Dy1 Mn3 43.80(6) 4_656 4_656
O1 Dy1 Mn3 105.53(7) 6_566 4_656
O1 Dy1 Mn3 83.29(6) 5_656 4_656
O5 Dy1 Mn3 95.45(9) 2 1_556
O5 Dy1 Mn3 142.98(3) . 1_556
O3 Dy1 Mn3 105.26(8) . 1_556
O3 Dy1 Mn3 37.98(3) 2 1_556
O2 Dy1 Mn3 38.32(3) 2_556 1_556
O2 Dy1 Mn3 82.72(8) 1_556 1_556
O1 Dy1 Mn3 105.53(7) 3_456 1_556
O1 Dy1 Mn3 83.29(6) 4_656 1_556
O1 Dy1 Mn3 150.77(6) 6_566 1_556
O1 Dy1 Mn3 43.80(6) 5_656 1_556
Mn3 Dy1 Mn3 73.375(6) 4_656 1_556
O4 Dy2 O4 127.5(2) 2 .
O4 Dy2 O2 152.69(15) 2 2
O4 Dy2 O2 79.77(15) . 2
O4 Dy2 O2 79.77(15) 2 .
O4 Dy2 O2 152.69(15) . .
O2 Dy2 O2 72.9(2) 2 .
O4 Dy2 O5 68.59(9) 2 .
O4 Dy2 O5 68.59(9) . .
O2 Dy2 O5 131.64(9) 2 .
O2 Dy2 O5 131.64(9) . .
O4 Dy2 O5 68.59(9) 2 2
O4 Dy2 O5 68.59(9) . 2
O2 Dy2 O5 131.64(9) 2 2
O2 Dy2 O5 131.64(9) . 2
O5 Dy2 O5 68.6(2) . 2
O4 Dy2 O1 64.95(7) 2 7_655
O4 Dy2 O1 117.54(7) . 7_655
O2 Dy2 O1 104.94(7) 2 7_655
O2 Dy2 O1 70.80(7) . 7_655
O5 Dy2 O1 121.73(10) . 7_655
O5 Dy2 O1 63.07(10) 2 7_655
O4 Dy2 O1 117.54(7) 2 8_565
O4 Dy2 O1 64.95(7) . 8_565
O2 Dy2 O1 70.80(7) 2 8_565
O2 Dy2 O1 104.94(7) . 8_565
O5 Dy2 O1 63.07(10) . 8_565
O5 Dy2 O1 121.73(10) 2 8_565
O1 Dy2 O1 174.94(11) 7_655 8_565
O4 Dy2 O1 64.95(7) 2 2
O4 Dy2 O1 117.54(7) . 2
O2 Dy2 O1 104.94(7) 2 2
O2 Dy2 O1 70.80(7) . 2
O5 Dy2 O1 63.07(10) . 2
O5 Dy2 O1 121.73(10) 2 2
O1 Dy2 O1 120.57(13) 7_655 2
O1 Dy2 O1 59.17(13) 8_565 2
O4 Dy2 O1 117.54(7) 2 .
O4 Dy2 O1 64.95(7) . .
O2 Dy2 O1 70.80(7) 2 .
O2 Dy2 O1 104.94(7) . .
O5 Dy2 O1 121.73(10) . .
O5 Dy2 O1 63.07(10) 2 .
O1 Dy2 O1 59.17(13) 7_655 .
O1 Dy2 O1 120.57(13) 8_565 .
O1 Dy2 O1 174.94(11) 2 .
O4 Dy2 Mn4 106.44(8) 2 3_566
O4 Dy2 Mn4 40.07(4) . 3_566
O2 Dy2 Mn4 95.26(8) 2 3_566
O2 Dy2 Mn4 141.82(3) . 3_566
O5 Dy2 Mn4 37.88(3) . 3_566
O5 Dy2 Mn4 83.55(8) 2 3_566
O1 Dy2 Mn4 146.54(6) 7_655 3_566
O1 Dy2 Mn4 38.18(6) 8_565 3_566
O1 Dy2 Mn4 77.92(6) 2 3_566
O1 Dy2 Mn4 104.92(6) . 3_566
O4 Dy2 Mn4 40.07(4) 2 .
O4 Dy2 Mn4 106.44(8) . .
O2 Dy2 Mn4 141.82(3) 2 .
O2 Dy2 Mn4 95.26(8) . .
O5 Dy2 Mn4 37.88(3) . .
O5 Dy2 Mn4 83.55(8) 2 .
O1 Dy2 Mn4 104.92(6) 7_655 .
O1 Dy2 Mn4 77.92(6) 8_565 .
O1 Dy2 Mn4 38.18(6) 2 .
O1 Dy2 Mn4 146.54(6) . .
Mn4 Dy2 Mn4 71.500(5) 3_566 .
O1 Mn1 O1 174.18(17) 6_666 5_656
O1 Mn1 O1 89.7(2) 6_666 4_656
O1 Mn1 O1 90.0(2) 5_656 4_656
O1 Mn1 O1 90.0(2) 6_666 3_556
O1 Mn1 O1 89.7(2) 5_656 3_556
O1 Mn1 O1 174.18(17) 4_656 3_556
O1 Mn1 Mn4 149.47(10) 6_666 2
O1 Mn1 Mn4 36.35(8) 5_656 2
O1 Mn1 Mn4 92.32(9) 4_656 2
O1 Mn1 Mn4 90.88(9) 3_556 2
O1 Mn1 Mn4 90.88(9) 6_666 3_566
O1 Mn1 Mn4 92.32(9) 5_656 3_566
O1 Mn1 Mn4 36.35(8) 4_656 3_566
O1 Mn1 Mn4 149.47(10) 3_556 3_566
Mn4 Mn1 Mn4 73.490(19) 2 3_566
O1 Mn1 Mn4 36.35(8) 6_666 1_655
O1 Mn1 Mn4 149.47(10) 5_656 1_655
O1 Mn1 Mn4 90.88(9) 4_656 1_655
O1 Mn1 Mn4 92.32(9) 3_556 1_655
Mn4 Mn1 Mn4 113.13(4) 2 1_655
Mn4 Mn1 Mn4 71.158(18) 3_566 1_655
O1 Mn1 Mn4 92.32(9) 6_666 4_646
O1 Mn1 Mn4 90.88(9) 5_656 4_646
O1 Mn1 Mn4 149.47(10) 4_656 4_646
O1 Mn1 Mn4 36.35(8) 3_556 4_646
Mn4 Mn1 Mn4 71.158(18) 2 4_646
Mn4 Mn1 Mn4 113.13(4) 3_566 4_646
Mn4 Mn1 Mn4 73.490(19) 1_655 4_646
O4 Mn2 O4 96.0(3) 2_655 .
O4 Mn2 O3 114.15(9) 2_655 6_656
O4 Mn2 O3 114.15(9) . 6_656
O4 Mn2 O3 114.15(9) 2_655 5_666
O4 Mn2 O3 114.15(9) . 5_666
O3 Mn2 O3 104.6(2) 6_656 5_666
O4 Mn2 Mn3 144.238(13) 2_655 .
O4 Mn2 Mn3 88.31(10) . .
O3 Mn2 Mn3 35.15(2) 6_656 .
O3 Mn2 Mn3 95.92(10) 5_666 .
O4 Mn2 Mn3 88.31(10) 2_655 3
O4 Mn2 Mn3 144.238(13) . 3
O3 Mn2 Mn3 35.15(2) 6_656 3
O3 Mn2 Mn3 95.92(10) 5_666 3
Mn3 Mn2 Mn3 68.915(15) . 3
O4 Mn2 Mn3 144.238(13) 2_655 4_655
O4 Mn2 Mn3 88.31(10) . 4_655
O3 Mn2 Mn3 95.92(10) 6_656 4_655
O3 Mn2 Mn3 35.15(2) 5_666 4_655
Mn3 Mn2 Mn3 71.150(16) . 4_655
Mn3 Mn2 Mn3 108.49(3) 3 4_655
O4 Mn2 Mn3 88.31(10) 2_655 2_655
O4 Mn2 Mn3 144.238(13) . 2_655
O3 Mn2 Mn3 95.92(10) 6_656 2_655
O3 Mn2 Mn3 35.15(2) 5_666 2_655
Mn3 Mn2 Mn3 108.49(3) . 2_655
Mn3 Mn2 Mn3 71.150(16) 3 2_655
Mn3 Mn2 Mn3 68.915(15) 4_655 2_655
O3 Mn3 O3 180.0(2) 6_656 2_554
O3 Mn3 O2 87.65(18) 6_656 6_655
O3 Mn3 O2 92.35(18) 2_554 6_655
O3 Mn3 O2 92.35(18) 6_656 2
O3 Mn3 O2 87.65(18) 2_554 2
O2 Mn3 O2 180.0(3) 6_655 2
O3 Mn3 O1 85.88(14) 6_656 .
O3 Mn3 O1 94.12(14) 2_554 .
O2 Mn3 O1 88.60(14) 6_655 .
O2 Mn3 O1 91.40(14) 2 .
O3 Mn3 O1 94.12(14) 6_656 5_655
O3 Mn3 O1 85.88(14) 2_554 5_655
O2 Mn3 O1 91.40(14) 6_655 5_655
O2 Mn3 O1 88.60(14) 2 5_655
O1 Mn3 O1 180.0 . 5_655
O3 Mn3 Dy1 49.24(13) 6_656 5_656
O3 Mn3 Dy1 130.76(13) 2_554 5_656
O2 Mn3 Dy1 52.44(12) 6_655 5_656
O2 Mn3 Dy1 127.56(12) 2 5_656
O1 Mn3 Dy1 57.23(8) . 5_656
O1 Mn3 Dy1 122.77(8) 5_655 5_656
O3 Mn3 Dy1 130.76(13) 6_656 1_554
O3 Mn3 Dy1 49.24(13) 2_554 1_554
O2 Mn3 Dy1 127.56(12) 6_655 1_554
O2 Mn3 Dy1 52.44(12) 2 1_554
O1 Mn3 Dy1 122.77(8) . 1_554
O1 Mn3 Dy1 57.23(8) 5_655 1_554
Dy1 Mn3 Dy1 180.0 5_656 1_554
O3 Mn3 Mn2 141.46(12) 6_656 5_655
O3 Mn3 Mn2 38.54(12) 2_554 5_655
O2 Mn3 Mn2 57.67(13) 6_655 5_655
O2 Mn3 Mn2 122.33(13) 2 5_655
O1 Mn3 Mn2 107.50(8) . 5_655
O1 Mn3 Mn2 72.50(8) 5_655 5_655
Dy1 Mn3 Mn2 107.704(8) 5_656 5_655
Dy1 Mn3 Mn2 72.296(8) 1_554 5_655
O3 Mn3 Mn2 38.54(12) 6_656 .
O3 Mn3 Mn2 141.46(12) 2_554 .
O2 Mn3 Mn2 122.33(13) 6_655 .
O2 Mn3 Mn2 57.67(13) 2 .
O1 Mn3 Mn2 72.50(8) . .
O1 Mn3 Mn2 107.50(8) 5_655 .
Dy1 Mn3 Mn2 72.296(8) 5_656 .
Dy1 Mn3 Mn2 107.704(8) 1_554 .
Mn2 Mn3 Mn2 180.0 5_655 .
O3 Mn3 Dy2 76.30(12) 6_656 5_655
O3 Mn3 Dy2 103.70(12) 2_554 5_655
O2 Mn3 Dy2 41.85(11) 6_655 5_655
O2 Mn3 Dy2 138.15(11) 2 5_655
O1 Mn3 Dy2 126.86(9) . 5_655
O1 Mn3 Dy2 53.14(9) 5_655 5_655
Dy1 Mn3 Dy2 73.910(7) 5_656 5_655
Dy1 Mn3 Dy2 106.090(7) 1_554 5_655
Mn2 Mn3 Dy2 66.697(9) 5_655 5_655
Mn2 Mn3 Dy2 113.303(9) . 5_655
O3 Mn3 Dy2 103.70(12) 6_656 .
O3 Mn3 Dy2 76.30(12) 2_554 .
O2 Mn3 Dy2 138.15(11) 6_655 .
O2 Mn3 Dy2 41.85(11) 2 .
O1 Mn3 Dy2 53.14(9) . .
O1 Mn3 Dy2 126.86(9) 5_655 .
Dy1 Mn3 Dy2 106.090(7) 5_656 .
Dy1 Mn3 Dy2 73.910(7) 1_554 .
Mn2 Mn3 Dy2 113.303(9) 5_655 .
Mn2 Mn3 Dy2 66.696(9) . .
Dy2 Mn3 Dy2 180.0 5_655 .
O5 Mn4 O5 180.0(3) 5_566 .
O5 Mn4 O1 89.57(14) 5_566 6_566
O5 Mn4 O1 90.44(14) . 6_566
O5 Mn4 O1 90.43(14) 5_566 2
O5 Mn4 O1 89.56(14) . 2
O1 Mn4 O1 180.0 6_566 2
O5 Mn4 O4 86.87(19) 5_566 6_566
O5 Mn4 O4 93.13(19) . 6_566
O1 Mn4 O4 88.40(15) 6_566 6_566
O1 Mn4 O4 91.60(15) 2 6_566
O5 Mn4 O4 93.13(19) 5_566 2
O5 Mn4 O4 86.87(19) . 2
O1 Mn4 O4 91.60(15) 6_566 2
O1 Mn4 O4 88.40(15) 2 2
O4 Mn4 O4 180.0 6_566 2
O5 Mn4 Dy2 128.75(13) 5_566 .
O5 Mn4 Dy2 51.25(13) . .
O1 Mn4 Dy2 119.43(10) 6_566 .
O1 Mn4 Dy2 60.57(10) 2 .
O4 Mn4 Dy2 130.99(13) 6_566 .
O4 Mn4 Dy2 49.01(13) 2 .
O5 Mn4 Dy2 51.25(13) 5_566 5_566
O5 Mn4 Dy2 128.75(13) . 5_566
O1 Mn4 Dy2 60.57(10) 6_566 5_566
O1 Mn4 Dy2 119.43(10) 2 5_566
O4 Mn4 Dy2 49.01(13) 6_566 5_566
O4 Mn4 Dy2 130.99(13) 2 5_566
Dy2 Mn4 Dy2 180.0 . 5_566
O5 Mn4 Mn1 72.06(12) 5_566 1_455
O5 Mn4 Mn1 107.94(12) . 1_455
O1 Mn4 Mn1 35.78(9) 6_566 1_455
O1 Mn4 Mn1 144.22(9) 2 1_455
O4 Mn4 Mn1 117.43(13) 6_566 1_455
O4 Mn4 Mn1 62.57(12) 2 1_455
Dy2 Mn4 Mn1 106.331(10) . 1_455
Dy2 Mn4 Mn1 73.668(10) 5_566 1_455
O5 Mn4 Mn1 107.94(12) 5_566 5_666
O5 Mn4 Mn1 72.06(12) . 5_666
O1 Mn4 Mn1 144.22(9) 6_566 5_666
O1 Mn4 Mn1 35.78(9) 2 5_666
O4 Mn4 Mn1 62.57(13) 6_566 5_666
O4 Mn4 Mn1 117.43(12) 2 5_666
Dy2 Mn4 Mn1 73.669(10) . 5_666
Dy2 Mn4 Mn1 106.332(10) 5_566 5_666
Mn1 Mn4 Mn1 180.0 1_455 5_666
O5 Mn4 Dy1 40.89(11) 5_566 5_566
O5 Mn4 Dy1 139.11(11) . 5_566
O1 Mn4 Dy1 128.14(9) 6_566 5_566
O1 Mn4 Dy1 51.86(9) 2 5_566
O4 Mn4 Dy1 77.05(12) 6_566 5_566
O4 Mn4 Dy1 102.95(12) 2 5_566
Dy2 Mn4 Dy1 106.969(7) . 5_566
Dy2 Mn4 Dy1 73.031(7) 5_566 5_566
Mn1 Mn4 Dy1 111.818(11) 1_455 5_566
Mn1 Mn4 Dy1 68.182(11) 5_666 5_566
O5 Mn4 Dy1 139.11(11) 5_566 .
O5 Mn4 Dy1 40.89(11) . .
O1 Mn4 Dy1 51.86(9) 6_566 .
O1 Mn4 Dy1 128.14(9) 2 .
O4 Mn4 Dy1 102.95(12) 6_566 .
O4 Mn4 Dy1 77.05(12) 2 .
Dy2 Mn4 Dy1 73.031(7) . .
Dy2 Mn4 Dy1 106.969(7) 5_566 .
Mn1 Mn4 Dy1 68.182(11) 1_455 .
Mn1 Mn4 Dy1 111.818(11) 5_666 .
Dy1 Mn4 Dy1 180.0 5_566 .
Mn1 O1 Mn4 107.87(14) 5_656 2
Mn1 O1 Mn3 111.15(13) 5_656 .
Mn4 O1 Mn3 140.93(16) 2 .
Mn1 O1 Dy1 104.45(14) 5_656 5_656
Mn4 O1 Dy1 93.31(11) 2 5_656
Mn3 O1 Dy1 78.98(9) . 5_656
Mn1 O1 Dy2 105.28(13) 5_656 .
Mn4 O1 Dy2 81.25(11) 2 .
Mn3 O1 Dy2 86.80(10) . .
Dy1 O1 Dy2 150.01(13) 5_656 .
Mn3 O2 Mn3 148.9(2) 3_455 2
Mn3 O2 Dy2 104.92(11) 3_455 .
Mn3 O2 Dy2 104.92(11) 2 .
Mn3 O2 Dy1 89.24(12) 3_455 1_554
Mn3 O2 Dy1 89.24(12) 2 1_554
Dy2 O2 Dy1 109.06(17) . 1_554
Mn3 O3 Mn3 141.2(2) 4_656 2_556
Mn3 O3 Mn2 106.30(13) 4_656 5_666
Mn3 O3 Mn2 106.30(13) 2_556 5_666
Mn3 O3 Dy1 92.79(14) 4_656 .
Mn3 O3 Dy1 92.79(14) 2_556 .
Mn2 O3 Dy1 113.95(17) 5_666 .
Mn4 O4 Mn4 137.8(2) 3_566 2
Mn4 O4 Mn2 109.13(13) 3_566 .
Mn4 O4 Mn2 109.13(13) 2 .
Mn4 O4 Dy2 90.92(14) 3_566 .
Mn4 O4 Dy2 90.92(14) 2 .
Mn2 O4 Dy2 111.77(19) . .
Mn4 O5 Mn4 144.1(2) 3_566 .
Mn4 O5 Dy1 106.53(11) 3_566 .
Mn4 O5 Dy1 106.53(11) . .
Mn4 O5 Dy2 90.87(12) 3_566 .
Mn4 O5 Dy2 90.87(12) . .
Dy1 O5 Dy2 109.63(18) . .
loop_
_geom_bond_atom_site_label_1
_geom_bond_atom_site_label_2
_geom_bond_distance
_geom_bond_site_symmetry_2
Dy1 O5 2.315(4) 2
Dy1 O5 2.315(4) .
Dy1 O3 2.365(4) .
Dy1 O3 2.365(4) 2
Dy1 O2 2.472(4) 2_556
Dy1 O2 2.472(4) 1_556
Dy1 O1 2.671(3) 3_456
Dy1 O1 2.671(3) 4_656
Dy1 O1 2.671(3) 6_566
Dy1 O1 2.671(3) 5_656
Dy1 Mn3 3.11845(19) 4_656
Dy1 Mn3 3.11845(19) 1_556
Dy2 O4 2.341(5) 2
Dy2 O4 2.341(5) .
Dy2 O2 2.355(4) 2
Dy2 O2 2.355(4) .
Dy2 O5 2.419(4) .
Dy2 O5 2.419(4) 2
Dy2 O1 2.733(3) 7_655
Dy2 O1 2.733(3) 8_565
Dy2 O1 2.733(3) 2
Dy2 O1 2.733(3) .
Dy2 Mn4 3.10139(19) 3_566
Dy2 Mn4 3.10138(19) .
Mn1 O1 1.913(3) 6_666
Mn1 O1 1.913(3) 5_656
Mn1 O1 1.913(3) 4_656
Mn1 O1 1.913(3) 3_556
Mn1 Mn4 3.1143(7) 2
Mn1 Mn4 3.1143(7) 3_566
Mn1 Mn4 3.1143(7) 1_655
Mn1 Mn4 3.1143(7) 4_646
Mn2 O4 2.050(5) 2_655
Mn2 O4 2.050(5) .
Mn2 O3 2.079(4) 6_656
Mn2 O3 2.079(4) 5_666
Mn2 Mn3 3.2025(6) .
Mn2 Mn3 3.2025(6) 3
Mn2 Mn3 3.2025(6) 4_655
Mn2 Mn3 3.2025(6) 2_655
Mn3 O3 1.9212(13) 6_656
Mn3 O3 1.9212(13) 2_554
Mn3 O2 1.9340(11) 6_655
Mn3 O2 1.9340(11) 2
Mn3 O1 2.199(3) .
Mn3 O1 2.199(3) 5_655
Mn3 Dy1 3.11846(19) 5_656
Mn3 Dy1 3.11846(19) 1_554
Mn3 Mn2 3.2025(6) 5_655
Mn3 Dy2 3.4107(2) 5_655
Mn4 O5 1.9044(13) 5_566
Mn4 O5 1.9044(13) .
Mn4 O1 1.940(3) 6_566
Mn4 O1 1.940(3) 2
Mn4 O4 1.9967(16) 6_566
Mn4 O4 1.9967(16) 2
Mn4 Dy2 3.10139(19) 5_566
Mn4 Mn1 3.1143(7) 1_455
Mn4 Mn1 3.1143(7) 5_666
Mn4 Dy1 3.3907(2) 5_566
O1 Mn1 1.913(3) 5_656
O1 Mn4 1.940(3) 2
O1 Dy1 2.671(3) 5_656
O2 Mn3 1.9340(11) 3_455
O2 Mn3 1.9340(11) 2
O2 Dy1 2.472(4) 1_554
O3 Mn3 1.9212(13) 4_656
O3 Mn3 1.9212(13) 2_556
O3 Mn2 2.079(4) 5_666
O4 Mn4 1.9967(16) 3_566
O4 Mn4 1.9967(16) 2
O5 Mn4 1.9044(13) 3_566
