#------------------------------------------------------------------------------
#$Date: 2017-03-04 04:04:19 +0200 (Sat, 04 Mar 2017) $
#$Revision: 192967 $
#$URL: file:///home/coder/svn-repositories/cod/cif/4/34/54/4345425.cif $
#------------------------------------------------------------------------------
#
# This file is available in the Crystallography Open Database (COD),
# http://www.crystallography.net/
#
# All data on this site have been placed in the public domain by the
# contributors.
#
data_4345425
loop_
_publ_author_name
'Schmidt, Anna-Corina'
'Hermsen, Marko'
'Rominger, Frank'
'Dehn, Richard'
'Teles, Joaquim Henrique'
'Sch\"afer, Ansgar'
'Trapp, Oliver'
'Schaub, Thomas'
_publ_section_title
;
 Synthesis of Mono- and Dinuclear Vanadium Complexes and Their Reactivity
 toward Dehydroperoxidation of Alkyl Hydroperoxides.
;
_journal_issue                   3
_journal_name_full               'Inorganic chemistry'
_journal_page_first              1319
_journal_page_last               1332
_journal_paper_doi               10.1021/acs.inorgchem.6b02322
_journal_volume                  56
_journal_year                    2017
_chemical_formula_sum            'C13 H16 N O7 V'
_chemical_formula_weight         349.21
_chemical_name_common            '5 H2O'
_space_group_crystal_system      monoclinic
_space_group_IT_number           11
_space_group_name_Hall           '-P 2yb'
_space_group_name_H-M_alt        'P 1 21/m 1'
_symmetry_space_group_name_Hall  '-P 2yb'
_symmetry_space_group_name_H-M   'P 1 21/m 1'
_atom_sites_solution_hydrogens   mixed
_audit_creation_method           SHELXL-2014/7
_cell_angle_alpha                90
_cell_angle_beta                 110.1655(16)
_cell_angle_gamma                90
_cell_formula_units_Z            2
_cell_length_a                   7.9664(3)
_cell_length_b                   11.2735(4)
_cell_length_c                   8.8911(3)
_cell_measurement_reflns_used    2946
_cell_measurement_temperature    200(2)
_cell_measurement_theta_max      25.03
_cell_measurement_theta_min      2.44
_cell_volume                     749.56(5)
_computing_cell_refinement       'Bruker SAINT'
_computing_data_collection       'Bruker APEX2'
_computing_data_reduction        'Bruker SAINT'
_computing_molecular_graphics    'Bruker SHELXTL'
_computing_publication_material  'Bruker SHELXTL'
_computing_structure_refinement  'SHELXL-2014/7 (Sheldrick, 2014)'
_computing_structure_solution    'SHELXS-97 (Sheldrick 2008)'
_diffrn_ambient_temperature      200(2)
_diffrn_measured_fraction_theta_full 0.994
_diffrn_measured_fraction_theta_max 0.994
_diffrn_measurement_device_type  'Bruker APEX-II Quazar area detector'
_diffrn_measurement_method       '\f and \w scans'
_diffrn_radiation_type           MoK\a
_diffrn_radiation_wavelength     0.71073
_diffrn_reflns_av_R_equivalents  0.0231
_diffrn_reflns_av_unetI/netI     0.0212
_diffrn_reflns_Laue_measured_fraction_full 0.994
_diffrn_reflns_Laue_measured_fraction_max 0.994
_diffrn_reflns_limit_h_max       7
_diffrn_reflns_limit_h_min       -9
_diffrn_reflns_limit_k_max       13
_diffrn_reflns_limit_k_min       -11
_diffrn_reflns_limit_l_max       10
_diffrn_reflns_limit_l_min       -10
_diffrn_reflns_number            4800
_diffrn_reflns_point_group_measured_fraction_full 0.994
_diffrn_reflns_point_group_measured_fraction_max 0.994
_diffrn_reflns_theta_full        25.065
_diffrn_reflns_theta_max         25.065
_diffrn_reflns_theta_min         2.440
_diffrn_source                   'ImuS microsource'
_exptl_absorpt_coefficient_mu    0.696
_exptl_absorpt_correction_T_max  0.9579
_exptl_absorpt_correction_T_min  0.8473
_exptl_absorpt_correction_type   multi-scan
_exptl_absorpt_process_details
;
Sheldrick, G. M. (2008). <i>SADABS</i>. University of G\"ottingen, Germany.
;
_exptl_crystal_colour            yellow
_exptl_crystal_density_diffrn    1.547
_exptl_crystal_description       plate
_exptl_crystal_F_000             360
_exptl_crystal_size_max          0.220
_exptl_crystal_size_mid          0.140
_exptl_crystal_size_min          0.020
_refine_diff_density_max         0.256
_refine_diff_density_min         -0.256
_refine_diff_density_rms         0.049
_refine_ls_extinction_method     none
_refine_ls_goodness_of_fit_ref   1.129
_refine_ls_hydrogen_treatment    mixed
_refine_ls_matrix_type           full
_refine_ls_number_parameters     143
_refine_ls_number_reflns         1403
_refine_ls_number_restraints     76
_refine_ls_restrained_S_all      1.143
_refine_ls_R_factor_all          0.0344
_refine_ls_R_factor_gt           0.0313
_refine_ls_shift/su_max          0.000
_refine_ls_shift/su_mean         0.000
_refine_ls_structure_factor_coef Fsqd
_refine_ls_weighting_details
'w=1/[\s^2^(Fo^2^)+(0.0356P)^2^+0.5114P] where P=(Fo^2^+2Fc^2^)/3'
_refine_ls_weighting_scheme      calc
_refine_ls_wR_factor_gt          0.0836
_refine_ls_wR_factor_ref         0.0852
_reflns_Friedel_coverage         0.000
_reflns_number_gt                1293
_reflns_number_total             1403
_reflns_threshold_expression     'I > 2\s(I)'
_cod_data_source_file            ic6b02322_si_002.cif
_cod_data_source_block           cos4
_cod_original_cell_volume        749.55(5)
_cod_database_code               4345425
_shelx_shelxl_version_number     2014/7
_shelx_space_group_comment
; 
The symmetry employed for this shelxl refinement is uniquely defined 
by the following loop, which should always be used as a source of 
symmetry information in preference to the above space-group names. 
They are only intended as comments. 
;
_shelx_estimated_absorpt_t_min   0.862
_shelx_estimated_absorpt_t_max   0.986
_shelx_res_file
; 
  
    cos4.res created by SHELXL-2014/7 
  
  
TITL cos4 in P2(1)/m 
REM  sehr sch&#x00F6;ne Messung mit Intensit&#x00E4;t ohne Ende, problematisch ist 
REM  nur die spezielle m-Lage, die das Molek&#x00FC;l wie so oft nicht erf&#x00FC;llt, 
REM  woraus FO in CyO-Rest resultiert. Diese l&#x00E4;sst sich sehr erfolgreich 
REM  modellieren, Wasserstoffatome alle gesehen, am koordinierten Wasser 
REM  frei verfeinert, den Rest an konstruierten Positionen ber&#x00FC;cksichtigt. 
REM 
REM 
CELL 0.71073   7.96640  11.27350   8.89110  90.0000 110.1655  90.0000 
ZERR    2.00   0.00030   0.00040   0.00030   0.0000   0.0016   0.0000 
LATT  1 
SYMM -X, 0.5+Y, -Z 
SFAC C H N O V 
UNIT 26 32 2 14 2 
TEMP -73.150 
SIZE 0.02 0.14 0.22 
  
L.S. 4 
ACTA 
BOND $H 
CONF 
FMAP 2 
PLAN 5 
RIGU O3 > C16 
  
WGHT    0.035600    0.511400 
FVAR       0.26967 
V1    5    0.730927    0.750000    0.625726    10.50000    0.02317    0.04689 = 
         0.02375    0.00000    0.01175    0.00000 
O1    4    0.914209    0.750000    0.771382    10.50000    0.02954    0.09759 = 
         0.02876    0.00000    0.01110    0.00000 
O2    4    0.463295    0.750000    0.431840    10.50000    0.02724    0.02625 = 
         0.02682    0.00000    0.01000    0.00000 
H2A   2    0.451807    0.807329    0.378470    11.00000    0.04412 
N1    3    0.559055    0.750000    0.757121    10.50000    0.02467    0.02792 = 
         0.01980    0.00000    0.00963    0.00000 
C2    1    0.505004    0.646956    0.795884    11.00000    0.02984    0.02881 = 
         0.01940    0.00302    0.00630   -0.00132 
C3    1    0.392501    0.643503    0.884358    11.00000    0.03379    0.04338 = 
         0.02418    0.00521    0.01078   -0.00881 
AFIX  43 
H3    2    0.353469    0.570046    0.913091    11.00000   -1.20000 
AFIX   0 
C4    1    0.338371    0.750000    0.929862    10.50000    0.02966    0.05734 = 
         0.02566    0.00000    0.01568    0.00000 
AFIX  43 
H4    2    0.263357    0.750000    0.992925    10.50000   -1.20000 
AFIX   0 
C5    1    0.580697    0.546520    0.729211    11.00000    0.04946    0.03111 = 
         0.02143    0.00184    0.00830    0.00748 
O5    4    0.555295    0.443682    0.757580    11.00000    0.09478    0.02739 = 
         0.03344    0.00309    0.02220    0.00368 
O6    4    0.672291    0.581811    0.641935    11.00000    0.05023    0.03788 = 
         0.03023    0.00308    0.01891    0.01575 
PART -1 10.5 
SAME O3 C11 C16 < C12 
O3    4    0.806677    0.734139    0.463353    10.50000    0.02415    0.04619 = 
         0.02867   -0.00061    0.01402    0.00484 
SAME C12 > C16 C11 
C11   1    0.987476    0.728284    0.458179    10.50000    0.02050    0.05198 = 
         0.02836    0.00019    0.01023    0.00419 
AFIX  13 
H11   2    1.069135    0.690060    0.558127    10.50000   -1.20000 
AFIX   0 
C12   1    1.048404    0.855179    0.446869    10.50000    0.02599    0.06596 = 
         0.05010   -0.01390    0.01882   -0.01069 
AFIX  23 
H12A  2    1.035537    0.902312    0.536220    10.50000   -1.20000 
H12B  2    1.176611    0.854627    0.458720    10.50000   -1.20000 
AFIX   0 
C13   1    0.943593    0.913324    0.291287    10.50000    0.03174    0.06262 = 
         0.08105    0.01541    0.02258   -0.00228 
AFIX  23 
H13A  2    0.992683    0.993414    0.286932    10.50000   -1.20000 
H13B  2    0.817510    0.922337    0.284312    10.50000   -1.20000 
AFIX   0 
C14   1    0.951325    0.840972    0.151709    10.50000    0.04578    0.10460 = 
         0.04746    0.01336    0.01198   -0.01044 
AFIX  23 
H14A  2    1.076662    0.836096    0.155107    10.50000   -1.20000 
H14B  2    0.879957    0.880493    0.050393    10.50000   -1.20000 
AFIX   0 
C15   1    0.879989    0.717802    0.155494    10.50000    0.04857    0.09756 = 
         0.03280   -0.01000    0.01193   -0.00647 
AFIX  23 
H15A  2    0.891150    0.671135    0.065087    10.50000   -1.20000 
H15B  2    0.751550    0.722384    0.142179    10.50000   -1.20000 
AFIX   0 
C16   1    0.981783    0.654929    0.313655    10.50000    0.03610    0.05906 = 
         0.05454   -0.01186    0.02368    0.00204 
AFIX  23 
H16A  2    0.923412    0.577965    0.317179    10.50000   -1.20000 
H16B  2    1.105548    0.638543    0.318259    10.50000   -1.20000 
AFIX   0 
HKLF 4 
  
REM  cos4 in P2(1)/m 
REM R1 =  0.0313 for    1293 Fo > 4sig(Fo)  and  0.0344 for all    1403 data 
REM    143 parameters refined using     76 restraints 
  
END 
  
WGHT      0.0355      0.5105 
  
REM Highest difference peak  0.256,  deepest hole -0.256,  1-sigma level  0.049 
Q1    1   0.5813  0.7500  0.5301  10.50000  0.05    0.26 
Q2    1   0.6526  0.7500  0.7242  10.50000  0.05    0.24 
Q3    1   0.9910  0.7500  0.1618  10.50000  0.05    0.24 
Q4    1   0.8205  0.7866  0.7416  11.00000  0.05    0.23 
Q5    1   0.8254  0.7500  0.5562  10.50000  0.05    0.23 
;
_shelx_res_checksum              41542
_shelx_hkl_file
; 
   1   0   0  188.78    3.99 
   1   0   0  180.74    3.92 
  -1   0   0  174.99    3.87 
  -1   0   0  182.13    3.93 
   2   0   0  200.49    4.26 
  -2   0   0  198.66    4.32 
  -2   0   0  202.61    4.34 
  -3   0   0   30.35    0.81 
  -3   0   0   28.02    0.71 
  -4   0   0   45.47    1.20 
  -4   0   0   45.26    1.09 
  -5   0   0   10.91    0.49 
  -5   0   0   10.53    0.39 
  -6   0   0    8.95    0.39 
  -7   0   0    4.63    0.32 
  -7   0   0    6.47    0.46 
  -8   0   0    0.61    0.18 
  -8   0   0    1.07    0.27 
   0  -1   0   -0.01    0.02 
   0  -1   0    0.00    0.02 
   0   1   0    0.01    0.02 
   0   1   0    0.00    0.02 
  -1  -1   0  301.89    7.07 
  -1  -1   0  328.26    7.08 
  -1  -1   0  340.66    7.11 
   1  -1   0  343.11    7.15 
   1   1   0  331.31    7.07 
  -1   1   0  321.95    7.17 
   1   1   0  339.59    7.20 
  -1   1   0  317.64    7.13 
  -2  -1   0   95.14    2.14 
  -2  -1   0   94.17    2.06 
  -2   1   0   95.37    2.13 
   2   1   0   98.53    2.06 
  -2   1   0   93.36    2.08 
  -3  -1   0   49.38    1.26 
  -3  -1   0   51.22    1.16 
  -3   1   0   49.79    1.25 
  -3   1   0   51.06    1.18 
  -4  -1   0   34.13    0.85 
  -4  -1   0   33.42    0.96 
  -4   1   0   33.24    0.86 
  -4   1   0   33.95    0.95 
  -5  -1   0   30.81    0.93 
  -5  -1   0   30.12    0.80 
  -5   1   0   29.60    0.92 
  -5   1   0   28.06    0.80 
  -6  -1   0    6.67    0.43 
  -6  -1   0    7.14    0.34 
  -6   1   0    7.00    0.44 
  -6   1   0    6.80    0.34 
  -7  -1   0    2.70    0.25 
  -7  -1   0    3.11    0.37 
  -7   1   0    1.87    0.30 
  -7   1   0    2.19    0.25 
  -8  -1   0    6.69    0.50 
  -8   1   0    6.38    0.42 
  -8   1   0    6.76    0.51 
   0  -2   0  620.85   12.71 
   0  -2   0  596.04   12.58 
   0   2   0  582.53   14.68 
   0   2   0  560.86   12.65 
  -1  -2   0   82.68    1.78 
   1  -2   0   83.90    1.82 
  -1  -2   0   82.95    1.81 
   1  -2   0   83.57    1.81 
  -1  -2   0   83.48    1.79 
  -1   2   0   78.59    1.81 
   1   2   0   82.93    1.78 
  -1   2   0   82.88    1.81 
   1   2   0   83.59    1.79 
  -2  -2   0   29.15    0.69 
  -2  -2   0   27.76    0.75 
  -2   2   0   29.55    0.73 
   2   2   0   30.60    0.69 
  -2   2   0   29.96    0.76 
  -3  -2   0    2.06    0.14 
  -3  -2   0    1.94    0.19 
  -3   2   0    1.83    0.18 
  -3   2   0    1.78    0.16 
  -4  -2   0   70.19    1.69 
  -4  -2   0   65.92    1.55 
  -4   2   0   66.80    1.67 
  -4   2   0   67.00    1.59 
  -5  -2   0   14.38    0.46 
  -5  -2   0   13.92    0.57 
  -5   2   0   14.09    0.49 
  -5   2   0   13.20    0.55 
  -6  -2   0    5.15    0.29 
  -6  -2   0    5.10    0.39 
  -6   2   0    4.97    0.31 
  -6   2   0    4.83    0.36 
  -7  -2   0    2.91    0.26 
  -7  -2   0    2.77    0.35 
  -7   2   0    3.09    0.34 
  -7   2   0    3.40    0.29 
  -8  -2   0    3.76    0.44 
  -8   2   0    3.91    0.42 
  -8   2   0    3.21    0.34 
   0  -3   0    0.01    0.05 
   0  -3   0   -0.01    0.04 
   0   3   0    0.11    0.06 
   0   3   0    0.05    0.05 
  -1  -3   0   71.78    1.55 
  -1  -3   0   70.34    1.58 
   1   3   0   73.95    1.58 
  -1   3   0   71.80    1.59 
   1   3   0   71.25    1.55 
   1   3   0   70.63    1.56 
  -1   3   0   70.44    1.60 
  -2  -3   0   34.39    0.83 
  -2  -3   0   35.39    0.89 
   2   3   0   37.01    0.83 
  -2   3   0   35.77    0.89 
  -2   3   0   35.09    0.87 
  -3  -3   0   17.45    0.55 
  -3  -3   0   16.37    0.45 
  -3   3   0   16.22    0.53 
  -4  -3   0    8.04    0.30 
  -4  -3   0    8.15    0.39 
  -4   3   0    8.49    0.39 
  -4   3   0    7.48    0.33 
  -5  -3   0   39.93    1.18 
  -5  -3   0   42.04    1.05 
  -5   3   0   41.16    1.10 
  -5   3   0   42.24    1.18 
  -6  -3   0    4.28    0.27 
  -6  -3   0    5.74    0.40 
  -6   3   0    5.38    0.33 
  -6   3   0    4.80    0.38 
  -7  -3   0   16.92    0.73 
  -7   3   0   16.33    0.72 
  -7   3   0   16.34    0.63 
  -8  -3   0   10.39    0.62 
  -8   3   0    9.99    0.54 
  -8   3   0   10.00    0.61 
   0  -4   0  130.58    2.70 
   0   4   0  124.54    2.69 
   0   4   0  120.90    2.73 
  -1  -4   0    4.46    0.17 
  -1  -4   0    5.15    0.21 
   1   4   0    5.14    0.17 
   1   4   0    5.41    0.20 
  -1   4   0    4.01    0.19 
  -1   4   0    4.61    0.21 
  -2  -4   0   66.50    1.50 
  -2  -4   0   64.03    1.54 
   2   4   0   70.49    1.54 
  -2   4   0   65.82    1.54 
   2   4   0   64.93    1.47 
  -2   4   0   65.57    1.54 
   2   4   0   66.02    1.48 
  -3  -4   0    7.53    0.34 
  -3  -4   0    6.84    0.26 
  -3   4   0    7.33    0.33 
  -3   4   0    6.96    0.31 
  -4  -4   0   21.52    0.70 
  -4  -4   0   21.08    0.59 
  -4   4   0   20.68    0.68 
  -4   4   0   21.02    0.65 
  -5  -4   0    2.47    0.28 
  -5  -4   0    2.88    0.20 
  -5   4   0    2.86    0.26 
  -5   4   0    2.88    0.28 
  -6  -4   0   14.86    0.64 
  -6  -4   0   14.08    0.50 
  -6   4   0   14.64    0.63 
  -6   4   0   13.62    0.56 
  -7  -4   0   14.97    0.68 
  -7   4   0   13.65    0.66 
  -7   4   0   14.19    0.61 
  -8  -4   0    0.60    0.24 
  -8   4   0    0.35    0.22 
  -8   4   0    0.38    0.20 
   1   5   0  181.59    3.86 
  -1   5   0  181.49    3.89 
   1   5   0  178.12    3.89 
  -1   5   0  179.71    3.93 
  -2  -5   0    0.37    0.10 
  -2  -5   0    0.47    0.09 
   2   5   0    0.47    0.08 
  -2   5   0    0.36    0.10 
  -2   5   0    0.37    0.10 
   2   5   0    0.49    0.08 
  -3  -5   0    7.15    0.28 
  -3  -5   0    6.79    0.33 
  -3   5   0    6.71    0.31 
  -3   5   0    6.54    0.32 
   3   5   0    7.08    0.25 
  -4  -5   0    7.37    0.30 
  -4  -5   0    7.96    0.39 
  -4   5   0    7.29    0.36 
  -4   5   0    7.73    0.38 
  -5  -5   0    5.74    0.27 
  -5  -5   0    5.74    0.38 
  -5   5   0    5.55    0.36 
  -5   5   0    5.72    0.33 
  -6  -5   0    0.03    0.16 
  -6   5   0    0.07    0.16 
  -6   5   0   -0.14    0.12 
  -7  -5   0   12.11    0.62 
  -7   5   0   12.48    0.63 
  -7   5   0   12.56    0.58 
  -8  -5   0    9.69    0.62 
  -8   5   0   10.88    0.57 
  -8   5   0    9.30    0.61 
   0   6   0  312.95    6.75 
   0   6   0  317.03    6.85 
   1   6   0   25.64    0.66 
  -1   6   0   24.13    0.65 
   1   6   0   25.12    0.62 
  -1   6   0   24.16    0.69 
  -2  -6   0   45.41    1.17 
   2   6   0   47.92    1.13 
   2   6   0   48.74    1.11 
  -2   6   0   47.74    1.20 
  -2   6   0   48.14    1.17 
  -3  -6   0    7.51    0.35 
  -3  -6   0    6.87    0.30 
   3   6   0    7.71    0.28 
  -3   6   0    8.06    0.36 
  -3   6   0    7.05    0.34 
  -4  -6   0    7.21    0.30 
  -4  -6   0    6.65    0.37 
   4   6   0    7.01    0.27 
  -4   6   0    6.79    0.36 
  -4   6   0    6.49    0.35 
  -5  -6   0    9.67    0.48 
  -5   6   0    8.49    0.44 
  -5   6   0    8.71    0.46 
  -6  -6   0    3.76    0.37 
  -6   6   0    3.85    0.34 
  -6   6   0    3.73    0.36 
  -7  -6   0    6.17    0.46 
  -7   6   0    6.62    0.45 
  -7   6   0    6.37    0.47 
   1   7   0   56.94    1.36 
  -1   7   0   57.13    1.34 
  -1   7   0   56.79    1.40 
   1   7   0   56.88    1.31 
  -2  -7   0    0.11    0.09 
  -2   7   0    0.25    0.10 
   2   7   0    0.01    0.07 
  -2   7   0   -0.01    0.10 
   2   7   0    0.14    0.07 
  -3  -7   0   13.53    0.51 
  -3  -7   0   14.46    0.48 
  -3   7   0   13.96    0.51 
  -3   7   0   14.60    0.54 
   3   7   0   14.37    0.45 
   3   7   0   14.44    0.43 
  -4  -7   0    4.43    0.32 
  -4  -7   0    4.89    0.27 
   4   7   0    4.89    0.23 
  -4   7   0    4.76    0.32 
  -4   7   0    4.32    0.30 
  -5  -7   0    8.01    0.45 
  -5   7   0    9.00    0.47 
  -5   7   0    8.71    0.48 
  -6  -7   0    3.35    0.37 
  -6   7   0    3.06    0.34 
  -6   7   0    3.53    0.36 
  -7   7   0    1.83    0.30 
  -7   7   0    1.83    0.30 
   0   8   0   32.29    0.89 
   0   8   0   32.88    0.82 
   1   8   0    0.98    0.12 
  -1   8   0    0.88    0.16 
  -1   8   0    1.01    0.14 
   1   8   0    0.81    0.14 
  -2  -8   0    8.31    0.36 
  -2   8   0    8.50    0.40 
   2   8   0    8.66    0.30 
  -2   8   0    8.81    0.36 
   2   8   0    8.71    0.34 
  -3  -8   0    0.05    0.12 
  -3   8   0    0.11    0.11 
   3   8   0    0.04    0.08 
   3   8   0    0.08    0.08 
  -3   8   0    0.17    0.12 
  -4  -8   0   19.07    0.67 
  -4   8   0   18.33    0.67 
  -4   8   0   17.33    0.64 
  -5   8   0    3.33    0.34 
  -5   8   0    3.71    0.34 
  -6   8   0    1.64    0.28 
  -6   8   0    2.54    0.34 
  -7   8   0    1.03    0.26 
  -7   8   0    1.25    0.28 
   0   9   0    0.48    0.10 
  -1   9   0    2.16    0.24 
   1   9   0    2.32    0.17 
   1   9   0    2.13    0.21 
  -1   9   0    2.65    0.20 
  -2  -9   0    2.41    0.23 
   2   9   0    2.22    0.18 
   2   9   0    2.28    0.20 
  -2   9   0    2.47    0.25 
  -2   9   0    2.60    0.22 
  -3   9   0    9.61    0.47 
  -3   9   0   10.02    0.43 
   3   9   0   10.27    0.39 
  -4   9   0    1.07    0.22 
  -4   9   0    1.29    0.21 
  -5   9   0   10.15    0.51 
  -5   9   0    9.86    0.54 
  -6   9   0    4.23    0.39 
  -6   9   0    4.29    0.41 
   0  10   0  109.96    2.53 
   0  10   0  109.12    2.58 
   1  10   0   29.50    0.86 
  -1  10   0   28.58    0.80 
  -1  10   0   29.40    0.90 
  -2  10   0    4.93    0.30 
  -2  10   0    5.42    0.36 
   2  10   0    5.23    0.30 
  -3  10   0    1.49    0.21 
  -3  10   0    1.27    0.23 
  -4  10   0    6.04    0.43 
  -4  10   0    6.11    0.39 
  -5  10   0   -0.02    0.15 
  -5  10   0    0.10    0.20 
  -1  11   0    6.43    0.39 
   1  11   0    6.05    0.36 
   2  11   0    0.10    0.15 
  -2  11   0    0.11    0.16 
  -3  11   0    5.13    0.34 
  -3  11   0    5.60    0.41 
  -4  11   0    2.53    0.29 
  -4  11   0    3.58    0.37 
  -5  11   0    0.75    0.25 
  -5  11   0    1.19    0.24 
   0  12   0   13.84    0.59 
  -1  12   0   -0.33    0.13 
   1  12   0    0.16    0.15 
  -2  12   0    3.95    0.38 
  -3  12   0    1.81    0.29 
  -1  13   0    4.51    0.40 
  -2  13   0    0.50    0.21 
  -9   0   1    0.58    0.25 
  -8   0   1    0.03    0.21 
  -7   0   1    9.66    0.41 
  -7   0   1   10.15    0.57 
  -6   0   1   58.80    1.45 
  -6   0   1   61.45    1.66 
  -5   0   1   59.37    1.42 
  -5   0   1   63.00    1.63 
  -4   0   1  184.84    4.08 
  -4   0   1  177.16    3.89 
   3   0  -1    0.89    0.09 
  -3   0   1    1.00    0.10 
  -3   0   1    0.68    0.14 
  -2   0   1  128.56    2.67 
   2   0  -1  129.51    2.67 
  -2   0   1  116.53    2.76 
  -1   0   1   86.44    1.84 
  -1   0   1   82.97    1.88 
  -1   0   1   87.80    1.85 
   1   0  -1   80.80    1.85 
   1   0  -1   87.18    1.85 
   1   0  -1   89.81    1.89 
  -1   0   1   85.70    1.83 
   1   0  -1   88.03    1.84 
   0   0   1  247.46    5.73 
   0   0  -1  272.68    5.82 
   0   0  -1  271.57    5.73 
   0   0   1  268.86    5.71 
   1   0   1  344.66    7.73 
  -1   0  -1  362.26    7.84 
  -1   0  -1  356.44    7.77 
  -2   0  -1  337.69    7.34 
  -2   0  -1  328.67    7.10 
  -3   0  -1   12.76    0.40 
  -3   0  -1   12.19    0.43 
  -4   0  -1   37.99    1.02 
  -4   0  -1   35.83    0.95 
  -5   0  -1   27.72    0.86 
  -5   0  -1   26.67    0.79 
  -6   0  -1   41.78    1.22 
  -6   0  -1   40.23    1.12 
  -7   0  -1    2.24    0.27 
  -7   0  -1    2.58    0.33 
  -8   0  -1    0.19    0.18 
  -8   0  -1    0.38    0.21 
  -9  -1   1    3.51    0.46 
  -9   1   1    4.07    0.49 
  -8  -1   1   14.20    0.71 
  -8   1   1   13.58    0.70 
  -8   1   1   13.29    0.56 
  -7  -1   1    0.86    0.27 
  -7  -1   1    0.77    0.16 
  -7   1   1    0.81    0.16 
  -7   1   1    0.90    0.26 
  -6  -1   1    6.17    0.29 
  -6  -1   1    5.79    0.43 
  -6   1   1    6.24    0.31 
  -6   1   1    6.05    0.42 
  -5  -1   1   29.84    0.95 
  -5  -1   1   29.51    0.76 
  -5   1   1   29.41    0.93 
  -5   1   1   30.16    0.79 
  -4  -1   1   15.67    0.43 
  -4  -1   1   15.51    0.58 
  -4   1   1   15.58    0.46 
  -4   1   1   15.13    0.57 
  -3  -1   1   53.29    1.37 
  -3  -1   1   54.72    1.21 
  -3   1   1   55.45    1.37 
   3   1  -1   55.29    1.21 
  -3   1   1   55.40    1.26 
  -2  -1   1  271.76    5.94 
  -2  -1   1  279.64    5.97 
   2  -1  -1  290.79    6.09 
  -2   1   1  267.33    5.96 
   2   1  -1  285.99    5.95 
   2   1  -1  270.36    6.13 
  -2   1   1  279.60    6.10 
   1  -1  -1    0.97    0.11 
  -1  -1   1    0.87    0.08 
   1  -1  -1    0.94    0.08 
   1   1  -1    0.90    0.08 
  -1   1   1    0.97    0.07 
  -1   1   1    0.92    0.09 
  -1   1   1    1.07    0.10 
  -1   1   1    1.06    0.10 
   0  -1   1  163.63    3.48 
   0  -1   1  156.63    3.40 
   0  -1  -1  158.77    3.38 
   0  -1  -1  155.34    3.44 
   0   1  -1  158.45    3.45 
   0   1   1  160.45    3.81 
   0   1  -1  150.31    3.39 
   0   1   1  163.11    3.43 
  -1  -1  -1  755.54   16.46 
  -1  -1  -1  750.83   16.57 
   1  -1   1  793.91   16.62 
   1  -1   1  791.52   16.50 
  -1   1  -1  758.07   16.59 
   1   1   1  803.99   16.50 
  -1   1  -1  717.58   16.49 
   1   1   1  778.83   16.55 
  -2  -1  -1    0.08    0.08 
  -2  -1  -1    0.20    0.08 
  -2   1  -1   -0.01    0.08 
  -2   1  -1    0.10    0.07 
  -3  -1  -1  114.15    2.52 
  -3  -1  -1  114.25    2.56 
  -3   1  -1  117.21    2.57 
  -3   1  -1  107.09    2.51 
  -4  -1  -1    0.39    0.11 
  -4  -1  -1    0.36    0.13 
  -4   1  -1    0.27    0.10 
  -4   1  -1    0.31    0.12 
  -5  -1  -1   13.78    0.49 
  -5  -1  -1   14.43    0.56 
  -5   1  -1   14.32    0.57 
  -5   1  -1   14.43    0.51 
  -6  -1  -1   10.40    0.44 
  -6  -1  -1   10.28    0.51 
  -6   1  -1    9.75    0.44 
  -6   1  -1   10.14    0.52 
  -7  -1  -1    5.28    0.42 
  -7  -1  -1    5.42    0.36 
  -7   1  -1    5.31    0.37 
  -7   1  -1    4.61    0.40 
  -8  -1  -1    1.24    0.35 
  -8  -1  -1    1.18    0.27 
  -8   1  -1    1.11    0.27 
  -8   1  -1    1.16    0.24 
  -9  -2   1    4.67    0.51 
  -9   2   1    4.74    0.51 
  -8  -2   1    0.21    0.22 
  -8   2   1    0.05    0.14 
  -8   2   1    0.14    0.21 
  -7  -2   1   20.79    0.86 
  -7   2   1   21.77    0.84 
  -7   2   1   20.67    0.69 
  -6  -2   1    1.68    0.27 
  -6  -2   1    1.40    0.15 
  -6   2   1    1.53    0.27 
  -6   2   1    1.43    0.19 
  -5  -2   1   24.13    0.81 
  -5  -2   1   22.66    0.61 
  -5   2   1   21.12    0.76 
  -5   2   1   23.59    0.67 
  -4  -2   1   25.94    0.83 
  -4  -2   1   26.87    0.66 
   4   2  -1   28.66    0.68 
  -4   2   1   26.92    0.72 
  -4   2   1   25.48    0.81 
  -3  -2   1    7.43    0.21 
  -3   2   1    6.89    0.32 
  -3   2   1    6.69    0.27 
   3   2  -1    7.35    0.20 
  -2  -2   1   80.26    1.86 
  -2  -2   1   82.75    1.72 
   2   2  -1   81.11    1.79 
  -2   2   1   79.40    1.84 
   2   2  -1   82.14    1.72 
  -2   2   1   80.80    1.80 
   1  -2  -1    0.12    0.07 
  -1  -2   1    0.09    0.05 
  -1  -2   1    0.09    0.03 
   1  -2  -1    0.19    0.07 
  -1   2   1    0.10    0.05 
  -1   2   1    0.02    0.07 
   1   2  -1    0.16    0.03 
   1   2  -1    0.05    0.05 
  -1   2   1    0.07    0.06 
   0  -2  -1   76.51    1.71 
   0  -2   1   78.44    1.67 
   0   2  -1   78.24    1.68 
   0   2  -1   75.83    1.67 
   0   2   1   78.56    1.69 
   0   2   1   74.62    1.70 
  -1  -2  -1    4.93    0.17 
  -1  -2  -1    5.18    0.21 
  -1   2  -1    4.92    0.20 
  -1   2  -1    5.13    0.20 
   1   2   1    5.00    0.18 
   1   2   1    5.23    0.20 
  -2  -2  -1    9.38    0.32 
  -2  -2  -1    9.29    0.31 
  -2   2  -1    9.70    0.32 
  -2   2  -1    9.81    0.34 
  -3  -2  -1   62.89    1.52 
  -3  -2  -1   65.01    1.50 
  -3   2  -1   64.41    1.54 
  -3   2  -1   63.21    1.50 
  -4  -2  -1  121.07    2.79 
  -4  -2  -1  119.81    2.73 
  -4   2  -1  119.73    2.74 
  -4   2  -1  125.31    2.81 
  -5  -2  -1   25.99    0.77 
  -5  -2  -1   25.84    0.83 
  -5   2  -1   25.96    0.78 
  -5   2  -1   27.21    0.85 
  -6  -2  -1   17.95    0.61 
  -6  -2  -1   16.57    0.66 
  -6   2  -1   15.84    0.67 
  -6   2  -1   17.65    0.63 
  -7  -2  -1    0.46    0.21 
  -7  -2  -1    0.21    0.15 
  -7   2  -1    0.38    0.18 
  -7   2  -1    0.20    0.16 
  -8  -2  -1    2.10    0.33 
  -8   2  -1    1.97    0.30 
  -8   2  -1    2.35    0.35 
  -8  -3   1    4.39    0.47 
  -8   3   1    4.80    0.46 
  -8   3   1    5.18    0.38 
  -7  -3   1    0.13    0.19 
  -7   3   1    0.05    0.13 
  -7   3   1    0.09    0.17 
  -6  -3   1   22.91    0.65 
  -6  -3   1   23.11    0.86 
  -6   3   1   23.32    0.84 
  -6   3   1   23.18    0.73 
  -5  -3   1    0.04    0.13 
  -5  -3   1   -0.12    0.06 
  -5   3   1   -0.07    0.11 
  -5   3   1    0.01    0.10 
  -4  -3   1   41.96    1.17 
  -4  -3   1   42.18    0.97 
   4   3  -1   42.76    0.95 
  -4   3   1   41.29    1.06 
  -4   3   1   41.61    1.14 
  -3  -3   1  100.31    2.17 
  -3  -3   1  102.15    2.35 
   3   3  -1  101.37    2.24 
  -3   3   1   98.42    2.31 
   3   3  -1  101.36    2.16 
  -2  -3   1   36.17    0.93 
   2   3  -1   36.15    0.87 
  -2   3   1   37.05    0.90 
   2   3  -1   36.51    0.80 
  -2   3   1   36.43    0.90 
   2   3  -1   37.41    0.81 
   1  -3  -1   87.54    1.90 
  -1  -3   1   89.25    1.87 
   1   3  -1   87.36    1.86 
  -1   3   1   84.56    1.88 
   1   3  -1   85.09    1.90 
  -1   3   1   85.94    1.92 
   0  -3  -1   56.80    1.23 
   0  -3  -1   57.39    1.33 
   0  -3   1   59.73    1.29 
   0   3   1   56.56    1.22 
   0   3   1   58.00    1.30 
   0   3  -1   57.95    1.29 
   0   3  -1   55.84    1.28 
  -1  -3  -1    0.25    0.06 
  -1  -3  -1    0.14    0.04 
  -1  -3  -1    0.14    0.08 
  -1   3  -1    0.24    0.08 
  -1   3  -1    0.12    0.08 
  -2  -3  -1   11.62    0.38 
  -2  -3  -1   13.12    0.36 
  -2  -3  -1   12.45    0.39 
  -2   3  -1   12.74    0.42 
   2   3   1   12.77    0.39 
  -2   3  -1   12.70    0.40 
  -3  -3  -1   52.59    1.31 
  -3  -3  -1   56.04    1.30 
  -3   3  -1   53.96    1.31 
  -3   3  -1   54.00    1.35 
  -4  -3  -1    8.79    0.38 
  -4  -3  -1    8.24    0.34 
  -4   3  -1    8.95    0.37 
  -4   3  -1    8.09    0.39 
  -5  -3  -1   20.14    0.64 
  -5  -3  -1   19.85    0.69 
  -5   3  -1   20.48    0.67 
  -5   3  -1   19.56    0.70 
  -6  -3  -1   21.40    0.78 
  -6  -3  -1   21.07    0.71 
  -6   3  -1   23.06    0.81 
  -6   3  -1   22.00    0.75 
  -7  -3  -1    5.45    0.48 
  -7  -3  -1    5.29    0.42 
  -7   3  -1    5.41    0.40 
  -7   3  -1    5.54    0.44 
  -8  -3  -1    4.15    0.44 
  -8   3  -1    4.59    0.45 
  -8   3  -1    4.15    0.40 
  -8  -4   1   -0.02    0.21 
  -8   4   1    0.26    0.21 
  -8   4   1    0.11    0.17 
  -7  -4   1   19.03    0.82 
  -7   4   1   17.75    0.75 
  -7   4   1   17.10    0.66 
  -6  -4   1    0.04    0.17 
  -6   4   1    0.06    0.14 
  -6   4   1    0.46    0.18 
  -5  -4   1   36.88    0.89 
  -5  -4   1   35.93    1.11 
  -5   4   1   36.40    1.07 
  -5   4   1   37.09    1.01 
  -4  -4   1   35.62    0.84 
  -4  -4   1   36.18    1.04 
  -4   4   1   36.00    1.00 
   4   4  -1   35.95    0.82 
  -4   4   1   34.70    0.95 
  -3  -4   1   48.23    1.06 
  -3  -4   1   47.55    1.23 
  -3   4   1   44.37    1.18 
   3   4  -1   47.03    1.05 
  -3   4   1   45.13    1.17 
   3   4  -1   49.50    1.05 
   3   4  -1   47.82    1.13 
   2   4  -1    1.00    0.08 
   2   4  -1    1.14    0.10 
  -2   4   1    1.35    0.15 
  -2   4   1    0.83    0.12 
   2   4  -1    0.91    0.10 
  -1  -4   1  149.74    3.12 
   1  -4  -1  144.65    3.14 
   1   4  -1  148.14    3.15 
  -1   4   1  145.02    3.18 
  -1   4   1  140.56    3.12 
   1   4  -1  144.61    3.12 
   0  -4  -1   94.97    2.20 
   0  -4  -1   96.63    2.09 
   0   4  -1  100.31    2.16 
   0   4   1   99.23    2.09 
   0   4  -1   96.73    2.15 
   0   4   1  100.00    2.18 
  -1  -4  -1    5.97    0.27 
  -1  -4  -1    6.13    0.20 
  -1  -4  -1    6.68    0.18 
  -1   4  -1    6.96    0.26 
  -1   4  -1    6.36    0.25 
   1   4   1    6.47    0.25 
  -2  -4  -1   17.85    0.52 
  -2  -4  -1   18.34    0.45 
  -2  -4  -1   17.23    0.49 
  -2   4  -1   16.96    0.52 
  -2   4  -1   17.00    0.53 
  -3  -4  -1    0.05    0.09 
  -3  -4  -1    0.12    0.09 
  -3   4  -1   -0.05    0.08 
  -3   4  -1    0.05    0.11 
  -4  -4  -1   18.24    0.57 
  -4  -4  -1   18.94    0.61 
  -4   4  -1   17.71    0.60 
  -4   4  -1   18.13    0.63 
  -5  -4  -1   41.52    1.15 
  -5  -4  -1   41.35    1.09 
  -5   4  -1   41.07    1.18 
  -5   4  -1   39.57    1.12 
  -6  -4  -1   10.28    0.51 
  -6  -4  -1   10.49    0.47 
  -6   4  -1   11.01    0.55 
  -6   4  -1   11.37    0.51 
  -7  -4  -1    0.33    0.19 
  -7   4  -1    0.09    0.17 
  -7   4  -1    0.26    0.19 
  -8  -4  -1   10.10    0.59 
  -8   4  -1    9.61    0.57 
  -8   4  -1   10.15    0.62 
  -8  -5   1    0.30    0.23 
  -8   5   1    0.34    0.21 
  -8   5   1    0.16    0.19 
  -7  -5   1    9.41    0.58 
  -7   5   1    8.49    0.53 
  -7   5   1    8.23    0.46 
  -6  -5   1   11.86    0.61 
  -6   5   1   13.01    0.59 
  -6   5   1   13.03    0.54 
  -5  -5   1    0.73    0.21 
  -5  -5   1    0.39    0.09 
  -5   5   1    0.29    0.12 
  -5   5   1    0.35    0.15 
  -4  -5   1   21.83    0.74 
  -4  -5   1   20.76    0.55 
  -4   5   1   21.65    0.68 
  -4   5   1   21.27    0.69 
   4   5  -1   21.81    0.53 
   4   5  -1   21.51    0.53 
  -3  -5   1    5.75    0.32 
  -3   5   1    5.44    0.28 
  -3   5   1    5.94    0.30 
   3   5  -1    6.03    0.20 
   3   5  -1    5.77    0.25 
   3   5  -1    6.10    0.20 
   2   5  -1   46.97    1.04 
   2   5  -1   43.94    1.01 
   2   5  -1   42.41    1.05 
  -2   5   1   44.67    1.11 
  -2   5   1   43.03    1.07 
   1   5  -1  232.98    5.00 
   1   5  -1  234.00    4.98 
  -1   5   1  231.38    5.10 
  -1   5   1  234.67    5.05 
   0  -5  -1   22.90    0.55 
   0   5   1   24.46    0.64 
   0   5  -1   23.20    0.61 
   0   5  -1   22.79    0.61 
   0   5   1   23.91    0.55 
  -1  -5  -1    5.85    0.17 
  -1  -5  -1    5.47    0.20 
  -1  -5  -1    5.24    0.27 
   1   5   1    5.60    0.17 
  -1   5  -1    5.68    0.26 
   1   5   1    5.00    0.24 
  -1   5  -1    5.64    0.25 
  -2  -5  -1   55.15    1.32 
  -2  -5  -1   59.77    1.30 
  -2  -5  -1   57.15    1.37 
  -2   5  -1   56.17    1.38 
  -2   5  -1   55.03    1.37 
   2   5   1   58.27    1.34 
  -3  -5  -1  143.03    3.18 
  -3  -5  -1  143.41    3.17 
  -3   5  -1  143.39    3.21 
  -3   5  -1  139.68    3.22 
  -4  -5  -1   10.97    0.45 
  -4  -5  -1   11.61    0.43 
  -4   5  -1   12.05    0.50 
  -4   5  -1   11.40    0.47 
  -5  -5  -1    4.78    0.30 
  -5  -5  -1    6.03    0.35 
  -5   5  -1    5.27    0.37 
  -5   5  -1    5.23    0.35 
  -6  -5  -1   10.44    0.51 
  -6   5  -1   10.88    0.56 
  -6   5  -1   10.87    0.53 
  -7  -5  -1    5.06    0.40 
  -7   5  -1    3.96    0.38 
  -7   5  -1    4.15    0.38 
  -8  -6   1    0.06    0.21 
  -8   6   1   -0.03    0.18 
  -8   6   1   -0.28    0.16 
  -7  -6   1    4.61    0.44 
  -7   6   1    4.39    0.40 
  -7   6   1    5.11    0.39 
  -6  -6   1    4.75    0.42 
  -6   6   1    3.74    0.34 
  -6   6   1    4.55    0.35 
  -5  -6   1   20.18    0.77 
  -5   6   1   20.84    0.72 
  -5   6   1   20.23    0.70 
  -4  -6   1    7.48    0.27 
  -4  -6   1    8.05    0.42 
   4   6  -1    7.56    0.25 
   4   6  -1    8.00    0.32 
  -4   6   1    7.55    0.38 
  -4   6   1    7.89    0.38 
  -3  -6   1   -0.02    0.11 
  -3   6   1    0.07    0.09 
   3   6  -1    0.04    0.08 
  -3   6   1   -0.03    0.08 
   3   6  -1    0.01    0.05 
  -2   6   1    9.32    0.33 
   2   6  -1    9.37    0.32 
   2   6  -1    9.32    0.30 
  -2   6   1    9.22    0.38 
  -1   6   1  147.38    3.27 
   1   6  -1  145.35    3.20 
   1   6  -1  149.93    3.21 
  -1   6   1  144.24    3.17 
   0  -6  -1  111.87    2.39 
   0   6  -1  108.76    2.46 
   0   6   1  111.09    2.49 
   0   6  -1  109.83    2.45 
   0   6   1  110.11    2.38 
  -1  -6  -1   26.98    0.62 
  -1  -6  -1   25.54    0.65 
  -1  -6  -1   26.41    0.75 
   1   6   1   26.21    0.61 
   1   6   1   26.31    0.72 
  -1   6  -1   26.79    0.72 
  -1   6  -1   26.70    0.73 
  -2  -6  -1   73.60    1.74 
  -2  -6  -1   74.09    1.68 
  -2   6  -1   73.85    1.74 
   2   6   1   73.74    1.70 
  -2   6  -1   71.73    1.75 
  -3  -6  -1    1.30    0.16 
  -3  -6  -1    0.94    0.15 
   3   6   1    0.95    0.13 
  -3   6  -1    0.85    0.15 
  -3   6  -1    1.43    0.20 
  -4  -6  -1   16.59    0.59 
  -4  -6  -1   17.06    0.58 
  -4   6  -1   19.28    0.65 
  -4   6  -1   17.95    0.63 
  -5  -6  -1    5.07    0.31 
  -5  -6  -1    5.46    0.35 
  -5   6  -1    5.69    0.39 
  -5   6  -1    4.45    0.35 
  -6  -6  -1    7.91    0.45 
  -6   6  -1    8.33    0.48 
  -6   6  -1    8.10    0.50 
  -7   6  -1    0.19    0.21 
  -7   6  -1   -0.07    0.17 
  -7  -7   1    0.71    0.25 
  -7   7   1    0.53    0.22 
  -7   7   1    0.47    0.20 
  -6  -7   1    3.86    0.38 
  -6   7   1    3.97    0.35 
  -6   7   1    3.72    0.35 
  -5  -7   1    3.03    0.34 
  -5   7   1    3.10    0.30 
  -5   7   1    2.93    0.30 
  -4  -7   1   25.32    0.84 
   4   7  -1   25.43    0.71 
  -4   7   1   24.67    0.80 
  -4   7   1   25.80    0.79 
  -3  -7   1    5.18    0.33 
  -3   7   1    5.80    0.33 
   3   7  -1    5.64    0.27 
  -3   7   1    6.05    0.30 
   3   7  -1    5.72    0.23 
  -2   7   1    9.68    0.34 
   2   7  -1    9.48    0.34 
   2   7  -1    9.64    0.32 
  -2   7   1    8.89    0.39 
   1   7  -1   21.22    0.59 
   1   7  -1   20.61    0.58 
  -1   7   1   20.62    0.64 
  -1   7   1   21.00    0.55 
   0   7   1   43.62    0.99 
   0   7  -1   44.14    1.08 
   0   7   1   42.55    1.11 
   0   7  -1   42.82    1.07 
  -1  -7  -1   38.98    0.89 
  -1   7  -1   38.97    1.00 
  -1   7  -1   39.26    1.03 
   1   7   1   39.49    0.90 
   1   7   1   39.84    1.01 
  -2  -7  -1    6.32    0.27 
  -2  -7  -1    6.75    0.33 
  -2   7  -1    6.18    0.31 
   2   7   1    6.71    0.29 
  -2   7  -1    6.30    0.32 
  -3  -7  -1   35.42    0.93 
  -3  -7  -1   35.21    0.96 
  -3   7  -1   34.44    0.98 
  -3   7  -1   35.82    1.00 
   3   7   1   34.49    0.92 
  -4  -7  -1    0.17    0.12 
  -4  -7  -1    0.27    0.12 
  -4   7  -1    0.26    0.14 
   4   7   1    0.27    0.11 
  -4   7  -1    0.14    0.15 
  -5   7  -1    8.46    0.47 
  -5   7  -1    8.44    0.47 
  -6   7  -1    2.06    0.31 
  -6   7  -1    1.37    0.26 
  -7   7  -1    3.87    0.43 
  -7   7  -1    4.19    0.43 
  -7   8   1    4.97    0.42 
  -7   8   1    4.39    0.41 
  -6  -8   1    0.08    0.22 
  -6   8   1    0.44    0.20 
  -6   8   1    0.31    0.19 
  -5  -8   1   12.13    0.59 
  -5   8   1   10.61    0.52 
  -5   8   1   12.29    0.54 
  -4  -8   1    3.09    0.32 
   4   8  -1    3.37    0.23 
  -4   8   1    3.42    0.30 
  -4   8   1    3.24    0.28 
  -3  -8   1    5.53    0.36 
  -3   8   1    5.16    0.29 
  -3   8   1    5.15    0.33 
   3   8  -1    6.17    0.28 
   3   8  -1    5.85    0.25 
   2   8  -1   22.08    0.62 
   2   8  -1   22.47    0.63 
  -2   8   1   22.59    0.63 
  -2   8   1   22.46    0.72 
   1   8  -1    0.06    0.09 
   1   8  -1    0.08    0.09 
  -1   8   1    0.04    0.07 
  -1   8   1    0.15    0.11 
   0   8  -1    9.30    0.35 
   0   8   1    8.92    0.38 
   0   8   1    8.84    0.28 
   0   8  -1    8.61    0.36 
   1   8   1    2.72    0.21 
  -1   8  -1    3.10    0.24 
   1   8   1    2.93    0.14 
  -1   8  -1    2.75    0.21 
  -2  -8  -1    1.72    0.18 
  -2   8  -1    1.40    0.19 
   2   8   1    1.69    0.18 
  -2   8  -1    1.72    0.20 
  -3  -8  -1   17.44    0.61 
   3   8   1   18.85    0.58 
  -3   8  -1   18.97    0.66 
  -3   8  -1   17.10    0.62 
  -4  -8  -1   29.86    0.89 
   4   8   1   27.74    0.82 
  -4   8  -1   32.80    0.98 
  -4   8  -1   31.12    0.94 
  -5   8  -1    3.36    0.35 
  -5   8  -1    3.88    0.35 
  -6   8  -1    5.35    0.44 
  -6   8  -1    7.58    0.49 
  -6   9   1    5.86    0.45 
  -6   9   1    5.95    0.44 
  -5   9   1    0.19    0.17 
  -5   9   1   -0.01    0.14 
  -4  -9   1    2.92    0.32 
  -4   9   1    3.24    0.32 
  -4   9   1    2.77    0.27 
   4   9  -1    2.94    0.25 
  -3  -9   1   14.90    0.58 
  -3   9   1   13.97    0.50 
   3   9  -1   13.81    0.47 
  -3   9   1   13.15    0.57 
  -2   9   1    0.03    0.12 
   2   9  -1    0.04    0.09 
  -2   9   1    0.07    0.09 
   2   9  -1    0.22    0.10 
   1   9  -1   -0.09    0.09 
   1   9  -1    0.07    0.09 
  -1   9   1   -0.06    0.11 
  -1   9   1    0.04    0.08 
   0   9   1   22.39    0.71 
   0   9  -1   21.30    0.68 
   0   9  -1   22.01    0.65 
   0   9   1   22.41    0.71 
  -1   9  -1   20.46    0.67 
  -1   9  -1   20.31    0.64 
   1   9   1   21.56    0.67 
   2   9   1    1.14    0.17 
  -2   9  -1    1.21    0.18 
  -2   9  -1    1.39    0.20 
  -3   9  -1    0.69    0.18 
  -3   9  -1    0.90    0.18 
   3   9   1    0.53    0.13 
  -4   9  -1    3.70    0.35 
  -4   9  -1    3.33    0.32 
  -5   9  -1    1.66    0.28 
  -5   9  -1    1.74    0.29 
  -6   9  -1    4.50    0.43 
  -6   9  -1    4.98    0.43 
  -6  10   1    0.62    0.22 
  -6  10   1    1.05    0.24 
  -5  10   1   13.99    0.65 
  -5  10   1   13.66    0.60 
  -4  10   1   15.92    0.60 
  -4  10   1   16.61    0.69 
  -3  10   1    3.24    0.32 
  -3  10   1    3.41    0.26 
  -2  10   1    0.72    0.19 
   2  10  -1    0.27    0.11 
   2  10  -1    0.23    0.12 
  -2  10   1    0.25    0.14 
   1  10  -1    3.94    0.25 
  -1  10   1    4.25    0.32 
   1  10  -1    3.85    0.26 
   0  10   1    2.77    0.27 
   0  10  -1    2.63    0.25 
   0  10  -1    3.37    0.24 
  -1  10  -1   10.06    0.42 
   1  10   1    9.86    0.44 
  -1  10  -1   10.24    0.46 
  -2  10  -1    8.29    0.43 
  -2  10  -1    8.02    0.40 
   2  10   1    7.95    0.39 
   3  10   1    0.97    0.20 
  -3  10  -1    0.44    0.17 
  -3  10  -1    0.54    0.19 
  -4  10  -1    0.36    0.17 
  -4  10  -1    0.42    0.20 
  -5  10  -1    7.36    0.50 
  -5  10  -1    6.49    0.45 
  -5  11   1    1.82    0.34 
  -5  11   1    1.56    0.29 
  -4  11   1    3.27    0.37 
  -3  11   1    0.66    0.20 
  -2  11   1    9.25    0.49 
  -1  11   1    2.33    0.28 
   1  11  -1    2.24    0.24 
   0  11  -1    5.33    0.35 
   0  11   1    6.23    0.39 
  -1  11  -1   13.11    0.56 
  -1  11  -1   13.14    0.51 
   1  11   1   12.95    0.54 
  -2  11  -1    0.89    0.19 
  -2  11  -1    0.83    0.21 
   2  11   1    0.78    0.17 
  -3  11  -1    5.34    0.36 
  -3  11  -1    4.73    0.38 
  -4  11  -1    0.51    0.20 
  -4  11  -1    0.18    0.21 
  -4  12   1    0.01    0.18 
  -3  12   1    3.77    0.38 
  -2  12   1    0.35    0.18 
  -1  12   1    4.78    0.38 
   0  12  -1    6.31    0.39 
   0  12   1    5.91    0.41 
   1  12   1    0.16    0.16 
  -1  12  -1    0.62    0.21 
  -2  12  -1    2.07    0.29 
  -3  12  -1    2.07    0.31 
  -3  12  -1    1.74    0.30 
  -2  13   1    0.26    0.21 
  -1  13   1    0.63    0.21 
   0  13   1    1.87    0.28 
   0  13  -1    1.74    0.27 
  -1  13  -1    2.26    0.30 
  -9   0   2    2.85    0.46 
  -8   0   2    4.09    0.47 
  -7   0   2    3.40    0.24 
  -7   0   2    4.03    0.43 
  -6   0   2   65.96    1.79 
  -6   0   2   63.64    1.52 
  -5   0   2    1.16    0.13 
  -5   0   2    1.05    0.22 
  -4   0   2   36.84    1.06 
  -4   0   2   36.63    0.87 
  -3   0   2   38.39    1.02 
  -3   0   2   37.67    0.87 
   3   0  -2   37.58    0.87 
   2   0  -2   -0.03    0.06 
  -2   0   2    0.05    0.05 
  -2   0   2    0.02    0.10 
   2   0  -2    0.09    0.05 
  -2   0   2    0.04    0.05 
   1   0  -2  139.30    3.00 
   1   0  -2  134.39    3.00 
  -1   0   2  142.98    3.00 
  -1   0   2  142.89    3.00 
   0   0  -2  309.17    6.93 
   0   0   2  323.78    6.68 
   0   0   2  305.23    6.71 
   0   0  -2  311.45    6.76 
  -1   0  -2 1000.00   21.51 
  -2   0  -2  487.90   11.02 
  -2   0  -2  530.64   11.16 
  -3   0  -2    0.68    0.13 
  -3   0  -2    0.84    0.14 
  -4   0  -2   25.75    0.75 
  -4   0  -2   24.73    0.75 
  -5   0  -2   21.81    0.70 
  -5   0  -2   20.26    0.70 
  -6   0  -2    0.45    0.17 
  -6   0  -2    0.32    0.15 
  -7   0  -2    4.93    0.39 
  -7   0  -2    4.78    0.37 
  -8   0  -2    3.78    0.40 
  -8   0  -2    3.57    0.39 
  -9  -1   2    5.76    0.55 
  -9   1   2    5.45    0.54 
  -8  -1   2    5.62    0.52 
  -8   1   2    6.09    0.35 
  -8   1   2    5.61    0.48 
  -7  -1   2   13.12    0.69 
  -7  -1   2   11.77    0.43 
  -7   1   2   12.03    0.63 
  -7   1   2   11.61    0.45 
  -6  -1   2    9.73    0.34 
  -6  -1   2    9.79    0.54 
  -6   1   2    8.94    0.53 
  -6   1   2   10.02    0.38 
  -5  -1   2   98.37    2.47 
  -5  -1   2   99.71    2.20 
  -5   1   2  103.24    2.25 
  -5   1   2   96.90    2.44 
  -4  -1   2   -0.03    0.12 
  -4  -1   2    0.10    0.05 
  -4   1   2    0.06    0.11 
   4   1  -2    0.05    0.05 
  -4   1   2    0.14    0.07 
  -3  -1   2   19.05    0.45 
  -3  -1   2   18.28    0.43 
   3   1  -2   17.06    0.50 
  -3   1   2   18.85    0.49 
  -3   1   2   17.13    0.59 
   3   1  -2   19.24    0.44 
   2  -1  -2  252.51    5.16 
  -2  -1   2  242.52    5.19 
  -2  -1   2  240.75    5.25 
  -2  -1   2  242.62    5.19 
   2   1  -2  247.80    5.28 
  -2   1   2  239.00    5.28 
  -2   1   2  233.28    5.18 
   2   1  -2  245.27    5.18 
  -2   1   2  240.12    5.24 
  -1  -1   2    0.11    0.05 
   1  -1  -2    0.15    0.08 
   1  -1  -2    0.09    0.05 
  -1   1   2    0.20    0.07 
   1   1  -2    0.09    0.05 
   1   1  -2    0.04    0.06 
  -1   1   2    0.15    0.05 
   0  -1   2    0.28    0.08 
   0  -1  -2    0.29    0.09 
   0  -1  -2    0.28    0.05 
   0   1   2    0.38    0.05 
   0   1  -2    0.19    0.06 
   0   1  -2    0.33    0.07 
  -1  -1  -2   74.57    1.64 
  -1  -1  -2   76.93    1.70 
  -1   1  -2   73.02    1.69 
   1   1   2   74.92    1.65 
  -1   1  -2   75.24    1.68 
  -2  -1  -2  233.11    4.93 
  -2  -1  -2  228.45    4.96 
  -2   1  -2  226.41    4.95 
  -2   1  -2  228.95    4.96 
  -3  -1  -2  110.32    2.49 
  -3  -1  -2  109.42    2.50 
  -3   1  -2  109.98    2.50 
  -3   1  -2  110.96    2.52 
  -4  -1  -2   33.96    0.93 
  -4  -1  -2   34.08    0.94 
  -4   1  -2   33.71    0.95 
  -4   1  -2   33.46    0.94 
  -5  -1  -2    3.59    0.29 
  -5  -1  -2    3.16    0.27 
  -5   1  -2    4.09    0.31 
  -5   1  -2    3.22    0.27 
  -6  -1  -2   22.25    0.79 
  -6  -1  -2   22.73    0.77 
  -6   1  -2   22.95    0.81 
  -6   1  -2   23.12    0.78 
  -7  -1  -2    9.98    0.54 
  -7  -1  -2   10.76    0.52 
  -7   1  -2    9.62    0.55 
  -7   1  -2   10.69    0.53 
  -8  -1  -2    0.39    0.21 
  -8  -1  -2    0.07    0.18 
  -8   1  -2    0.03    0.19 
  -8   1  -2    0.02    0.20 
  -9  -2   2    3.75    0.47 
  -9   2   2    3.18    0.43 
  -8  -2   2   10.85    0.68 
  -8   2   2    9.80    0.47 
  -8   2   2   10.78    0.65 
  -7  -2   2   12.12    0.67 
  -7   2   2   11.29    0.46 
  -7   2   2   12.51    0.64 
  -6  -2   2   40.08    1.24 
  -6  -2   2   39.83    0.95 
  -6   2   2   37.40    1.02 
  -6   2   2   37.01    1.18 
  -5  -2   2    4.61    0.19 
  -5  -2   2    4.47    0.36 
  -5   2   2    4.56    0.25 
  -5   2   2    4.42    0.35 
  -4  -2   2    0.28    0.14 
  -4  -2   2    0.25    0.05 
  -4   2   2    0.11    0.12 
  -4   2   2    0.21    0.09 
   4   2  -2    0.21    0.05 
  -3  -2   2   20.85    0.65 
  -3   2   2   19.85    0.55 
   3   2  -2   19.98    0.55 
  -3   2   2   18.86    0.61 
  -2   2   2    8.86    0.32 
  -2   2   2    8.85    0.29 
   2   2  -2    8.85    0.30 
  -1  -2   2  269.83    5.64 
   1  -2  -2  257.14    5.60 
  -1   2   2  264.34    5.67 
  -1   2   2  252.10    5.54 
  -1   2   2  260.89    5.64 
   1   2  -2  257.82    5.71 
   1   2  -2  258.25    5.61 
   0  -2  -2  129.68    2.87 
   0  -2  -2  134.65    2.95 
   0  -2   2  144.49    2.93 
   0   2  -2  134.38    2.90 
   0   2  -2  127.62    2.91 
   0   2   2  136.85    2.90 
  -1  -2  -2    4.61    0.23 
  -1  -2  -2    4.51    0.15 
  -1   2  -2    4.48    0.20 
  -1   2  -2    4.47    0.20 
   1   2   2    4.33    0.17 
  -2  -2  -2    0.13    0.09 
  -2  -2  -2    0.21    0.07 
  -2   2  -2    0.18    0.09 
  -2   2  -2    0.20    0.09 
  -3  -2  -2   17.84    0.54 
  -3  -2  -2   16.51    0.56 
  -3   2  -2   18.42    0.56 
  -3   2  -2   19.27    0.58 
  -4  -2  -2    8.43    0.37 
  -4  -2  -2    8.38    0.38 
  -4   2  -2    8.10    0.37 
  -4   2  -2    8.61    0.40 
  -5  -2  -2   55.21    1.42 
  -5  -2  -2   54.08    1.41 
  -5   2  -2   53.26    1.45 
  -5   2  -2   53.97    1.42 
  -6  -2  -2    4.29    0.34 
  -6  -2  -2    4.02    0.33 
  -6   2  -2    4.15    0.34 
  -6   2  -2    4.56    0.38 
  -7  -2  -2    3.03    0.34 
  -7  -2  -2    2.63    0.32 
  -7   2  -2    3.75    0.36 
  -7   2  -2    3.01    0.36 
  -8  -2  -2    1.62    0.29 
  -8   2  -2    1.52    0.32 
  -8   2  -2    1.66    0.31 
  -9  -3   2   20.83    0.98 
  -9   3   2   20.05    0.94 
  -8  -3   2   29.28    1.15 
  -8   3   2   28.54    0.91 
  -8   3   2   31.11    1.12 
  -7  -3   2   14.48    0.71 
  -7   3   2   13.16    0.66 
  -7   3   2   13.05    0.53 
  -6  -3   2    3.75    0.39 
  -6   3   2    3.44    0.33 
  -6   3   2    3.66    0.27 
  -5  -3   2   16.45    0.67 
  -5  -3   2   15.99    0.41 
   5   3  -2   15.19    0.39 
  -5   3   2   16.07    0.53 
  -5   3   2   15.84    0.62 
  -4  -3   2   57.99    1.54 
  -4   3   2   56.76    1.49 
   4   3  -2   59.40    1.40 
  -4   3   2   58.54    1.41 
  -3  -3   2   33.47    0.95 
   3   3  -2   33.16    0.86 
  -3   3   2   33.60    0.87 
  -3   3   2   35.04    0.92 
  -2  -3   2    3.10    0.09 
  -2   3   2    2.87    0.17 
  -2   3   2    3.48    0.19 
   2   3  -2    2.97    0.17 
   1  -3  -2   23.42    0.57 
   1  -3  -2   22.70    0.64 
  -1  -3   2   23.66    0.55 
   1   3  -2   23.08    0.60 
  -1   3   2   23.78    0.53 
  -1   3   2   22.31    0.56 
   1   3  -2   22.92    0.55 
  -1   3   2   23.17    0.61 
   0  -3  -2    0.84    0.13 
   0   3  -2    0.65    0.09 
   0   3  -2    0.77    0.11 
  -1  -3  -2   15.76    0.48 
  -1  -3  -2   14.96    0.37 
  -1   3  -2   15.80    0.45 
   1   3   2   15.94    0.39 
  -1   3  -2   14.88    0.45 
  -2  -3  -2   55.68    1.29 
  -2  -3  -2   56.54    1.37 
  -2   3  -2   58.62    1.36 
  -2   3  -2   56.12    1.37 
  -3  -3  -2   11.46    0.39 
  -3  -3  -2   12.19    0.45 
  -3   3  -2   12.40    0.44 
  -3   3  -2   11.29    0.44 
  -4  -3  -2   10.43    0.43 
  -4  -3  -2    9.96    0.41 
  -4   3  -2   10.41    0.45 
  -4   3  -2    9.99    0.43 
  -5  -3  -2    0.07    0.12 
  -5  -3  -2    0.16    0.12 
  -5   3  -2    0.00    0.14 
  -5   3  -2   -0.07    0.13 
  -6  -3  -2   53.69    1.44 
  -6  -3  -2   50.70    1.41 
  -6   3  -2   52.04    1.44 
  -6   3  -2   52.14    1.48 
  -7  -3  -2    4.38    0.36 
  -7  -3  -2    3.64    0.35 
  -7   3  -2    3.67    0.41 
  -7   3  -2    4.45    0.39 
  -8  -4   2   -0.17    0.21 
  -8   4   2   -0.16    0.15 
  -8   4   2   -0.08    0.19 
  -7  -4   2    0.49    0.24 
  -7   4   2    0.08    0.18 
  -7   4   2    0.02    0.14 
  -6  -4   2   95.06    2.43 
  -6   4   2   91.26    2.35 
  -6   4   2   92.74    2.22 
  -5  -4   2   25.88    0.90 
  -5   4   2   25.57    0.77 
  -5   4   2   26.17    0.85 
  -4  -4   2    7.92    0.42 
   4   4  -2    7.79    0.32 
  -4   4   2    8.67    0.39 
  -4   4   2    7.50    0.33 
  -3  -4   2   40.39    1.08 
   3   4  -2   38.45    0.97 
  -3   4   2   35.87    0.98 
  -3   4   2   40.85    1.02 
  -2  -4   2    0.04    0.04 
  -2   4   2    0.05    0.07 
   2   4  -2    0.09    0.04 
   2   4  -2   -0.04    0.04 
   2   4  -2    0.05    0.07 
  -2   4   2    0.12    0.08 
   1  -4  -2   23.81    0.57 
  -1  -4   2   24.18    0.57 
   1  -4  -2   21.87    0.66 
  -1   4   2   21.89    0.63 
  -1   4   2   23.87    0.55 
   1   4  -2   22.04    0.56 
   1   4  -2   22.69    0.61 
   0  -4  -2    7.41    0.32 
   0   4  -2    7.14    0.26 
   0   4   2    7.52    0.29 
   0   4  -2    6.99    0.28 
  -1  -4  -2   13.76    0.46 
  -1   4  -2   13.63    0.44 
  -1   4  -2   12.95    0.42 
  -2  -4  -2    1.12    0.15 
  -2  -4  -2    1.19    0.09 
  -2  -4  -2    1.65    0.12 
   2   4   2    1.21    0.13 
  -2   4  -2    1.27    0.15 
  -2   4  -2    1.12    0.15 
  -3  -4  -2   42.38    1.11 
  -3  -4  -2   42.46    1.04 
  -3   4  -2   41.29    1.12 
  -3   4  -2   43.49    1.11 
  -4  -4  -2   19.07    0.63 
  -4  -4  -2   18.81    0.59 
  -4   4  -2   18.21    0.64 
  -4   4  -2   17.36    0.62 
  -5  -4  -2   12.16    0.51 
  -5  -4  -2   12.36    0.50 
  -5   4  -2   11.87    0.52 
  -5   4  -2   12.41    0.55 
  -6  -4  -2    0.38    0.16 
  -6  -4  -2    0.38    0.17 
  -6   4  -2    0.44    0.20 
  -6   4  -2    0.17    0.17 
  -7  -4  -2    5.09    0.39 
  -7   4  -2    4.78    0.42 
  -7   4  -2    4.98    0.45 
  -8  -5   2   15.85    0.82 
  -8   5   2   15.41    0.66 
  -8   5   2   16.23    0.77 
  -7  -5   2   12.72    0.69 
  -7   5   2   13.00    0.65 
  -7   5   2   12.80    0.56 
  -6  -5   2    0.48    0.23 
  -6   5   2    1.21    0.24 
  -6   5   2    0.75    0.18 
  -5  -5   2    3.67    0.35 
  -5   5   2    3.56    0.30 
  -5   5   2    3.02    0.27 
  -4  -5   2    4.59    0.34 
   4   5  -2    4.96    0.26 
  -4   5   2    4.67    0.29 
  -3  -5   2    3.04    0.27 
  -3   5   2    2.44    0.21 
  -3   5   2    2.01    0.19 
   3   5  -2    2.62    0.10 
   3   5  -2    2.74    0.19 
   3   5  -2    2.58    0.09 
  -2  -5   2    9.99    0.29 
  -2   5   2   10.09    0.39 
  -2   5   2   11.51    0.35 
   2   5  -2   10.31    0.36 
   2   5  -2   10.27    0.28 
   2   5  -2    9.85    0.30 
   1  -5  -2   37.10    0.86 
  -1   5   2   37.57    0.83 
  -1   5   2   36.17    0.94 
   1   5  -2   35.29    0.86 
   1   5  -2   35.26    0.91 
   0  -5  -2  113.55    2.57 
   0   5  -2  110.29    2.47 
   0   5   2  114.28    2.52 
   0   5  -2  109.50    2.50 
  -1  -5  -2   11.73    0.44 
   1   5   2   11.80    0.41 
  -1   5  -2   11.65    0.41 
  -1   5  -2   11.65    0.40 
  -2  -5  -2   49.16    1.08 
  -2  -5  -2   48.38    1.10 
  -2  -5  -2   49.65    1.24 
  -2   5  -2   47.98    1.22 
  -2   5  -2   47.70    1.23 
  -3  -5  -2   26.13    0.70 
  -3  -5  -2   26.61    0.79 
  -3   5  -2   27.28    0.81 
  -3   5  -2   26.53    0.78 
  -4  -5  -2    8.27    0.35 
  -4  -5  -2    7.75    0.39 
  -4   5  -2    8.66    0.42 
  -4   5  -2    7.72    0.39 
  -5  -5  -2    2.02    0.23 
  -5  -5  -2    1.99    0.24 
  -5   5  -2    2.25    0.27 
  -5   5  -2    1.99    0.27 
  -6  -5  -2   12.82    0.58 
  -6  -5  -2   13.91    0.58 
  -6   5  -2   14.94    0.64 
  -6   5  -2   13.32    0.62 
  -7   5  -2    1.06    0.27 
  -7   5  -2    0.64    0.23 
  -8  -6   2    0.42    0.27 
  -8   6   2    0.29    0.21 
  -8   6   2    1.03    0.26 
  -7  -6   2    0.09    0.22 
  -7   6   2   -0.13    0.16 
  -7   6   2   -0.04    0.16 
  -6  -6   2   67.32    1.86 
  -6   6   2   63.92    1.69 
  -6   6   2   63.80    1.74 
  -5  -6   2    1.44    0.27 
  -5   6   2    1.26    0.21 
  -5   6   2    1.35    0.21 
  -4  -6   2    1.19    0.22 
  -4   6   2    1.07    0.17 
   4   6  -2    1.05    0.15 
  -4   6   2    0.86    0.17 
   3   6  -2   30.12    0.69 
   3   6  -2   29.70    0.81 
  -3   6   2   30.40    0.82 
  -3   6   2   29.51    0.86 
   3   6  -2   30.30    0.71 
  -2   6   2   18.41    0.52 
   2   6  -2   18.74    0.48 
   2   6  -2   18.46    0.55 
  -2   6   2   19.30    0.60 
   1  -6  -2   55.07    1.27 
  -1   6   2   55.55    1.37 
   1   6  -2   53.90    1.33 
   1   6  -2   55.90    1.28 
  -1   6   2   56.00    1.23 
   0  -6  -2    2.27    0.23 
   0   6   2    2.22    0.19 
   0   6  -2    1.93    0.16 
   0   6  -2    2.30    0.18 
  -1  -6  -2   60.84    1.57 
   1   6   2   63.60    1.53 
  -1   6  -2   65.36    1.54 
  -1   6  -2   65.32    1.53 
  -2  -6  -2   28.79    0.68 
  -2  -6  -2   28.97    0.85 
  -2  -6  -2   29.62    0.66 
  -2   6  -2   30.12    0.83 
   2   6   2   28.57    0.79 
  -2   6  -2   26.93    0.81 
  -3  -6  -2   35.73    1.01 
  -3  -6  -2   36.00    0.90 
  -3   6  -2   36.92    1.02 
  -3   6  -2   36.93    1.03 
  -4  -6  -2   24.52    0.80 
  -4  -6  -2   25.95    0.72 
  -4   6  -2   26.86    0.84 
  -4   6  -2   24.78    0.81 
  -5  -6  -2    2.79    0.29 
  -5   6  -2    3.28    0.33 
  -5   6  -2    3.62    0.34 
  -6   6  -2    0.89    0.22 
  -6   6  -2    0.66    0.23 
  -7   6  -2    0.59    0.24 
  -7   6  -2    0.61    0.23 
  -8  -7   2    8.06    0.61 
  -8   7   2    8.52    0.56 
  -8   7   2    8.29    0.52 
  -7  -7   2    2.16    0.37 
  -7   7   2    2.16    0.32 
  -7   7   2    2.12    0.30 
  -6  -7   2   -0.19    0.19 
  -6   7   2   -0.16    0.14 
  -6   7   2    0.28    0.16 
  -5  -7   2   19.66    0.78 
  -5   7   2   18.45    0.69 
  -5   7   2   20.16    0.69 
   5   7  -2   18.08    0.62 
  -4  -7   2    9.09    0.48 
   4   7  -2    9.41    0.38 
  -4   7   2    9.29    0.41 
  -4   7   2    8.78    0.43 
  -3   7   2    0.22    0.11 
  -3   7   2    0.25    0.13 
   3   7  -2    0.27    0.06 
   3   7  -2    0.10    0.09 
  -2   7   2   24.46    0.76 
  -2   7   2   26.44    0.67 
   2   7  -2   24.70    0.71 
   2   7  -2   26.36    0.65 
  -1   7   2    1.27    0.10 
  -1   7   2    1.44    0.19 
   1   7  -2    1.29    0.14 
   1   7  -2    1.40    0.16 
   0   7  -2    8.04    0.34 
   0   7   2    7.56    0.35 
   0   7  -2    8.91    0.34 
  -1  -7  -2    0.78    0.17 
  -1   7  -2    0.79    0.14 
  -1   7  -2    0.95    0.15 
   1   7   2    0.91    0.15 
  -2  -7  -2   49.83    1.33 
  -2   7  -2   51.68    1.32 
   2   7   2   50.86    1.28 
  -2   7  -2   51.58    1.32 
  -3  -7  -2   15.74    0.59 
   3   7   2   16.02    0.54 
  -3   7  -2   16.62    0.61 
  -3   7  -2   15.95    0.59 
  -4  -7  -2    9.39    0.45 
  -4   7  -2   10.11    0.49 
  -4   7  -2    9.63    0.47 
  -5  -7  -2    1.57    0.24 
  -5   7  -2    1.07    0.22 
  -5   7  -2    1.37    0.25 
  -6   7  -2    8.85    0.53 
  -6   7  -2    7.09    0.49 
  -7  -8   2    4.49    0.51 
  -7   8   2    4.45    0.41 
  -7   8   2    5.01    0.43 
  -6  -8   2    6.37    0.49 
  -6   8   2    5.16    0.40 
  -6   8   2    5.02    0.41 
  -5  -8   2    4.05    0.41 
  -5   8   2    4.04    0.33 
  -5   8   2    4.70    0.35 
   5   8  -2    4.85    0.30 
  -4  -8   2    0.48    0.19 
  -4   8   2    0.32    0.16 
  -4   8   2    0.60    0.15 
   4   8  -2    0.55    0.14 
   3   8  -2    5.21    0.28 
   3   8  -2    5.36    0.29 
  -3   8   2    5.62    0.28 
  -3   8   2    5.21    0.34 
   2   8  -2    4.39    0.21 
  -2   8   2    5.09    0.32 
   2   8  -2    4.55    0.25 
  -2   8   2    4.40    0.21 
  -1   8   2   38.34    1.05 
   1   8  -2   37.13    0.99 
   1   8  -2   38.00    0.96 
  -1   8   2   37.32    0.88 
   0   8  -2   16.07    0.53 
   0   8  -2   15.20    0.51 
   0   8   2   15.47    0.56 
  -1  -8  -2    1.09    0.21 
  -1   8  -2    1.42    0.18 
  -1   8  -2    1.47    0.18 
   1   8   2    1.16    0.18 
  -2  -8  -2    0.24    0.14 
   2   8   2   -0.04    0.10 
  -2   8  -2   -0.12    0.10 
  -2   8  -2    0.01    0.12 
  -3  -8  -2    4.39    0.32 
   3   8   2    4.09    0.27 
  -3   8  -2    4.21    0.33 
  -3   8  -2    3.91    0.30 
  -4  -8  -2    0.10    0.14 
   4   8   2    0.20    0.12 
  -4   8  -2    0.39    0.17 
  -4   8  -2    0.30    0.17 
  -5   8  -2   16.03    0.69 
  -5   8  -2   17.23    0.71 
  -6   8  -2    1.73    0.32 
  -6   8  -2    1.81    0.30 
  -7   9   2    3.10    0.37 
  -7   9   2    2.45    0.35 
  -6   9   2    3.99    0.37 
  -6   9   2    3.34    0.37 
  -5  -9   2    7.03    0.49 
  -5   9   2    7.09    0.42 
   5   9  -2    6.67    0.36 
  -5   9   2    7.31    0.44 
  -4  -9   2   16.33    0.68 
  -4   9   2   15.11    0.56 
  -4   9   2   15.11    0.63 
   4   9  -2   15.17    0.54 
   3   9  -2    5.49    0.30 
  -3   9   2    5.66    0.37 
  -3   9   2    5.34    0.28 
  -2   9   2    4.79    0.34 
  -2   9   2    4.93    0.27 
   2   9  -2    4.79    0.24 
   2   9  -2    5.05    0.28 
  -1   9   2    3.28    0.29 
   1   9  -2    3.10    0.24 
   1   9  -2    3.24    0.22 
   0   9  -2    2.93    0.24 
   0   9   2    2.88    0.26 
   0   9  -2    2.67    0.22 
   1   9   2    6.72    0.36 
  -1   9  -2    6.60    0.35 
  -1   9  -2    7.10    0.37 
  -2  -9  -2   23.50    0.79 
  -2   9  -2   23.20    0.76 
   2   9   2   22.73    0.74 
  -2   9  -2   21.97    0.74 
  -3  -9  -2    4.72    0.36 
  -3   9  -2    4.77    0.36 
   3   9   2    4.83    0.31 
  -3   9  -2    4.30    0.33 
  -4   9  -2    2.08    0.28 
  -4   9  -2    1.18    0.24 
  -5   9  -2    0.42    0.21 
  -5   9  -2    0.30    0.21 
  -6  10   2    2.78    0.33 
  -6  10   2    1.88    0.31 
  -5  10   2    4.16    0.39 
  -5  10   2    4.00    0.33 
  -4 -10   2    0.76    0.25 
  -4  10   2    0.75    0.23 
  -3  10   2    5.42    0.39 
   3  10  -2    4.68    0.30 
   2  10  -2    1.61    0.20 
  -2  10   2    1.29    0.22 
   1  10  -2    0.07    0.11 
  -1  10   2    0.08    0.14 
   1  10  -2    0.05    0.11 
   0  10   2    8.90    0.44 
   0  10  -2    8.30    0.39 
   0  10  -2    7.68    0.37 
  -1  10  -2   35.58    1.04 
  -1  10  -2   37.53    1.05 
   1  10   2   36.68    1.06 
  -2  10  -2   18.54    0.67 
  -2  10  -2   18.29    0.68 
   2  10   2   19.17    0.67 
  -3 -10  -2    0.59    0.19 
  -3  10  -2    0.39    0.18 
  -3  10  -2    0.41    0.17 
   3  10   2    0.52    0.16 
  -4  10  -2    0.11    0.17 
  -4  10  -2   -0.14    0.15 
  -5  10  -2    2.44    0.33 
  -5  10  -2    2.65    0.35 
  -5  11   2    1.98    0.34 
  -4  11   2    0.66    0.22 
  -3  11   2    1.05    0.24 
  -2  11   2    7.68    0.46 
   1  11  -2    0.06    0.12 
  -1  11   2    0.27    0.17 
   1  11  -2   -0.08    0.11 
   0  11  -2    1.27    0.20 
   0  11   2    0.99    0.22 
   0  11  -2    1.07    0.19 
  -1  11  -2    0.49    0.18 
   1  11   2    0.39    0.17 
  -1  11  -2    0.47    0.17 
  -2  11  -2   10.69    0.53 
  -2  11  -2   11.73    0.52 
   2  11   2   10.74    0.50 
  -3  11  -2    4.32    0.37 
  -3  11  -2    4.97    0.40 
  -4  11  -2    1.21    0.27 
  -4  11  -2    1.66    0.29 
  -4  12   2    3.30    0.39 
  -3  12   2    1.48    0.29 
  -2  12   2    3.42    0.38 
  -1  12   2   15.11    0.66 
   0  12   2    1.21    0.23 
   0  12  -2    0.81    0.19 
  -1  12  -2    1.48    0.24 
   1  12   2    1.24    0.24 
  -1  12  -2    1.38    0.23 
  -2  12  -2    1.24    0.24 
  -2  12  -2    0.78    0.22 
  -3  12  -2    4.60    0.40 
  -3  12  -2    4.84    0.42 
  -2  13   2    0.55    0.23 
  -1  13   2    0.06    0.17 
   0  13   2    2.00    0.29 
  -9   0   3    5.15    0.53 
  -8   0   3    5.06    0.53 
  -7   0   3   12.21    0.43 
  -7   0   3   13.77    0.71 
  -6   0   3   20.88    0.58 
  -6   0   3   19.38    0.80 
  -5   0   3    2.74    0.16 
  -5   0   3    2.89    0.33 
  -4   0   3  157.44    3.41 
  -4   0   3  157.99    3.63 
  -3   0   3   22.52    0.57 
   3   0  -3   22.90    0.62 
  -3   0   3   23.48    0.72 
   2   0  -3   64.30    1.52 
   2   0  -3   66.05    1.51 
  -2   0   3   70.60    1.55 
   1   0  -3   32.57    0.82 
   1   0  -3   34.02    0.80 
  -1   0  -3    0.12    0.11 
  -1   0  -3    0.17    0.08 
  -2   0  -3  191.46    4.12 
  -2   0  -3  186.95    4.17 
  -3   0  -3  312.54    6.99 
  -3   0  -3  331.86    6.96 
  -4   0  -3   14.52    0.54 
  -4   0  -3   14.05    0.52 
  -5   0  -3   12.27    0.52 
  -5   0  -3   13.23    0.55 
  -7   0  -3    6.03    0.45 
  -7   0  -3    6.49    0.45 
  -9  -1   3   12.52    0.78 
  -9   1   3   11.99    0.75 
  -8  -1   3    0.05    0.21 
  -8   1   3    0.40    0.28 
  -7  -1   3   17.16    0.79 
  -7   1   3   17.55    0.81 
  -7   1   3   17.05    0.56 
  -6  -1   3   -0.17    0.16 
  -6  -1   3    0.02    0.06 
  -6   1   3   -0.03    0.16 
  -6   1   3    0.03    0.09 
  -5  -1   3   21.68    0.80 
  -5  -1   3   21.49    0.54 
  -5   1   3   20.13    0.77 
  -5   1   3   21.76    0.60 
  -4  -1   3   22.45    0.53 
  -4  -1   3   22.65    0.55 
  -4  -1   3   20.63    0.74 
  -4   1   3   19.91    0.72 
   4   1  -3   21.80    0.63 
   4   1  -3   22.25    0.53 
  -4   1   3   21.70    0.59 
  -3  -1   3  238.35    4.96 
  -3  -1   3  238.72    5.16 
   3  -1  -3  232.35    5.02 
  -3  -1   3  226.36    4.97 
  -3   1   3  229.53    5.00 
   3   1  -3  232.66    5.04 
  -3   1   3  235.55    5.14 
  -2  -1   3   26.66    0.63 
   2  -1  -3   26.23    0.66 
   2  -1  -3   26.32    0.68 
  -2   1   3   26.28    0.66 
  -2   1   3   27.30    0.73 
   2   1  -3   25.07    0.67 
   2   1  -3   25.46    0.64 
   1  -1  -3   81.99    1.81 
   1  -1  -3   78.84    1.74 
   1   1  -3   77.21    1.77 
   1   1  -3   77.83    1.76 
   0  -1  -3    2.37    0.18 
   0  -1  -3    2.55    0.13 
   0   1  -3    2.67    0.15 
   0   1  -3    2.44    0.17 
  -1  -1  -3    6.58    0.24 
  -1  -1  -3    7.53    0.31 
  -1   1  -3    6.55    0.27 
  -1   1  -3    6.44    0.29 
  -2  -1  -3  284.55    6.17 
  -2  -1  -3  287.31    6.09 
  -2   1  -3  284.80    6.13 
  -2   1  -3  280.65    6.16 
  -3  -1  -3   10.79    0.44 
  -3  -1  -3   11.64    0.41 
  -3   1  -3   11.09    0.44 
  -3   1  -3   10.72    0.42 
  -4  -1  -3    7.67    0.35 
  -4  -1  -3    7.57    0.39 
  -4   1  -3    7.34    0.38 
  -4   1  -3    7.24    0.37 
  -5  -1  -3    2.40    0.28 
  -5  -1  -3    2.51    0.26 
  -5   1  -3    2.63    0.29 
  -5   1  -3    2.50    0.28 
  -6  -1  -3    7.73    0.46 
  -6  -1  -3    7.64    0.44 
  -6   1  -3    7.84    0.46 
  -6   1  -3    7.36    0.45 
  -7  -1  -3    0.07    0.17 
  -7  -1  -3    0.07    0.16 
  -7   1  -3    0.21    0.19 
  -7   1  -3    0.21    0.18 
  -9  -2   3    0.44    0.28 
  -9   2   3   -0.21    0.22 
  -8  -2   3   22.40    0.99 
  -8   2   3   21.92    0.71 
  -8   2   3   20.35    0.92 
  -7  -2   3    1.15    0.29 
  -7   2   3    0.58    0.23 
  -7   2   3    0.48    0.15 
  -6  -2   3   67.09    1.88 
  -6  -2   3   67.50    1.58 
  -6   2   3   65.86    1.84 
  -6   2   3   67.40    1.62 
  -5  -2   3   17.02    0.71 
  -5  -2   3   17.86    0.43 
  -5  -2   3   17.03    0.45 
  -5   2   3   17.33    0.54 
  -5   2   3   18.19    0.69 
   5   2  -3   17.17    0.43 
  -4  -2   3    2.06    0.08 
  -4  -2   3    2.18    0.10 
  -4  -2   3    2.02    0.27 
  -4   2   3    2.38    0.17 
   4   2  -3    2.07    0.18 
  -4   2   3    2.07    0.25 
  -3  -2   3    0.64    0.06 
  -3  -2   3    0.56    0.15 
  -3  -2   3    0.71    0.06 
   3   2  -3    0.50    0.10 
  -3   2   3    0.63    0.10 
  -3   2   3    0.54    0.14 
  -2  -2   3  222.07    4.67 
   2  -2  -3  214.59    4.74 
   2  -2  -3  217.00    4.66 
   2   2  -3  215.97    4.72 
   2   2  -3  215.79    4.69 
  -2   2   3  219.35    4.70 
  -2   2   3  223.32    4.75 
   1  -2  -3    0.79    0.08 
   1  -2  -3    0.91    0.13 
  -1   2   3    0.84    0.09 
   1   2  -3    0.81    0.11 
   1   2  -3    0.81    0.10 
   0  -2  -3   35.43    0.80 
   0  -2  -3   36.15    0.91 
   0   2  -3   32.13    0.85 
   0   2  -3   33.87    0.86 
   0   2   3   36.54    0.79 
  -1  -2  -3   16.48    0.44 
  -1  -2  -3   16.13    0.53 
  -1   2  -3   18.18    0.51 
  -1   2  -3   16.73    0.51 
  -2  -2  -3    0.45    0.13 
  -2  -2  -3    0.35    0.08 
  -2   2  -3    0.46    0.12 
  -2   2  -3    0.51    0.12 
  -3  -2  -3   18.31    0.62 
  -3  -2  -3   18.73    0.55 
  -3   2  -3   18.97    0.62 
  -3   2  -3   18.38    0.60 
  -4  -2  -3   30.14    0.84 
  -4  -2  -3   28.75    0.89 
  -4   2  -3   28.46    0.88 
  -4   2  -3   29.00    0.88 
  -5  -2  -3   31.33    0.92 
  -5  -2  -3   30.95    0.97 
  -5   2  -3   30.99    0.97 
  -5   2  -3   29.95    0.96 
  -6  -2  -3    0.47    0.18 
  -6  -2  -3    0.56    0.20 
  -6   2  -3    0.44    0.20 
  -6   2  -3    0.75    0.21 
  -7  -2  -3    9.65    0.55 
  -7  -2  -3    9.51    0.53 
  -7   2  -3    9.71    0.56 
  -7   2  -3    9.50    0.56 
  -9  -3   3   19.19    0.97 
  -9   3   3   16.59    0.87 
  -8  -3   3    1.22    0.34 
  -8   3   3    0.54    0.23 
  -8   3   3    0.75    0.20 
  -7  -3   3   26.19    1.04 
  -7   3   3   26.63    0.81 
  -7   3   3   24.91    0.96 
  -6  -3   3    6.82    0.51 
  -6   3   3    6.63    0.46 
  -5  -3   3   42.92    1.27 
   5   3  -3   41.57    1.10 
  -5   3   3   41.11    1.08 
  -5   3   3   40.57    1.21 
  -4  -3   3   12.40    0.54 
  -4   3   3   11.27    0.41 
  -4   3   3   10.84    0.48 
   4   3  -3   11.50    0.42 
  -3   3   3  145.26    3.21 
  -3   3   3  141.97    3.14 
   3   3  -3  138.78    3.15 
  -2  -3   3  140.12    2.87 
   2  -3  -3  129.05    3.01 
   2   3  -3  135.40    2.98 
  -2   3   3  136.74    2.99 
  -2   3   3  134.10    2.98 
   2   3  -3  132.46    2.88 
   1  -3  -3   46.23    1.18 
   1  -3  -3   48.06    1.05 
  -1   3   3   47.04    1.09 
   1   3  -3   45.76    1.14 
  -1   3   3   48.82    1.05 
   1   3  -3   47.26    1.09 
   0  -3  -3   76.92    1.65 
   0  -3  -3   74.84    1.80 
   0   3  -3   78.18    1.77 
   0   3  -3   75.40    1.74 
   0   3   3   77.73    1.65 
  -1  -3  -3    1.25    0.17 
  -1  -3  -3    1.46    0.09 
   1   3   3    1.59    0.11 
  -1   3  -3    1.57    0.17 
  -1   3  -3    1.56    0.16 
  -2  -3  -3   70.86    1.57 
  -2  -3  -3   70.76    1.70 
  -2   3  -3   68.46    1.67 
  -2   3  -3   69.41    1.67 
  -3  -3  -3   14.18    0.44 
  -3  -3  -3   13.28    0.52 
  -4  -3  -3    5.38    0.35 
  -4  -3  -3    5.52    0.30 
  -4   3  -3    6.19    0.36 
  -4   3  -3    5.22    0.34 
  -5  -3  -3    1.97    0.26 
  -5  -3  -3    2.20    0.24 
  -5   3  -3    1.82    0.25 
  -5   3  -3    2.13    0.28 
  -6  -3  -3   10.25    0.49 
  -6  -3  -3   10.41    0.54 
  -6   3  -3   10.30    0.55 
  -6   3  -3   10.77    0.55 
  -7  -3  -3    0.60    0.21 
  -7  -3  -3    0.50    0.21 
  -7   3  -3    0.84    0.25 
  -7   3  -3    0.63    0.25 
  -9  -4   3    1.65    0.39 
  -9   4   3    1.89    0.36 
  -9   4   3    1.73    0.28 
  -8  -4   3   17.25    0.88 
  -8   4   3   17.55    0.82 
  -8   4   3   16.17    0.64 
  -7  -4   3    5.79    0.52 
  -7   4   3    5.64    0.46 
  -7   4   3    5.58    0.35 
  -6  -4   3   40.61    1.30 
  -6   4   3   37.50    1.20 
  -6   4   3   39.51    1.09 
  -5  -4   3    0.07    0.16 
  -5   4   3   -0.17    0.12 
  -5   4   3   -0.07    0.10 
   5   4  -3    0.03    0.10 
  -4  -4   3   11.60    0.53 
  -4   4   3   10.13    0.42 
  -4   4   3   11.77    0.48 
   4   4  -3   11.81    0.43 
   3   4  -3   30.33    0.82 
  -3   4   3   29.84    0.84 
  -3   4   3   31.23    0.84 
   2  -4  -3   33.28    0.91 
  -2  -4   3   34.15    0.76 
   2   4  -3   32.44    0.86 
   2   4  -3   32.44    0.76 
  -2   4   3   32.86    0.88 
  -2   4   3   33.56    0.84 
   1  -4  -3   21.63    0.66 
  -1   4   3   22.31    0.50 
  -1   4   3   20.77    0.53 
  -1   4   3   22.26    0.63 
   1   4  -3   21.62    0.61 
   1   4  -3   20.85    0.55 
   0  -4  -3    5.15    0.30 
   0   4  -3    5.53    0.27 
   0   4  -3    5.90    0.25 
  -1  -4  -3   27.66    0.61 
  -1  -4  -3   27.13    0.79 
  -1   4  -3   26.86    0.75 
   1   4   3   27.08    0.63 
  -1   4  -3   26.29    0.74 
  -2  -4  -3    0.42    0.14 
  -2  -4  -3    0.51    0.08 
  -2   4  -3    0.42    0.13 
  -2   4  -3    0.49    0.13 
  -3  -4  -3   25.57    0.68 
  -3  -4  -3   25.47    0.81 
  -3   4  -3   25.65    0.78 
  -3   4  -3   25.74    0.79 
  -4  -4  -3    7.91    0.34 
  -4  -4  -3    7.53    0.41 
  -4   4  -3    8.51    0.43 
  -4   4  -3    7.65    0.41 
  -5  -4  -3   10.05    0.43 
  -5  -4  -3   10.22    0.50 
  -5   4  -3    9.30    0.48 
  -5   4  -3   10.27    0.51 
  -6  -4  -3    0.05    0.16 
  -6  -4  -3    0.25    0.15 
  -6   4  -3    0.10    0.18 
  -6   4  -3    0.05    0.18 
  -7   4  -3    6.68    0.50 
  -7   4  -3    6.35    0.50 
  -8  -5   3    0.55    0.27 
  -8   5   3    0.69    0.23 
  -8   5   3    0.68    0.21 
  -7  -5   3    0.54    0.26 
  -7   5   3    0.53    0.18 
  -7   5   3    0.20    0.20 
  -6  -5   3   16.92    0.78 
  -6   5   3   17.13    0.71 
  -6   5   3   18.00    0.64 
  -5  -5   3   64.67    1.79 
  -5   5   3   66.08    1.65 
   5   5  -3   66.35    1.62 
  -5   5   3   63.96    1.69 
  -4  -5   3    5.30    0.39 
  -4   5   3    6.16    0.33 
   4   5  -3    6.23    0.31 
  -4   5   3    6.43    0.33 
   3   5  -3   34.23    0.92 
  -3   5   3   34.25    0.91 
  -3   5   3   34.77    0.94 
  -2  -5   3    1.13    0.10 
  -2   5   3    1.30    0.12 
   2   5  -3    1.21    0.15 
   2   5  -3    1.25    0.10 
  -2   5   3    1.17    0.17 
   1  -5  -3   27.86    0.83 
   1   5  -3   27.89    0.70 
  -1   5   3   27.46    0.64 
  -1   5   3   28.48    0.79 
  -1   5   3   29.67    0.63 
   1   5  -3   27.20    0.76 
   0  -5  -3    5.16    0.30 
   0   5  -3    5.28    0.25 
   0   5   3    5.61    0.27 
   0   5  -3    5.19    0.27 
  -1  -5  -3    5.62    0.31 
  -1   5  -3    4.83    0.26 
  -1   5  -3    4.93    0.26 
  -2  -5  -3   56.42    1.26 
  -2  -5  -3   58.91    1.48 
  -2  -5  -3   58.43    1.26 
  -2   5  -3   54.37    1.42 
  -2   5  -3   58.35    1.45 
   2   5   3   56.76    1.30 
  -3  -5  -3    0.98    0.18 
  -3  -5  -3    1.09    0.12 
  -3   5  -3    0.90    0.17 
  -3   5  -3    0.89    0.18 
  -4  -5  -3   25.71    0.85 
  -4  -5  -3   25.97    0.73 
  -4   5  -3   26.56    0.86 
  -4   5  -3   26.65    0.86 
  -5  -5  -3    2.34    0.29 
  -5   5  -3    1.96    0.26 
  -5   5  -3    2.72    0.32 
  -6  -5  -3    2.41    0.32 
  -6   5  -3    2.28    0.31 
  -6   5  -3    2.67    0.34 
  -8  -6   3    5.75    0.57 
  -8   6   3    5.16    0.40 
  -8   6   3    5.05    0.48 
  -7  -6   3    2.61    0.40 
  -7   6   3    2.66    0.31 
  -7   6   3    3.35    0.39 
  -6  -6   3    9.57    0.60 
  -6   6   3    9.66    0.47 
  -6   6   3    8.71    0.49 
  -5  -6   3    7.86    0.50 
  -5   6   3    7.27    0.41 
  -5   6   3    7.16    0.39 
   5   6  -3    6.61    0.35 
  -4  -6   3   19.89    0.76 
  -4   6   3   21.31    0.67 
   4   6  -3   19.40    0.63 
  -4   6   3   19.79    0.67 
  -3   6   3    0.48    0.11 
   3   6  -3    0.54    0.06 
   3   6  -3    0.45    0.06 
   3   6  -3    0.42    0.12 
  -3   6   3    0.57    0.15 
   2   6  -3   38.94    1.03 
  -2   6   3   40.72    0.95 
  -2   6   3   38.63    1.07 
   2   6  -3   39.71    0.92 
   1  -6  -3    0.77    0.18 
   1   6  -3    0.86    0.13 
  -1   6   3    0.72    0.06 
  -1   6   3    0.96    0.06 
   1   6  -3    1.16    0.12 
  -1   6   3    0.98    0.16 
   0  -6  -3   48.75    1.30 
   0   6   3   49.61    1.25 
   0   6  -3   46.95    1.18 
   0   6  -3   49.27    1.23 
  -1  -6  -3   30.60    0.91 
   1   6   3   29.56    0.85 
  -1   6  -3   29.64    0.83 
  -1   6  -3   31.15    0.87 
  -2  -6  -3    3.53    0.30 
  -2   6  -3    3.16    0.25 
  -2   6  -3    3.56    0.26 
  -3  -6  -3   44.15    1.23 
  -3   6  -3   43.35    1.19 
  -3   6  -3   42.54    1.20 
  -4  -6  -3   -0.14    0.14 
  -4   6  -3    0.00    0.14 
  -4   6  -3    0.04    0.15 
  -5  -6  -3   13.62    0.61 
  -5   6  -3   14.43    0.64 
  -5   6  -3   14.55    0.64 
  -6   6  -3    0.88    0.22 
  -6   6  -3    0.35    0.21 
  -8  -7   3    0.40    0.29 
  -8   7   3    0.16    0.19 
  -8   7   3   -0.10    0.18 
  -7  -7   3    3.84    0.48 
  -7   7   3    3.32    0.36 
  -7   7   3    3.98    0.38 
  -6  -7   3    0.56    0.26 
  -6   7   3    0.71    0.20 
  -6   7   3    0.72    0.20 
  -5  -7   3   14.09    0.68 
  -5   7   3   14.48    0.59 
  -5   7   3   13.91    0.57 
   5   7  -3   14.30    0.54 
  -4  -7   3    2.32    0.30 
  -4   7   3    3.06    0.28 
  -4   7   3    2.76    0.24 
   4   7  -3    3.24    0.25 
   3   7  -3   55.30    1.25 
  -3   7   3   55.85    1.35 
   3   7  -3   57.00    1.41 
  -3   7   3   56.25    1.47 
  -2   7   3   20.64    0.54 
   2   7  -3   20.68    0.54 
  -2   7   3   20.63    0.68 
   2   7  -3   20.06    0.64 
  -1   7   3    4.47    0.29 
   1   7  -3    4.56    0.23 
   1   7  -3    4.11    0.26 
  -1   7   3    4.35    0.13 
   0  -7  -3    0.12    0.14 
   0   7   3    0.13    0.12 
   0   7  -3    0.10    0.09 
   0   7  -3    0.07    0.10 
  -1  -7  -3    9.71    0.46 
   1   7   3    9.79    0.41 
  -1   7  -3    9.03    0.41 
  -1   7  -3    9.11    0.39 
  -2  -7  -3   33.83    1.05 
  -2   7  -3   37.27    1.02 
   2   7   3   35.77    1.00 
  -2   7  -3   37.31    1.04 
  -3  -7  -3   -0.18    0.13 
  -3   7  -3   -0.12    0.13 
  -3   7  -3    0.13    0.15 
  -4  -7  -3    7.40    0.44 
  -4   7  -3    8.13    0.46 
  -4   7  -3    8.21    0.46 
  -5  -7  -3    0.12    0.18 
  -5   7  -3   -0.03    0.18 
  -5   7  -3    0.08    0.17 
  -6   7  -3    6.69    0.50 
  -6   7  -3    6.97    0.50 
  -7  -8   3    0.83    0.30 
  -7   8   3    0.67    0.22 
  -7   8   3    0.78    0.23 
  -6  -8   3   16.89    0.81 
  -6   8   3   17.51    0.68 
  -6   8   3   16.39    0.70 
   6   8  -3   16.42    0.63 
  -5  -8   3    5.14    0.44 
  -5   8   3    4.82    0.33 
  -5   8   3    3.83    0.35 
   5   8  -3    4.39    0.30 
  -4  -8   3    2.11    0.30 
   4   8  -3    2.15    0.24 
  -4   8   3    2.71    0.28 
  -4   8   3    2.32    0.24 
  -3   8   3    0.09    0.14 
   3   8  -3    0.07    0.11 
  -3   8   3    0.26    0.10 
  -2   8   3   26.03    0.84 
   2   8  -3   26.90    0.69 
   2   8  -3   25.31    0.78 
   1   8  -3    8.44    0.37 
  -1   8   3    7.89    0.40 
   1   8  -3    7.27    0.32 
   0  -8  -3    0.72    0.20 
   0   8  -3    1.03    0.16 
   0   8  -3    0.99    0.17 
   0   8   3    0.75    0.17 
  -1  -8  -3    0.68    0.20 
   1   8   3    0.35    0.14 
  -1   8  -3    0.94    0.17 
  -1   8  -3    1.21    0.18 
  -2  -8  -3    2.10    0.27 
  -2   8  -3    2.33    0.25 
   2   8   3    2.20    0.24 
  -2   8  -3    2.57    0.27 
  -3  -8  -3    3.70    0.34 
   3   8   3    3.13    0.27 
  -3   8  -3    3.42    0.32 
  -3   8  -3    3.28    0.32 
  -4  -8  -3    4.82    0.38 
  -4   8  -3    4.97    0.39 
   4   8   3    5.33    0.36 
  -4   8  -3    5.33    0.41 
  -5   8  -3   13.54    0.65 
  -5   8  -3   13.91    0.66 
  -7  -9   3   10.35    0.71 
  -7   9   3    9.20    0.57 
  -7   9   3   10.08    0.57 
  -6  -9   3    0.94    0.28 
  -6   9   3    0.86    0.24 
  -6   9   3    0.87    0.21 
   6   9  -3    1.14    0.21 
  -5  -9   3    4.67    0.46 
  -5   9   3    4.60    0.40 
   5   9  -3    4.40    0.33 
  -5   9   3    4.48    0.33 
  -4  -9   3    0.67    0.23 
   4   9  -3    0.50    0.15 
  -4   9   3    0.58    0.18 
  -4   9   3    0.95    0.27 
   3   9  -3   14.17    0.54 
  -3   9   3   14.69    0.61 
   2   9  -3   15.43    0.49 
  -2   9   3   16.06    0.63 
   2   9  -3   15.31    0.56 
   1   9  -3   -0.09    0.09 
   1   9  -3    0.25    0.13 
  -1   9   3    0.31    0.15 
   0   9   3    3.50    0.30 
   0   9  -3    4.41    0.27 
   0   9  -3    4.22    0.29 
  -1  -9  -3    3.59    0.34 
  -1   9  -3    2.79    0.26 
   1   9   3    3.52    0.29 
  -1   9  -3    3.30    0.29 
  -2  -9  -3   20.15    0.76 
   2   9   3   19.60    0.69 
  -2   9  -3   20.51    0.71 
  -2   9  -3   21.92    0.75 
  -3  -9  -3    2.15    0.29 
  -3   9  -3    1.48    0.26 
  -3   9  -3    1.92    0.28 
   3   9   3    2.17    0.26 
  -4  -9  -3    0.31    0.19 
   4   9   3    0.22    0.14 
  -4   9  -3    0.25    0.19 
  -4   9  -3    0.27    0.18 
  -5   9  -3    3.34    0.39 
  -5   9  -3    3.78    0.39 
  -6  10   3    5.18    0.45 
  -5 -10   3    0.59    0.26 
   5  10  -3    0.71    0.18 
  -5  10   3    0.79    0.24 
  -4 -10   3    8.94    0.54 
   4  10  -3    9.02    0.44 
  -4  10   3    9.55    0.53 
   3  10  -3    7.28    0.39 
  -3  10   3    7.78    0.47 
   2  10  -3    0.19    0.12 
  -2  10   3    0.03    0.15 
   1  10  -3    0.37    0.14 
   1  10  -3    0.24    0.12 
  -1  10   3    0.26    0.17 
   0  10  -3    0.04    0.13 
   0  10  -3    0.20    0.14 
   0  10   3    0.30    0.16 
   1  10   3    2.53    0.28 
  -1  10  -3    1.68    0.24 
  -1  10  -3    2.00    0.25 
  -2 -10  -3   19.00    0.76 
  -2  10  -3   18.03    0.69 
  -2  10  -3   17.69    0.68 
   2  10   3   17.55    0.67 
  -3 -10  -3   21.03    0.81 
  -3  10  -3   20.75    0.78 
   3  10   3   19.76    0.73 
  -3  10  -3   21.02    0.78 
  -4  10  -3    1.54    0.29 
  -4  10  -3    2.26    0.32 
  -5  11   3    1.23    0.28 
  -4  11   3    0.87    0.25 
  -3  11   3    7.08    0.46 
   3  11  -3    7.04    0.39 
   2  11  -3    1.61    0.22 
  -2  11   3    1.20    0.26 
   1  11  -3    4.66    0.34 
  -1  11   3    4.67    0.39 
   0  11   3    2.18    0.29 
   0  11  -3    2.02    0.25 
   0  11  -3    1.79    0.30 
   1  11   3    3.07    0.31 
  -1  11  -3    2.82    0.30 
  -1  11  -3    3.42    0.33 
   2  11   3    8.21    0.47 
  -2  11  -3    9.50    0.50 
  -2  11  -3    8.55    0.49 
  -3  11  -3    0.67    0.23 
  -3  11  -3    1.06    0.25 
  -4  12   3   -0.07    0.21 
  -3  12   3    4.94    0.44 
  -2  12   3    9.72    0.55 
  -1  12   3    3.51    0.36 
   1  12  -3    3.13    0.31 
   0  12  -3    4.61    0.36 
   0  12  -3    4.09    0.37 
   0  12   3    4.85    0.41 
   1  12   3    2.74    0.33 
  -1  12  -3    2.68    0.31 
  -1  12  -3    2.96    0.33 
  -2  12  -3   -0.13    0.17 
   2  12   3    0.23    0.17 
  -2  12  -3   -0.06    0.17 
  -9   0   4    3.04    0.45 
  -8   0   4    8.33    0.63 
  -7   0   4   14.13    0.74 
  -6   0   4    1.93    0.31 
  -6   0   4    2.17    0.16 
  -5   0   4    2.91    0.17 
  -5   0   4    2.40    0.31 
  -4   0   4    7.14    0.26 
   4   0  -4    7.11    0.31 
  -4   0   4    7.19    0.41 
  -3   0   4  322.12    7.12 
   3   0  -4  332.50    6.98 
   3   0  -4  317.25    6.99 
  -3   0   4  333.49    6.95 
   2   0  -4  355.20    7.67 
   2   0  -4  352.79    7.57 
   1   0  -4    0.57    0.10 
   1   0  -4    0.50    0.11 
   0   0  -4    7.60    0.28 
   0   0  -4    7.40    0.33 
  -1   0  -4    2.58    0.22 
  -1   0  -4    2.60    0.18 
  -2   0  -4  123.19    2.83 
  -2   0  -4  121.24    2.74 
  -3   0  -4   18.51    0.60 
  -3   0  -4   19.41    0.67 
  -5   0  -4   17.34    0.65 
  -5   0  -4   17.31    0.70 
  -6   0  -4    0.62    0.20 
  -6   0  -4    0.05    0.19 
  -7   0  -4    0.68    0.22 
  -7   0  -4    0.64    0.23 
  -9  -1   4   10.52    0.74 
  -9   1   4   11.89    0.78 
  -8  -1   4    3.04    0.44 
  -8   1   4    2.40    0.39 
  -7  -1   4    2.81    0.39 
  -7   1   4    3.34    0.42 
  -7   1   4    2.89    0.22 
  -6  -1   4    9.66    0.58 
  -6  -1   4    9.89    0.32 
  -6   1   4    9.99    0.37 
  -6   1   4    9.54    0.56 
  -5  -1   4   29.32    1.02 
  -5  -1   4   31.36    0.75 
  -5   1   4   31.40    1.03 
  -5   1   4   31.06    0.81 
  -4  -1   4   36.73    1.09 
  -4  -1   4   36.30    0.85 
   4   1  -4   37.23    0.96 
  -4   1   4   34.79    1.06 
  -4   1   4   35.20    0.90 
  -3  -1   4   98.60    2.25 
   3  -1  -4   91.27    2.12 
  -3  -1   4   94.92    2.04 
   3  -1  -4   92.27    2.10 
  -3   1   4   92.65    2.08 
   3   1  -4   93.69    2.13 
  -3   1   4   88.46    2.20 
   3   1  -4   91.16    2.06 
   2  -1  -4   14.58    0.43 
   2  -1  -4   14.73    0.47 
   2   1  -4   13.73    0.45 
   2   1  -4   14.17    0.43 
   1  -1  -4   23.23    0.67 
   1  -1  -4   24.09    0.61 
   1   1  -4   23.09    0.64 
   1   1  -4   23.89    0.65 
   0  -1  -4   41.62    0.99 
   0  -1  -4   42.47    1.08 
   0   1  -4   42.47    1.03 
   0   1  -4   41.10    1.06 
  -1  -1  -4   32.34    0.79 
  -1  -1  -4   30.38    0.88 
  -1   1  -4   31.06    0.82 
  -1   1  -4   31.69    0.87 
  -2  -1  -4    0.63    0.11 
  -2  -1  -4    0.59    0.15 
  -2   1  -4    0.59    0.12 
  -2   1  -4    0.64    0.15 
  -3  -1  -4   76.03    1.90 
  -3  -1  -4   76.15    1.79 
  -3   1  -4   75.36    1.83 
  -4  -1  -4   22.02    0.70 
  -4  -1  -4   22.95    0.79 
  -4   1  -4   22.51    0.74 
  -4   1  -4   23.19    0.78 
  -5  -1  -4    0.09    0.16 
  -5  -1  -4    0.21    0.14 
  -5   1  -4    0.31    0.15 
  -5   1  -4    0.48    0.19 
  -6  -1  -4    9.17    0.53 
  -6  -1  -4    9.58    0.49 
  -6   1  -4    8.41    0.51 
  -6   1  -4    8.64    0.49 
  -9  -2   4    7.90    0.68 
  -9   2   4    9.63    0.71 
  -8  -2   4    1.82    0.36 
  -8   2   4    1.53    0.35 
  -7  -2   4   26.48    1.06 
  -7   2   4   25.16    0.76 
  -7   2   4   24.62    1.00 
  -6  -2   4   53.77    1.61 
  -6   2   4   52.78    1.33 
  -6   2   4   54.75    1.58 
  -5  -2   4    1.11    0.08 
  -5  -2   4    1.02    0.24 
  -5   2   4    1.45    0.15 
  -5   2   4    1.67    0.27 
   5   2  -4    1.67    0.20 
  -4  -2   4   36.66    1.11 
  -4  -2   4   36.40    0.83 
  -4  -2   4   36.75    0.82 
  -4   2   4   35.75    0.93 
   4   2  -4   36.50    0.98 
  -4   2   4   37.09    1.08 
   3  -2  -4   16.40    0.53 
   3  -2  -4   16.38    0.48 
  -3  -2   4   16.18    0.42 
   3   2  -4   15.59    0.51 
  -3   2   4   14.56    0.56 
  -3   2   4   16.79    0.50 
   3   2  -4   16.72    0.44 
   2  -2  -4   81.70    1.93 
   2  -2  -4   82.93    1.84 
  -2   2   4   83.99    1.89 
   2   2  -4   79.51    1.88 
  -2   2   4   83.99    1.92 
   2   2  -4   79.20    1.83 
   1  -2  -4   21.25    0.65 
   1  -2  -4   20.82    0.54 
   1   2  -4   21.35    0.59 
   1   2  -4   22.14    0.61 
   0  -2  -4   51.49    1.17 
   0  -2  -4   51.63    1.30 
   0   2  -4   51.75    1.25 
   0   2  -4   50.57    1.25 
  -1  -2  -4   27.09    0.81 
  -1  -2  -4   27.79    0.70 
  -1   2  -4   28.75    0.79 
  -1   2  -4   27.62    0.77 
  -2  -2  -4    0.16    0.12 
  -2  -2  -4    0.47    0.10 
  -2   2  -4    0.24    0.11 
  -2   2  -4    0.16    0.11 
  -3  -2  -4    1.58    0.17 
  -3  -2  -4    1.25    0.21 
  -3   2  -4    1.48    0.21 
  -3   2  -4    1.85    0.22 
  -4  -2  -4    8.53    0.46 
  -4  -2  -4    8.37    0.37 
  -4   2  -4    8.11    0.42 
  -4   2  -4    8.80    0.45 
  -5  -2  -4    3.24    0.34 
  -5  -2  -4    3.43    0.28 
  -5   2  -4    3.61    0.34 
  -5   2  -4    3.20    0.32 
  -6  -2  -4    2.65    0.29 
  -6  -2  -4    3.36    0.38 
  -6   2  -4    3.22    0.35 
  -6   2  -4    3.33    0.37 
  -9  -3   4    5.00    0.60 
  -9   3   4    4.87    0.55 
  -8  -3   4   28.52    1.17 
  -8   3   4   26.78    0.85 
  -8   3   4   26.44    1.08 
  -7  -3   4   40.77    1.41 
  -7   3   4   39.90    1.33 
  -7   3   4   40.81    1.11 
  -6  -3   4    0.83    0.26 
  -6   3   4    0.99    0.16 
  -6   3   4    1.44    0.28 
  -5  -3   4   16.54    0.72 
  -5   3   4   16.57    0.55 
   5   3  -4   16.69    0.58 
  -5   3   4   17.39    0.68 
  -4  -3   4   31.09    0.99 
   4   3  -4   30.65    0.85 
  -4   3   4   29.41    0.92 
  -4   3   4   30.00    0.83 
   3  -3  -4  123.41    2.87 
  -3  -3   4  131.08    2.69 
   3   3  -4  126.28    2.71 
  -3   3   4  125.51    2.89 
  -3   3   4  122.24    2.83 
   2  -3  -4    8.80    0.39 
   2  -3  -4    9.20    0.29 
  -2   3   4    9.44    0.36 
  -2   3   4    9.22    0.36 
   2   3  -4    9.31    0.30 
   2   3  -4    9.48    0.36 
   1  -3  -4   10.11    0.42 
   1  -3  -4   10.31    0.30 
  -1   3   4   10.70    0.35 
   1   3  -4   10.46    0.35 
   1   3  -4   10.12    0.38 
   0  -3  -4   11.09    0.44 
   0  -3  -4   11.75    0.32 
   0   3   4   11.13    0.31 
   0   3  -4   11.55    0.41 
   0   3  -4   11.27    0.40 
  -1  -3  -4    1.40    0.11 
  -1  -3  -4    0.90    0.16 
  -1   3  -4    1.39    0.17 
  -1   3  -4    1.53    0.18 
  -2  -3  -4    1.04    0.11 
  -2  -3  -4    1.06    0.19 
  -2   3  -4    0.74    0.16 
  -2   3  -4    0.73    0.15 
  -3  -3  -4   11.39    0.52 
  -3  -3  -4   11.65    0.39 
  -3   3  -4   11.18    0.48 
  -3   3  -4   11.46    0.47 
  -4  -3  -4    0.04    0.10 
  -4  -3  -4    0.32    0.17 
  -4   3  -4    0.00    0.13 
  -4   3  -4    0.21    0.16 
  -5  -3  -4    4.36    0.30 
  -5  -3  -4    4.93    0.40 
  -5   3  -4    4.68    0.38 
  -5   3  -4    4.67    0.37 
  -6  -3  -4    5.82    0.48 
  -6   3  -4    7.47    0.50 
  -6   3  -4    8.31    0.50 
  -9  -4   4    6.02    0.64 
  -9   4   4    8.69    0.64 
  -8  -4   4    2.06    0.40 
  -8   4   4    2.39    0.38 
  -8   4   4    1.95    0.26 
  -7  -4   4    4.28    0.51 
  -7   4   4    3.77    0.41 
  -7   4   4    4.22    0.31 
  -6  -4   4   18.60    0.81 
   6   4  -4   16.72    0.62 
  -6   4   4   17.99    0.62 
  -6   4   4   18.31    0.75 
  -5  -4   4   29.07    1.02 
   5   4  -4   28.77    0.86 
  -5   4   4   30.00    0.86 
  -5   4   4   30.03    0.96 
  -4  -4   4   60.32    1.64 
  -4   4   4   58.38    1.55 
   4   4  -4   60.89    1.51 
  -4   4   4   61.74    1.50 
  -3  -4   4    0.58    0.06 
  -3   4   4    0.39    0.12 
   3   4  -4    0.49    0.12 
  -3   4   4    0.32    0.11 
   3   4  -4    0.53    0.07 
   2  -4  -4  107.74    2.51 
   2   4  -4  104.52    2.35 
  -2   4   4  109.72    2.42 
  -2   4   4  107.39    2.46 
   2   4  -4  106.07    2.45 
   1  -4  -4    1.95    0.21 
   1   4  -4    1.64    0.18 
  -1   4   4    1.56    0.10 
  -1   4   4    1.84    0.14 
   1   4  -4    1.58    0.15 
   0  -4  -4    2.31    0.10 
   0  -4  -4    2.33    0.22 
   0   4  -4    1.92    0.18 
   0   4  -4    2.76    0.21 
   0   4   4    2.08    0.10 
  -1  -4  -4    1.39    0.21 
  -1  -4  -4    1.27    0.09 
   1   4   4    1.10    0.11 
  -1   4  -4    1.49    0.18 
  -1   4  -4    1.19    0.17 
  -2  -4  -4   10.17    0.32 
  -2  -4  -4   11.03    0.48 
  -2   4  -4   11.24    0.45 
  -2   4  -4    9.82    0.43 
  -3  -4  -4    0.13    0.13 
  -3  -4  -4   -0.01    0.07 
  -3   4  -4    0.01    0.11 
  -3   4  -4    0.04    0.12 
  -4  -4  -4   17.45    0.55 
  -4  -4  -4   17.16    0.69 
  -4   4  -4   18.43    0.68 
  -4   4  -4   16.49    0.67 
  -5  -4  -4    8.79    0.51 
  -5   4  -4    9.52    0.53 
  -5   4  -4    9.37    0.49 
  -6  -4  -4    0.31    0.21 
  -6   4  -4    0.00    0.20 
  -6   4  -4    0.27    0.20 
  -8  -5   4    9.47    0.71 
  -8   5   4   11.31    0.65 
  -8   5   4   10.64    0.53 
  -7  -5   4    8.46    0.62 
  -7   5   4    7.96    0.52 
  -7   5   4    7.94    0.43 
  -6  -5   4    0.76    0.26 
  -6   5   4    0.98    0.20 
   6   5  -4    0.78    0.18 
  -6   5   4    1.00    0.23 
  -5  -5   4    2.44    0.33 
  -5   5   4    2.45    0.25 
   5   5  -4    2.38    0.24 
  -5   5   4    2.80    0.31 
  -4  -5   4   24.30    0.87 
  -4   5   4   24.20    0.76 
   4   5  -4   24.63    0.75 
  -4   5   4   23.70    0.76 
  -3  -5   4   54.18    1.17 
  -3   5   4   53.93    1.32 
   3   5  -4   51.70    1.34 
  -3   5   4   51.61    1.35 
   3   5  -4   52.63    1.17 
   2  -5  -4    9.17    0.43 
  -2   5   4    9.18    0.33 
  -2   5   4    9.02    0.39 
   2   5  -4    8.93    0.38 
   2   5  -4    9.30    0.30 
   1  -5  -4    0.53    0.15 
   1   5  -4    0.75    0.12 
  -1   5   4    0.59    0.13 
  -1   5   4    0.92    0.09 
   1   5  -4    0.80    0.14 
  -1   5   4    0.73    0.07 
   0  -5  -4   45.99    1.25 
   0   5  -4   44.67    1.18 
   0   5  -4   46.21    1.15 
  -1  -5  -4  104.52    2.53 
  -1   5  -4  106.18    2.48 
  -1   5  -4  107.06    2.45 
  -2  -5  -4   33.26    1.01 
  -2  -5  -4   33.23    0.80 
  -2   5  -4   33.44    0.97 
  -2   5  -4   32.52    0.95 
  -3  -5  -4    5.74    0.39 
  -3   5  -4    6.36    0.38 
  -3   5  -4    5.67    0.37 
  -4  -5  -4    0.03    0.16 
  -4   5  -4    0.06    0.14 
  -4   5  -4    0.11    0.16 
  -5  -5  -4    0.82    0.23 
  -5   5  -4    0.55    0.21 
  -5   5  -4    0.82    0.24 
  -6  -5  -4   11.64    0.65 
  -6   5  -4   14.01    0.69 
  -6   5  -4   12.72    0.65 
  -8  -6   4    0.51    0.30 
  -8   6   4    0.74    0.26 
  -8   6   4    0.42    0.21 
  -7  -6   4    2.81    0.42 
  -7   6   4    2.51    0.33 
  -7   6   4    2.71    0.31 
  -6  -6   4    1.06    0.28 
  -6   6   4    0.90    0.22 
   6   6  -4    1.05    0.19 
  -6   6   4    1.17    0.22 
  -5  -6   4   13.71    0.68 
  -5   6   4   13.34    0.56 
   5   6  -4   13.78    0.54 
  -5   6   4   12.69    0.53 
   4   6  -4   14.62    0.54 
  -4   6   4   13.24    0.54 
  -4   6   4   15.02    0.53 
  -3   6   4   35.16    0.99 
  -3   6   4   33.73    0.90 
   3   6  -4   34.15    0.96 
   3   6  -4   33.82    0.79 
   2  -6  -4   76.54    1.96 
   2   6  -4   78.35    1.76 
   2   6  -4   76.85    1.87 
  -2   6   4   78.74    1.91 
  -2   6   4   78.80    1.75 
   1  -6  -4    1.23    0.21 
   1   6  -4    1.35    0.18 
  -1   6   4    1.28    0.19 
   1   6  -4    1.48    0.15 
   0  -6  -4    3.63    0.29 
   0   6  -4    3.87    0.24 
   0   6   4    3.36    0.25 
   0   6  -4    3.58    0.26 
  -1  -6  -4   -0.05    0.14 
  -1   6  -4    0.08    0.11 
  -1   6  -4    0.15    0.11 
  -2  -6  -4   36.77    1.10 
  -2   6  -4   37.01    1.05 
  -2   6  -4   36.44    1.06 
  -3  -6  -4    1.68    0.27 
  -3   6  -4    2.10    0.27 
  -3   6  -4    1.74    0.24 
  -4  -6  -4    8.88    0.51 
  -4   6  -4    9.00    0.50 
  -4   6  -4    9.05    0.50 
  -5  -6  -4   11.65    0.63 
  -5   6  -4   14.44    0.66 
  -5   6  -4   13.85    0.65 
  -8  -7   4    6.37    0.65 
  -8   7   4    6.58    0.46 
  -8   7   4    6.95    0.52 
  -7  -7   4    7.12    0.60 
  -7   7   4    6.56    0.45 
  -7   7   4    7.26    0.49 
  -6  -7   4    0.26    0.23 
   6   7  -4    0.29    0.15 
  -6   7   4    0.05    0.14 
  -6   7   4    0.56    0.18 
  -5  -7   4    0.47    0.22 
   5   7  -4    0.24    0.14 
  -5   7   4    0.84    0.18 
  -5   7   4    0.65    0.18 
  -4   7   4   21.84    0.76 
  -4   7   4   22.23    0.69 
   4   7  -4   21.63    0.72 
   3   7  -4   35.65    1.00 
  -3   7   4   35.60    1.03 
  -3   7   4   33.18    0.89 
   2   7  -4    5.74    0.25 
   2   7  -4    6.09    0.34 
  -2   7   4    5.56    0.34 
   1  -7  -4    8.80    0.48 
  -1   7   4    9.27    0.44 
   1   7  -4   10.04    0.36 
   1   7  -4    9.54    0.42 
   0  -7  -4    2.64    0.29 
   0   7   4    3.45    0.28 
   0   7  -4    3.22    0.23 
   0   7  -4    3.17    0.27 
  -1  -7  -4   16.31    0.64 
   1   7   4   14.95    0.56 
  -1   7  -4   14.19    0.54 
  -1   7  -4   15.50    0.58 
  -2  -7  -4    1.92    0.28 
  -2   7  -4    2.20    0.25 
  -2   7  -4    1.92    0.24 
  -3  -7  -4   16.05    0.68 
  -3   7  -4   16.09    0.66 
  -3   7  -4   15.91    0.64 
  -4  -7  -4    0.61    0.22 
  -4   7  -4    0.56    0.21 
  -4   7  -4    0.58    0.20 
  -5  -7  -4    1.19    0.28 
  -5   7  -4    1.27    0.27 
  -5   7  -4    0.96    0.27 
  -7  -8   4    9.62    0.70 
  -7   8   4   10.44    0.57 
  -7   8   4    9.29    0.54 
  -6  -8   4   16.62    0.83 
   6   8  -4   16.29    0.64 
  -6   8   4   16.53    0.67 
  -6   8   4   16.10    0.69 
  -5  -8   4    0.06    0.22 
  -5   8   4    0.01    0.12 
   5   8  -4   -0.01    0.13 
  -5   8   4    0.00    0.16 
  -4   8   4    8.12    0.46 
   4   8  -4    7.28    0.40 
  -4   8   4    8.10    0.42 
  -3   8   4    4.46    0.33 
   3   8  -4    3.90    0.30 
   2   8  -4   13.42    0.53 
   2   8  -4   13.38    0.42 
  -2   8   4   13.11    0.55 
   1  -8  -4    3.18    0.33 
   1   8  -4    3.37    0.27 
  -1   8   4    2.57    0.28 
   1   8  -4    3.04    0.21 
   0  -8  -4   14.46    0.64 
   0   8   4   15.95    0.60 
   0   8  -4   15.69    0.59 
   0   8  -4   16.47    0.54 
  -1  -8  -4    9.47    0.50 
   1   8   4    8.17    0.42 
  -1   8  -4    9.15    0.45 
  -1   8  -4    8.75    0.41 
  -2  -8  -4    0.31    0.17 
  -2   8  -4    0.19    0.14 
   2   8   4    0.07    0.12 
  -2   8  -4    0.16    0.16 
  -3  -8  -4    0.55    0.22 
  -3   8  -4    0.70    0.21 
   3   8   4    0.68    0.18 
  -3   8  -4    0.49    0.19 
  -4  -8  -4    2.57    0.35 
  -4   8  -4    2.96    0.36 
  -4   8  -4    2.07    0.29 
  -5   8  -4    0.67    0.23 
  -5   8  -4    0.69    0.25 
  -6  -9   4    3.04    0.43 
   6   9  -4    2.47    0.30 
  -6   9   4    3.47    0.38 
  -5  -9   4   11.99    0.69 
   5   9  -4   11.74    0.54 
  -5   9   4   11.79    0.58 
  -4   9   4    2.51    0.31 
   4   9  -4    1.87    0.25 
  -3   9   4   19.20    0.76 
   3   9  -4   20.82    0.71 
  -2   9   4    5.54    0.38 
   2   9  -4    5.17    0.34 
   1   9  -4    0.57    0.13 
   1   9  -4    0.64    0.17 
  -1   9   4    0.33    0.16 
   0  -9  -4    0.97    0.24 
   0   9  -4    0.68    0.15 
   0   9  -4    0.90    0.18 
   0   9   4    0.66    0.20 
  -1  -9  -4   -0.11    0.16 
  -1   9  -4    0.09    0.13 
   1   9   4    0.02    0.12 
  -1   9  -4   -0.03    0.13 
  -2  -9  -4    2.66    0.33 
   2   9   4    2.16    0.26 
  -2   9  -4    1.85    0.26 
  -2   9  -4    2.32    0.30 
  -3  -9  -4   14.36    0.66 
  -3   9  -4   13.50    0.63 
   3   9   4   14.00    0.59 
  -3   9  -4   14.43    0.63 
  -4  -9  -4    3.76    0.40 
  -4   9  -4    3.44    0.39 
  -4   9  -4    2.72    0.35 
   4   9   4    3.65    0.32 
  -6 -10   4    3.12    0.46 
   6  10  -4    3.34    0.34 
  -6  10   4    3.89    0.42 
  -5 -10   4    0.27    0.25 
  -5  10   4   -0.25    0.14 
   5  10  -4    0.07    0.15 
  -4  10   4    2.07    0.30 
   4  10  -4    2.36    0.27 
   3  10  -4    8.34    0.45 
  -3  10   4    8.89    0.51 
   2  10  -4   21.61    0.75 
  -2  10   4   20.70    0.80 
   1  10  -4    6.20    0.38 
   1  10  -4    7.38    0.40 
  -1  10   4    7.10    0.44 
   0  10  -4    0.55    0.15 
   0  10   4    0.28    0.17 
   0  10  -4    0.60    0.18 
  -1 -10  -4    1.37    0.29 
  -1  10  -4    1.48    0.25 
   1  10   4    1.59    0.25 
  -1  10  -4    1.51    0.23 
  -2 -10  -4    7.27    0.49 
  -2  10  -4    7.29    0.44 
   2  10   4    6.92    0.42 
  -2  10  -4    7.68    0.48 
  -3 -10  -4    1.39    0.28 
  -3  10  -4    0.85    0.23 
   3  10   4    0.90    0.21 
  -3  10  -4    0.97    0.25 
  -5 -11   4    2.15    0.40 
   5  11  -4    2.75    0.46 
  -5  11   4    2.80    0.38 
   4  11  -4    0.41    0.18 
  -4  11   4    0.44    0.22 
   3  11  -4    1.90    0.26 
  -3  11   4    2.71    0.36 
   2  11  -4    1.57    0.24 
  -2  11   4    1.76    0.28 
  -1  11   4    2.23    0.30 
   1  11  -4    2.18    0.28 
   0  11   4    0.43    0.18 
   0  11  -4    0.04    0.14 
   0  11  -4   -0.03    0.16 
   1  11   4    5.52    0.41 
  -1  11  -4    5.84    0.38 
  -1  11  -4    5.82    0.43 
  -2 -11  -4    0.02    0.20 
   2  11   4    0.14    0.16 
  -2  11  -4    0.07    0.17 
  -2  11  -4    0.24    0.20 
  -3  12   4    5.14    0.46 
   3  12  -4    5.12    0.59 
  -2  12   4    4.48    0.42 
   2  12  -4    3.95    0.34 
  -1  12   4    0.48    0.22 
   1  12  -4    0.91    0.22 
   0  12  -4    6.26    0.42 
   0  12   4    6.13    0.45 
  -9   0   5    3.33    0.53 
  -8   0   5    0.86    0.28 
  -7   0   5    1.03    0.29 
  -6   0   5    2.67    0.39 
  -6   0   5    2.84    0.19 
  -5   0   5   14.37    0.66 
  -5   0   5   14.55    0.44 
   5   0  -5   14.06    0.51 
   4   0  -5    1.81    0.17 
  -4   0   5    1.95    0.15 
  -4   0   5    1.70    0.26 
   4   0  -5    1.81    0.19 
   3   0  -5  154.84    3.46 
  -3   0   5  155.93    3.42 
   3   0  -5  157.52    3.47 
   2   0  -5    3.29    0.23 
   2   0  -5    3.10    0.20 
   1   0  -5   73.02    1.70 
   1   0  -5   73.30    1.76 
   0   0  -5   19.69    0.57 
   0   0  -5   18.75    0.63 
  -1   0  -5    2.03    0.18 
  -1   0  -5    2.20    0.24 
  -2   0  -5    3.27    0.24 
  -2   0  -5    3.70    0.30 
  -3   0  -5  134.35    3.05 
  -3   0  -5  132.47    3.16 
  -4   0  -5   69.45    1.73 
  -4   0  -5   67.17    1.83 
  -5   0  -5   39.64    1.24 
  -5   0  -5   37.48    1.12 
  -6   0  -5    0.46    0.20 
  -6   0  -5    0.66    0.23 
  -9  -1   5    4.33    0.56 
  -9   1   5    5.47    0.66 
  -8  -1   5    6.24    0.60 
  -8   1   5    6.76    0.58 
  -7  -1   5    3.50    0.46 
  -7   1   5    2.67    0.24 
  -7   1   5    2.14    0.38 
  -6  -1   5    5.25    0.47 
  -6   1   5    4.84    0.26 
  -6   1   5    4.73    0.45 
  -5  -1   5    1.56    0.13 
  -5  -1   5    1.61    0.28 
  -5   1   5    2.18    0.31 
  -5   1   5    1.65    0.16 
   5   1  -5    2.02    0.22 
   4  -1  -5   99.96    2.33 
  -4  -1   5  101.67    2.51 
   4  -1  -5  101.98    2.34 
  -4  -1   5  101.56    2.25 
   4   1  -5  102.42    2.36 
   4   1  -5  102.39    2.28 
  -4   1   5  101.78    2.30 
  -4   1   5   99.52    2.48 
   3  -1  -5    0.63    0.12 
   3  -1  -5    0.59    0.13 
   3   1  -5    0.60    0.14 
  -3   1   5    0.77    0.17 
  -3   1   5    0.78    0.12 
   3   1  -5    0.67    0.12 
   2  -1  -5   85.31    1.91 
   2  -1  -5   81.59    1.97 
   2   1  -5   83.14    1.93 
   2   1  -5   83.40    1.93 
   1  -1  -5   10.69    0.36 
   1  -1  -5   10.30    0.43 
   1   1  -5   10.71    0.41 
   1   1  -5   10.58    0.39 
   0  -1  -5   39.09    1.06 
   0  -1  -5   38.47    0.95 
   0   1  -5   37.98    0.98 
   0   1  -5   37.46    1.03 
  -1  -1  -5   48.65    1.33 
  -1  -1  -5   49.19    1.20 
  -1   1  -5   50.03    1.24 
  -1   1  -5   49.70    1.31 
  -2  -1  -5    5.65    0.36 
  -2  -1  -5    5.05    0.27 
  -2   1  -5    5.58    0.35 
  -2   1  -5    4.54    0.29 
  -3  -1  -5    9.21    0.48 
  -3  -1  -5    8.71    0.39 
  -3   1  -5    9.36    0.42 
  -3   1  -5    8.91    0.47 
  -4  -1  -5    2.39    0.25 
  -4  -1  -5    2.36    0.29 
  -4   1  -5    2.34    0.30 
  -4   1  -5    2.56    0.28 
  -5  -1  -5    0.77    0.24 
  -5  -1  -5    0.46    0.17 
  -5   1  -5    0.53    0.21 
  -5   1  -5    0.46    0.19 
  -6  -1  -5    0.64    0.21 
  -6  -1  -5    1.42    0.30 
  -6   1  -5    0.75    0.22 
  -6   1  -5    0.98    0.27 
  -9  -2   5    7.50    0.69 
  -9   2   5    6.50    0.64 
  -8  -2   5    4.12    0.53 
  -8   2   5    5.11    0.55 
  -7  -2   5   15.20    0.81 
  -7   2   5   15.78    0.78 
  -7   2   5   14.66    0.53 
  -6  -2   5   17.84    0.82 
  -6   2   5   18.51    0.79 
   6   2  -5   17.85    0.64 
  -6   2   5   18.18    0.58 
  -5  -2   5   48.10    1.06 
  -5  -2   5   47.37    1.42 
  -5   2   5   44.60    1.37 
   5   2  -5   46.67    1.24 
  -5   2   5   46.18    1.18 
  -4  -2   5   34.19    1.09 
  -4  -2   5   35.24    0.84 
  -4   2   5   35.76    0.94 
  -4   2   5   36.58    1.08 
   4   2  -5   36.61    0.87 
   4   2  -5   34.92    0.97 
   3  -2  -5   24.68    0.68 
   3  -2  -5   25.91    0.76 
  -3   2   5   24.77    0.71 
   3   2  -5   25.18    0.67 
   3   2  -5   25.39    0.73 
  -3   2   5   23.90    0.78 
   2  -2  -5    2.72    0.17 
   2  -2  -5    2.45    0.23 
   2   2  -5    2.33    0.18 
   2   2  -5    2.18    0.20 
   1  -2  -5   33.98    0.97 
   1  -2  -5   34.87    0.85 
   1   2  -5   34.87    0.92 
   1   2  -5   34.68    0.92 
   0  -2  -5   32.44    0.81 
   0  -2  -5   31.20    0.93 
   0   2  -5   33.49    0.91 
   0   2  -5   32.72    0.88 
  -1  -2  -5    5.78    0.25 
  -1  -2  -5    5.24    0.34 
  -1   2  -5    5.30    0.29 
  -1   2  -5    5.73    0.33 
  -2  -2  -5    8.68    0.33 
  -2  -2  -5    7.58    0.43 
  -2   2  -5    8.17    0.38 
  -2   2  -5    8.48    0.41 
  -3  -2  -5   22.11    0.80 
  -3  -2  -5   20.47    0.63 
  -3   2  -5   20.51    0.74 
  -3   2  -5   20.73    0.71 
  -4  -2  -5    4.27    0.39 
  -4  -2  -5    3.99    0.28 
  -4   2  -5    4.08    0.33 
  -4   2  -5    4.28    0.37 
  -5  -2  -5    0.43    0.22 
  -5  -2  -5    0.47    0.16 
  -5   2  -5    0.85    0.21 
  -5   2  -5    0.20    0.19 
  -6  -2  -5    4.61    0.46 
  -6   2  -5    4.43    0.40 
  -6   2  -5    5.47    0.46 
  -9  -3   5    4.69    0.60 
  -9   3   5    6.15    0.60 
  -8  -3   5   19.84    0.99 
  -8   3   5   18.53    0.91 
  -8   3   5   19.09    0.74 
  -7  -3   5    0.36    0.24 
  -7   3   5   -0.07    0.20 
  -7   3   5    0.13    0.13 
  -6  -3   5   14.02    0.73 
  -6   3   5   14.85    0.53 
  -6   3   5   14.73    0.70 
   6   3  -5   13.85    0.56 
  -5  -3   5   33.64    1.12 
   5   3  -5   32.27    0.95 
  -5   3   5   32.86    0.92 
  -5   3   5   34.09    1.08 
  -4  -3   5   99.23    2.58 
  -4  -3   5  109.51    2.26 
  -4   3   5  104.21    2.42 
   4   3  -5  108.45    2.28 
  -4   3   5  105.59    2.54 
   4   3  -5   98.86    2.44 
   3  -3  -5   11.14    0.37 
   3  -3  -5   11.24    0.47 
   3   3  -5   10.76    0.35 
   3   3  -5   10.63    0.42 
  -3   3   5   10.35    0.41 
  -3   3   5   11.20    0.46 
   2  -3  -5   13.96    0.55 
   2  -3  -5   15.23    0.44 
   2   3  -5   15.15    0.52 
   2   3  -5   15.06    0.47 
  -2   3   5   14.69    0.51 
  -2   3   5   14.73    0.51 
   1  -3  -5   44.46    1.03 
   1  -3  -5   43.24    1.19 
   1   3  -5   43.99    1.14 
   1   3  -5   44.08    1.11 
   0  -3  -5    1.73    0.13 
   0  -3  -5    1.85    0.23 
   0   3  -5    1.89    0.19 
   0   3  -5    1.79    0.20 
  -1  -3  -5    2.27    0.15 
  -1  -3  -5    2.39    0.25 
  -1   3  -5    2.39    0.23 
  -2  -3  -5    8.49    0.46 
  -2  -3  -5    8.35    0.31 
  -2   3  -5    8.66    0.41 
  -2   3  -5    8.04    0.41 
  -3  -3  -5    0.30    0.17 
  -3  -3  -5    0.49    0.11 
  -3   3  -5    0.35    0.15 
  -3   3  -5    0.28    0.14 
  -4  -3  -5    4.70    0.29 
  -4  -3  -5    5.15    0.42 
  -4   3  -5    4.35    0.36 
  -4   3  -5    4.75    0.37 
  -5  -3  -5    1.99    0.33 
  -5   3  -5    1.58    0.28 
  -5   3  -5    1.95    0.28 
  -6  -3  -5   -0.04    0.21 
  -6   3  -5   -0.03    0.18 
  -6   3  -5    0.11    0.22 
  -8  -4   5    4.45    0.55 
  -8   4   5    5.00    0.36 
  -8   4   5    5.02    0.51 
  -7  -4   5   17.30    0.88 
  -7   4   5   16.97    0.79 
  -7   4   5   16.99    0.63 
  -6  -4   5   49.85    1.58 
  -6   4   5   52.91    1.52 
  -6   4   5   50.90    1.34 
   6   4  -5   49.45    1.37 
  -5  -4   5    3.00    0.38 
  -5   4   5    3.42    0.32 
   5   4  -5    3.14    0.28 
  -5   4   5    3.29    0.27 
  -4   4   5    1.34    0.21 
  -4   4   5    1.39    0.19 
   4   4  -5    1.30    0.20 
   3  -4  -5   81.29    2.01 
  -3   4   5   80.59    1.96 
   3   4  -5   82.75    1.83 
  -3   4   5   82.82    1.97 
   3   4  -5   79.36    1.96 
   2  -4  -5   13.24    0.53 
  -2   4   5   12.10    0.48 
   2   4  -5   13.67    0.43 
  -2   4   5   14.02    0.47 
   2   4  -5   13.06    0.49 
   1  -4  -5    6.54    0.38 
   1  -4  -5    6.38    0.22 
   1   4  -5    6.21    0.32 
  -1   4   5    6.94    0.28 
   1   4  -5    6.13    0.29 
   0  -4  -5   17.57    0.46 
   0  -4  -5   17.08    0.65 
   0   4  -5   18.03    0.60 
   0   4  -5   18.36    0.59 
  -1  -4  -5   10.34    0.32 
  -1  -4  -5   11.10    0.51 
  -1   4  -5   10.28    0.45 
  -1   4  -5   11.19    0.46 
  -2  -4  -5    3.68    0.19 
  -2  -4  -5    4.07    0.35 
  -2   4  -5    4.16    0.31 
  -2   4  -5    3.64    0.28 
  -3  -4  -5    4.18    0.38 
  -3   4  -5    5.00    0.36 
  -3   4  -5    4.88    0.37 
  -4  -4  -5    5.27    0.43 
  -4   4  -5    5.87    0.43 
  -4   4  -5    5.39    0.40 
  -5  -4  -5    0.00    0.18 
  -5   4  -5    0.24    0.19 
  -5   4  -5    0.14    0.18 
  -8  -5   5    5.67    0.61 
  -8   5   5    5.49    0.40 
  -8   5   5    6.03    0.51 
  -7  -5   5    0.02    0.25 
  -7   5   5    0.30    0.16 
  -7   5   5    0.03    0.19 
  -6  -5   5    0.39    0.27 
  -6   5   5    0.29    0.16 
   6   5  -5    0.32    0.16 
  -6   5   5    0.34    0.18 
  -5  -5   5    0.41    0.24 
   5   5  -5    0.34    0.15 
  -5   5   5    0.20    0.15 
  -5   5   5    0.10    0.15 
   4   5  -5  129.42    3.01 
  -4   5   5  128.22    3.00 
  -4   5   5  130.52    3.02 
   3  -5  -5   27.99    0.90 
  -3   5   5   27.98    0.85 
  -3   5   5   27.53    0.81 
   3   5  -5   28.94    0.71 
   3   5  -5   28.09    0.85 
   2  -5  -5    2.07    0.27 
  -2   5   5    1.65    0.18 
   2   5  -5    1.96    0.21 
   2   5  -5    2.42    0.17 
  -2   5   5    1.94    0.23 
   1  -5  -5    0.34    0.14 
  -1   5   5    0.20    0.12 
   1   5  -5    0.35    0.13 
  -1   5   5    0.64    0.10 
   1   5  -5    0.56    0.12 
   0  -5  -5   24.55    0.83 
   0   5  -5   23.84    0.73 
   0   5  -5   24.73    0.76 
  -1  -5  -5    8.07    0.44 
  -1   5  -5    8.31    0.40 
  -1   5  -5    8.30    0.41 
  -2  -5  -5   10.74    0.55 
  -2   5  -5   11.36    0.51 
  -2   5  -5   11.38    0.50 
  -3  -5  -5   15.05    0.67 
  -3   5  -5   14.23    0.62 
  -3   5  -5   14.72    0.62 
  -4  -5  -5    0.76    0.24 
  -4   5  -5    0.65    0.22 
  -4   5  -5    0.82    0.24 
  -5  -5  -5    3.24    0.40 
  -5   5  -5    2.80    0.38 
  -5   5  -5    3.29    0.39 
  -8  -6   5    1.40    0.39 
  -8   6   5    0.97    0.28 
  -8   6   5    1.10    0.24 
  -7  -6   5    6.57    0.60 
  -7   6   5    6.75    0.44 
  -7   6   5    7.73    0.53 
   7   6  -5    8.07    0.46 
  -6  -6   5   18.48    0.87 
  -6   6   5   16.86    0.67 
   6   6  -5   17.48    0.67 
  -6   6   5   18.57    0.73 
  -5  -6   5    0.40    0.21 
   5   6  -5    0.15    0.14 
  -5   6   5    0.27    0.14 
  -5   6   5    0.11    0.14 
  -4   6   5   16.22    0.62 
   4   6  -5   17.09    0.62 
  -4   6   5   15.35    0.57 
  -3   6   5   65.47    1.57 
   3   6  -5   64.84    1.65 
  -3   6   5   64.76    1.67 
   2  -6  -5    3.10    0.32 
  -2   6   5    3.72    0.29 
   2   6  -5    3.06    0.27 
   2   6  -5    3.29    0.20 
   1  -6  -5   32.06    1.01 
  -1   6   5   32.66    0.95 
   1   6  -5   31.16    0.93 
   1   6  -5   31.70    0.87 
   0  -6  -5   11.12    0.53 
   0   6   5   11.33    0.49 
   0   6  -5   12.05    0.47 
   0   6  -5   12.31    0.50 
  -1  -6  -5   16.18    0.68 
  -1   6  -5   16.47    0.60 
  -1   6  -5   17.38    0.64 
  -2  -6  -5    8.40    0.48 
  -2   6  -5    8.00    0.43 
  -2   6  -5    7.66    0.44 
  -3  -6  -5    3.80    0.39 
  -3   6  -5    3.61    0.33 
  -3   6  -5    4.18    0.36 
  -4  -6  -5   15.68    0.74 
  -4   6  -5   16.59    0.73 
  -4   6  -5   16.60    0.72 
  -5  -6  -5    0.26    0.22 
  -5   6  -5    0.45    0.21 
  -5   6  -5    0.67    0.25 
  -7  -7   5    0.34    0.27 
  -7   7   5    0.08    0.16 
   7   7  -5   -0.01    0.16 
  -7   7   5   -0.12    0.16 
  -6  -7   5    5.63    0.53 
  -6   7   5    5.13    0.39 
   6   7  -5    5.64    0.38 
  -6   7   5    4.24    0.37 
  -5  -7   5    2.04    0.35 
  -5   7   5    3.13    0.28 
  -5   7   5    1.86    0.26 
   5   7  -5    2.03    0.26 
   4   7  -5   19.31    0.69 
  -4   7   5   18.88    0.66 
  -4   7   5   19.40    0.72 
   3   7  -5   -0.12    0.11 
  -3   7   5    0.09    0.15 
   2  -7  -5   24.26    0.88 
   2   7  -5   23.91    0.79 
  -2   7   5   25.57    0.83 
   2   7  -5   24.79    0.69 
   1  -7  -5   10.33    0.54 
   1   7  -5   11.42    0.49 
   1   7  -5   10.99    0.42 
  -1   7   5   10.50    0.49 
   0  -7  -5   11.66    0.55 
   0   7  -5   11.13    0.46 
   0   7  -5   11.95    0.51 
   0   7   5   10.76    0.50 
  -1  -7  -5    7.65    0.48 
  -1   7  -5    8.65    0.41 
  -1   7  -5    7.35    0.43 
   1   7   5    6.78    0.40 
  -2  -7  -5    1.44    0.27 
  -2   7  -5    1.12    0.21 
  -2   7  -5    0.76    0.20 
  -3  -7  -5    3.79    0.40 
  -3   7  -5    3.80    0.34 
  -3   7  -5    3.34    0.35 
  -4  -7  -5    1.45    0.30 
  -4   7  -5    2.18    0.33 
  -4   7  -5    1.87    0.30 
  -7  -8   5    5.01    0.58 
  -7   8   5    5.68    0.48 
   7   8  -5    4.93    0.40 
  -7   8   5    5.90    0.45 
  -6  -8   5    1.12    0.32 
   6   8  -5    0.47    0.18 
  -6   8   5    0.62    0.22 
  -5  -8   5   13.70    0.73 
   5   8  -5   12.81    0.58 
  -5   8   5   13.39    0.63 
  -4   8   5    9.50    0.51 
   4   8  -5    8.90    0.46 
   3   8  -5    5.07    0.36 
  -3   8   5    4.83    0.38 
   2   8  -5    0.08    0.13 
  -2   8   5    0.03    0.13 
   1  -8  -5    7.08    0.47 
   1   8  -5    6.63    0.39 
  -1   8   5    6.81    0.41 
   1   8  -5    6.47    0.32 
   0  -8  -5    6.83    0.47 
   0   8  -5    7.45    0.42 
   0   8  -5    7.73    0.38 
   0   8   5    6.02    0.40 
  -1  -8  -5    2.97    0.36 
  -1   8  -5    2.77    0.32 
  -1   8  -5    3.29    0.28 
   1   8   5    2.29    0.28 
  -2  -8  -5    0.95    0.25 
  -2   8  -5    0.83    0.21 
  -2   8  -5    0.64    0.19 
   2   8   5    0.64    0.18 
  -3  -8  -5    5.24    0.47 
  -3   8  -5    4.75    0.40 
  -3   8  -5    5.43    0.43 
  -4  -8  -5    4.16    0.46 
  -4   8  -5    4.57    0.44 
  -4   8  -5    4.61    0.43 
  -6  -9   5    2.41    0.41 
  -6   9   5    4.03    0.40 
   6   9  -5    3.68    0.36 
  -5  -9   5    2.42    0.39 
  -5   9   5    2.57    0.34 
   5   9  -5    1.66    0.26 
   4   9  -5   11.31    0.54 
  -4   9   5   12.69    0.61 
  -3   9   5    2.83    0.33 
   3   9  -5    3.63    0.33 
   2   9  -5    3.64    0.32 
  -2   9   5    4.03    0.36 
   1  -9  -5    7.52    0.50 
   1   9  -5    7.43    0.43 
   1   9  -5    8.13    0.37 
  -1   9   5    7.12    0.45 
   0  -9  -5    0.08    0.20 
   0   9  -5    0.34    0.16 
   0   9   5    0.24    0.16 
   0   9  -5    0.22    0.14 
  -1  -9  -5    1.23    0.27 
   1   9   5    1.28    0.23 
  -1   9  -5    1.00    0.20 
  -1   9  -5    1.28    0.25 
  -2  -9  -5    0.56    0.23 
   2   9   5    0.14    0.16 
  -2   9  -5    0.52    0.22 
  -2   9  -5    0.37    0.18 
  -3  -9  -5    0.20    0.21 
  -3   9  -5    0.00    0.17 
   3   9   5    0.22    0.16 
  -3   9  -5    0.58    0.23 
  -5 -10   5    1.99    0.38 
   5  10  -5    2.67    0.33 
  -5  10   5    2.67    0.36 
  -4  10   5    1.18    0.27 
   4  10  -5    0.93    0.23 
   3  10  -5    9.10    0.49 
  -3  10   5    9.72    0.55 
  -2  10   5    4.49    0.40 
   2  10  -5    3.67    0.34 
  -1  10   5    0.75    0.20 
   1  10  -5    0.84    0.21 
   0 -10  -5    2.35    0.34 
   0  10  -5    2.55    0.30 
   0  10   5    2.43    0.32 
   0  10  -5    2.57    0.27 
  -1 -10  -5    0.48    0.25 
  -1  10  -5    0.24    0.19 
   1  10   5    0.70    0.20 
  -1  10  -5    0.80    0.20 
  -2 -10  -5    1.04    0.28 
  -2  10  -5    1.11    0.26 
   2  10   5    1.35    0.25 
  -2  10  -5    1.10    0.24 
   4  11  -5    4.29    0.38 
  -4  11   5    4.55    0.44 
   3  11  -5    1.32    0.25 
  -3  11   5    1.23    0.29 
   2  11  -5    3.23    0.34 
  -2  11   5    2.90    0.35 
  -1  11   5    0.38    0.21 
   1  11  -5    0.29    0.19 
   0  11   5    4.86    0.42 
   0  11  -5    5.01    0.41 
  -1 -11  -5    5.76    0.51 
  -1  11  -5    5.60    0.45 
   1  11   5    5.37    0.43 
  -1  11  -5    5.72    0.41 
  -9   0   6    0.12    0.30 
  -8   0   6   16.88    0.92 
  -7   0   6    5.52    0.54 
  -6   0   6    3.34    0.42 
  -6   0   6    3.94    0.23 
   5   0  -6    5.49    0.32 
  -5   0   6    5.24    0.26 
  -5   0   6    4.43    0.42 
   4   0  -6   27.02    0.78 
   4   0  -6   25.62    0.78 
  -4   0   6   27.14    0.73 
  -4   0   6   26.19    0.92 
   2   0  -6   51.10    1.28 
   2   0  -6   51.32    1.33 
   1   0  -6  308.96    6.69 
   1   0  -6  310.89    6.78 
   0   0  -6   26.75    0.75 
   0   0  -6   24.96    0.82 
  -1   0  -6   10.88    0.43 
  -1   0  -6   10.79    0.51 
  -2   0  -6    6.28    0.34 
  -2   0  -6    6.32    0.42 
  -3   0  -6   24.43    0.76 
  -3   0  -6   22.05    0.84 
  -4   0  -6    2.43    0.29 
  -4   0  -6    2.88    0.37 
  -5   0  -6    6.64    0.51 
  -5   0  -6    6.16    0.41 
  -9  -1   6   10.16    0.78 
  -9   1   6    9.55    0.76 
  -8  -1   6    1.20    0.34 
  -8   1   6    1.28    0.36 
  -7  -1   6    0.16    0.26 
  -7   1   6    0.46    0.28 
  -6  -1   6    0.26    0.23 
   6   1  -6    0.02    0.13 
  -6   1   6    0.00    0.21 
  -6   1   6    0.35    0.11 
  -5  -1   6   16.93    0.49 
   5  -1  -6   16.60    0.58 
  -5  -1   6   15.56    0.72 
   5   1  -6   17.18    0.60 
  -5   1   6   16.19    0.72 
  -5   1   6   16.95    0.54 
  -4  -1   6   55.93    1.29 
  -4  -1   6   54.25    1.52 
   4  -1  -6   53.10    1.37 
   4  -1  -6   49.85    1.33 
   4   1  -6   54.09    1.38 
  -4   1   6   53.48    1.32 
   4   1  -6   53.57    1.32 
  -4   1   6   53.87    1.50 
   3  -1  -6    0.65    0.16 
   3  -1  -6    0.59    0.13 
  -3   1   6    0.57    0.17 
   3   1  -6    0.70    0.15 
   3   1  -6    0.65    0.14 
  -3   1   6    0.59    0.13 
   2  -1  -6    1.93    0.23 
   2  -1  -6    2.81    0.20 
   2   1  -6    2.32    0.20 
   2   1  -6    2.50    0.22 
   1  -1  -6    0.69    0.12 
   1  -1  -6    0.69    0.18 
   1   1  -6    0.80    0.15 
   1   1  -6    0.63    0.15 
   0  -1  -6  147.45    3.39 
   0  -1  -6  146.32    3.24 
   0   1  -6  147.38    3.37 
   0   1  -6  142.68    3.28 
  -1  -1  -6   11.04    0.41 
  -1  -1  -6   11.01    0.53 
  -1   1  -6   12.06    0.46 
  -1   1  -6   10.49    0.50 
  -2  -1  -6    9.80    0.41 
  -2  -1  -6    9.60    0.53 
  -2   1  -6   10.03    0.51 
  -2   1  -6    9.89    0.44 
  -3  -1  -6    0.32    0.22 
  -3  -1  -6    0.45    0.14 
  -3   1  -6    0.64    0.19 
  -3   1  -6    0.67    0.17 
  -4  -1  -6   27.15    1.00 
  -4  -1  -6   27.08    0.85 
  -4   1  -6   26.50    0.98 
  -4   1  -6   25.96    0.88 
  -5  -1  -6    8.95    0.59 
  -5  -1  -6    8.15    0.46 
  -5   1  -6    8.66    0.50 
  -5   1  -6    8.33    0.56 
  -9  -2   6    0.00    0.30 
  -9   2   6    0.15    0.30 
  -8  -2   6   22.84    1.08 
  -8   2   6   20.64    0.99 
  -7  -2   6    4.52    0.52 
  -7   2   6    3.77    0.27 
  -7   2   6    4.06    0.48 
  -6  -2   6    6.59    0.53 
   6   2  -6    6.16    0.37 
  -6   2   6    5.78    0.31 
  -6   2   6    5.77    0.49 
  -5  -2   6   48.17    1.48 
  -5   2   6   49.13    1.25 
   5   2  -6   49.47    1.31 
  -5   2   6   47.10    1.43 
   4  -2  -6    0.71    0.13 
   4  -2  -6    0.76    0.17 
  -4  -2   6    0.80    0.11 
   4   2  -6    0.92    0.13 
  -4   2   6    1.03    0.16 
   4   2  -6    0.81    0.16 
  -4   2   6    0.65    0.19 
   3  -2  -6   29.56    0.80 
   3  -2  -6   29.40    0.88 
  -3   2   6   28.76    0.82 
   3   2  -6   29.69    0.81 
   3   2  -6   28.33    0.84 
  -3   2   6   28.42    0.90 
   2  -2  -6    2.72    0.19 
   2  -2  -6    2.57    0.26 
   2   2  -6    2.66    0.23 
   2   2  -6    2.50    0.22 
   1  -2  -6   44.66    1.25 
   1  -2  -6   44.70    1.11 
   1   2  -6   46.14    1.19 
   1   2  -6   45.50    1.20 
   0  -2  -6    0.06    0.15 
   0  -2  -6    0.01    0.08 
   0   2  -6    0.05    0.10 
   0   2  -6    0.05    0.12 
  -1  -2  -6   26.36    0.89 
  -1  -2  -6   26.04    0.72 
  -1   2  -6   25.96    0.80 
  -1   2  -6   26.99    0.86 
  -2  -2  -6    0.36    0.12 
  -2  -2  -6    0.26    0.17 
  -2   2  -6    0.28    0.15 
  -2   2  -6    0.19    0.15 
  -3  -2  -6    2.39    0.22 
  -3  -2  -6    2.33    0.32 
  -3   2  -6    2.69    0.33 
  -3   2  -6    2.77    0.28 
  -4  -2  -6   -0.04    0.19 
  -4  -2  -6    0.05    0.13 
  -4   2  -6    0.00    0.16 
  -4   2  -6    0.03    0.18 
  -5  -2  -6    3.73    0.44 
  -5   2  -6    3.07    0.41 
  -5   2  -6    2.82    0.35 
  -8  -3   6    4.08    0.57 
  -8   3   6    4.94    0.56 
  -7  -3   6   18.82    0.94 
  -7   3   6   19.92    0.88 
  -7   3   6   18.02    0.65 
   7   3  -6   20.34    0.74 
  -6  -3   6   28.27    1.09 
   6   3  -6   28.64    0.89 
  -6   3   6   26.50    0.82 
  -6   3   6   27.05    1.02 
  -5  -3   6    3.78    0.43 
  -5   3   6    2.93    0.25 
   5   3  -6    3.31    0.29 
  -5   3   6    3.62    0.36 
  -4  -3   6   23.10    0.60 
   4  -3  -6   22.36    0.77 
   4   3  -6   22.81    0.63 
   4   3  -6   23.63    0.75 
  -4   3   6   22.37    0.72 
  -4   3   6   23.01    0.80 
   3  -3  -6    1.32    0.15 
   3  -3  -6    1.33    0.22 
   3   3  -6    1.16    0.15 
  -3   3   6    1.09    0.18 
  -3   3   6    1.36    0.21 
   3   3  -6    0.99    0.18 
   2  -3  -6   23.52    0.64 
   2  -3  -6   22.81    0.77 
   2   3  -6   22.87    0.72 
   2   3  -6   22.62    0.69 
  -2   3   6   23.42    0.73 
   1  -3  -6    0.20    0.15 
   1  -3  -6    0.24    0.08 
   1   3  -6    0.33    0.12 
   1   3  -6    0.14    0.11 
   0  -3  -6   62.49    1.44 
   0  -3  -6   62.61    1.65 
   0   3  -6   61.68    1.56 
   0   3  -6   60.25    1.57 
  -1  -3  -6    1.90    0.16 
  -1  -3  -6    1.78    0.26 
  -1   3  -6    1.69    0.23 
  -1   3  -6    1.20    0.19 
  -2  -3  -6    3.54    0.37 
  -2  -3  -6    2.85    0.21 
  -2   3  -6    2.80    0.29 
  -2   3  -6    2.71    0.31 
  -3  -3  -6    0.86    0.22 
  -3   3  -6    1.49    0.26 
  -4  -3  -6    2.29    0.33 
  -4   3  -6    2.44    0.34 
  -4   3  -6    2.51    0.32 
  -5  -3  -6   -0.11    0.19 
  -5   3  -6    0.15    0.21 
  -5   3  -6    0.22    0.21 
  -8  -4   6   13.76    0.87 
  -8   4   6   12.90    0.58 
  -8   4   6   14.95    0.80 
  -7  -4   6    5.19    0.56 
  -7   4   6    4.62    0.34 
   7   4  -6    5.20    0.38 
  -7   4   6    4.43    0.46 
  -6  -4   6    4.93    0.48 
   6   4  -6    4.60    0.33 
  -6   4   6    4.89    0.33 
  -6   4   6    4.85    0.44 
  -5  -4   6   23.72    0.95 
  -5   4   6   24.66    0.88 
  -5   4   6   25.46    0.79 
   5   4  -6   23.84    0.80 
  -4   4   6    1.34    0.23 
  -4   4   6    1.47    0.21 
   4   4  -6    1.78    0.23 
   3  -4  -6   33.99    1.04 
  -3   4   6   33.35    0.98 
   3   4  -6   35.08    1.00 
  -3   4   6   33.26    0.97 
   3   4  -6   33.38    0.88 
   2  -4  -6    0.72    0.11 
   2  -4  -6    0.52    0.18 
  -2   4   6    0.76    0.16 
   2   4  -6    0.93    0.18 
   2   4  -6    0.76    0.14 
  -2   4   6    0.75    0.16 
   1  -4  -6   45.04    1.30 
   1  -4  -6   45.62    1.07 
  -1   4   6   47.29    1.15 
   1   4  -6   45.17    1.19 
   1   4  -6   43.87    1.22 
   0  -4  -6   15.32    0.64 
   0  -4  -6   14.78    0.42 
   0   4  -6   14.15    0.56 
   0   4  -6   14.60    0.55 
  -1  -4  -6    1.80    0.27 
  -1   4  -6    1.76    0.23 
  -1   4  -6    2.02    0.24 
  -2  -4  -6   16.55    0.71 
  -2   4  -6   16.77    0.67 
  -2   4  -6   17.13    0.66 
  -3  -4  -6   13.01    0.66 
  -3   4  -6   13.44    0.59 
  -3   4  -6   13.12    0.62 
  -4  -4  -6    3.57    0.43 
  -4   4  -6    3.98    0.42 
  -4   4  -6    3.70    0.40 
  -5   4  -6    2.22    0.36 
  -8  -5   6    7.07    0.67 
  -8   5   6    5.83    0.41 
  -8   5   6    7.28    0.57 
  -7  -5   6    0.36    0.30 
   7   5  -6    0.69    0.21 
  -7   5   6    0.66    0.19 
  -7   5   6    0.44    0.25 
  -6  -5   6    0.83    0.32 
   6   5  -6    1.05    0.22 
  -6   5   6    1.05    0.21 
  -6   5   6    0.62    0.23 
  -5  -5   6    0.11    0.23 
   5   5  -6    0.18    0.15 
  -5   5   6    0.19    0.14 
  -5   5   6    0.22    0.15 
  -4   5   6    1.86    0.25 
   4   5  -6    1.98    0.25 
  -4   5   6    1.93    0.25 
   3  -5  -6   19.92    0.74 
   3   5  -6   18.77    0.66 
   3   5  -6   18.72    0.56 
  -3   5   6   18.57    0.64 
  -3   5   6   18.47    0.67 
   2  -5  -6   32.17    1.03 
  -2   5   6   34.06    0.94 
   2   5  -6   32.38    0.96 
   2   5  -6   32.44    0.88 
  -2   5   6   30.41    0.95 
   1  -5  -6    0.05    0.15 
   1   5  -6    0.07    0.13 
  -1   5   6   -0.05    0.12 
   1   5  -6   -0.04    0.09 
   0  -5  -6   28.77    0.98 
   0   5  -6   29.67    0.91 
   0   5  -6   29.26    0.88 
  -1  -5  -6    1.49    0.28 
  -1   5  -6    1.45    0.24 
  -1   5  -6    1.15    0.21 
  -2  -5  -6   33.72    1.13 
  -2   5  -6   33.24    1.04 
  -2   5  -6   32.74    1.04 
  -3  -5  -6    1.56    0.30 
  -3   5  -6    1.81    0.29 
  -3   5  -6    1.87    0.29 
  -4  -5  -6    0.55    0.24 
  -4   5  -6    0.44    0.21 
  -4   5  -6    0.11    0.19 
  -8  -6   6    4.59    0.58 
  -8   6   6    4.00    0.39 
  -8   6   6    5.24    0.51 
  -7  -6   6    0.64    0.32 
  -7   6   6    0.76    0.22 
   7   6  -6    1.12    0.24 
  -7   6   6    1.58    0.29 
  -6  -6   6    2.12    0.39 
  -6   6   6    1.75    0.26 
  -6   6   6    1.66    0.28 
   6   6  -6    1.85    0.26 
  -5  -6   6    6.72    0.54 
  -5   6   6    5.94    0.40 
   5   6  -6    7.03    0.42 
  -5   6   6    5.96    0.39 
  -4   6   6    4.34    0.34 
  -4   6   6    3.98    0.32 
   4   6  -6    4.64    0.34 
   3  -6  -6    7.47    0.48 
  -3   6   6    8.10    0.43 
   3   6  -6    8.33    0.43 
   2  -6  -6    8.94    0.50 
   2   6  -6    9.43    0.38 
  -2   6   6    9.89    0.46 
   2   6  -6    8.93    0.44 
   1  -6  -6   51.47    1.46 
   1   6  -6   49.74    1.29 
   1   6  -6   50.27    1.37 
  -1   6   6   48.78    1.36 
   0  -6  -6    8.09    0.49 
   0   6  -6    8.23    0.41 
   0   6  -6    8.27    0.44 
  -1  -6  -6    9.55    0.56 
  -1   6  -6    9.16    0.49 
  -1   6  -6   10.58    0.49 
  -2  -6  -6    9.56    0.57 
  -2   6  -6    8.42    0.48 
  -2   6  -6    8.44    0.48 
  -3  -6  -6   12.68    0.68 
  -3   6  -6   13.52    0.64 
  -3   6  -6   13.54    0.65 
  -4  -6  -6    6.33    0.53 
  -4   6  -6    6.27    0.47 
  -4   6  -6    6.47    0.50 
  -7  -7   6    2.64    0.46 
  -7   7   6    2.25    0.33 
  -7   7   6    2.03    0.31 
   7   7  -6    1.98    0.29 
  -6  -7   6    5.18    0.54 
   6   7  -6    3.68    0.36 
  -6   7   6    3.79    0.39 
  -5  -7   6    0.12    0.20 
  -5   7   6    0.35    0.18 
   5   7  -6    0.18    0.15 
  -4   7   6    2.88    0.32 
   4   7  -6    3.09    0.31 
  -3   7   6    3.18    0.33 
   3   7  -6    4.71    0.34 
   2  -7  -6    4.79    0.42 
   2   7  -6    4.93    0.36 
  -2   7   6    5.21    0.37 
   2   7  -6    5.24    0.32 
   1  -7  -6    5.61    0.43 
   1   7  -6    4.35    0.29 
  -1   7   6    4.94    0.36 
   1   7  -6    4.79    0.36 
   0  -7  -6   37.64    1.23 
   0   7  -6   40.10    1.17 
   0   7  -6   39.72    1.11 
   0   7   6   37.98    1.15 
  -1  -7  -6    0.41    0.23 
  -1   7  -6    0.96    0.23 
  -1   7  -6    0.75    0.18 
  -2  -7  -6    8.68    0.57 
  -2   7  -6    8.30    0.48 
  -2   7  -6    7.97    0.48 
  -3  -7  -6    0.21    0.21 
  -3   7  -6    0.31    0.20 
  -3   7  -6    0.03    0.17 
  -6  -8   6    3.07    0.49 
   6   8  -6    3.02    0.35 
  -6   8   6    2.46    0.35 
  -5  -8   6   10.41    0.68 
  -5   8   6   10.48    0.57 
   5   8  -6   11.36    0.56 
   4   8  -6    0.10    0.16 
  -4   8   6    0.15    0.16 
  -3   8   6    8.59    0.49 
   3   8  -6    8.83    0.47 
   2  -8  -6    0.07    0.18 
   2   8  -6   -0.09    0.15 
  -2   8   6    0.10    0.16 
   1  -8  -6    6.15    0.47 
   1   8  -6    6.33    0.35 
  -1   8   6    5.98    0.42 
   1   8  -6    6.64    0.41 
   0  -8  -6    0.22    0.21 
   0   8   6    0.31    0.17 
   0   8  -6    0.49    0.19 
   0   8  -6    0.32    0.15 
  -1  -8  -6    7.44    0.53 
  -1   8  -6    8.23    0.49 
  -1   8  -6    8.07    0.45 
   1   8   6    8.15    0.47 
  -2  -8  -6   -0.03    0.20 
   2   8   6    0.10    0.16 
  -2   8  -6    0.02    0.16 
  -2   8  -6    0.02    0.17 
  -3  -8  -6    0.87    0.29 
  -3   8  -6    1.06    0.28 
  -3   8  -6    1.37    0.28 
  -6  -9   6    1.25    0.36 
  -6   9   6    1.91    0.34 
   6   9  -6    0.95    0.25 
  -5  -9   6    4.14    0.50 
  -5   9   6    5.32    0.45 
   5   9  -6    4.97    0.40 
  -4   9   6   17.95    0.77 
   4   9  -6   18.65    0.74 
  -3   9   6    2.25    0.32 
   3   9  -6    1.74    0.26 
   2   9  -6    1.65    0.26 
  -2   9   6    2.01    0.30 
   1  -9  -6    0.05    0.20 
   1   9  -6    0.10    0.17 
  -1   9   6    0.21    0.19 
   0  -9  -6    6.66    0.51 
   0   9   6    6.66    0.44 
   0   9  -6    6.70    0.45 
   0   9  -6    6.63    0.40 
  -1  -9  -6    0.23    0.23 
  -1   9  -6   -0.18    0.16 
   1   9   6    0.20    0.17 
  -1   9  -6    0.09    0.15 
  -2  -9  -6    0.14    0.22 
  -2   9  -6    0.26    0.18 
  -2   9  -6    0.46    0.23 
   2   9   6    0.26    0.19 
   4  10  -6    0.53    0.20 
  -4  10   6    0.77    0.25 
   3  10  -6    2.08    0.31 
  -3  10   6    1.23    0.27 
  -2  10   6    2.29    0.32 
   2  10  -6    2.70    0.33 
   1 -10  -6   20.61    0.91 
   1  10  -6   22.40    0.83 
  -1  10   6   20.74    0.84 
   0 -10  -6    8.41    0.59 
   0  10  -6    8.01    0.51 
   0  10   6    8.55    0.52 
  -1 -10  -6    0.87    0.29 
  -1  10  -6    0.37    0.18 
  -1  10  -6    0.77    0.25 
   1  10   6    0.34    0.20 
  -2  11   6   -0.03    0.18 
   2  11  -6    0.18    0.19 
  -8   0   7    8.45    0.72 
  -7   0   7    0.21    0.27 
   6   0  -7    3.98    0.31 
  -6   0   7    3.03    0.40 
   5   0  -7    0.14    0.12 
  -5   0   7    0.22    0.11 
   5   0  -7    0.17    0.13 
  -5   0   7   -0.08    0.19 
   4   0  -7    2.17    0.23 
  -4   0   7    2.16    0.20 
  -4   0   7    2.28    0.32 
   4   0  -7    2.69    0.25 
   3   0  -7    3.46    0.26 
   3   0  -7    3.80    0.29 
   2   0  -7   34.13    0.94 
   2   0  -7   33.75    1.00 
   1   0  -7    5.94    0.31 
   1   0  -7    5.79    0.38 
   0   0  -7   21.67    0.68 
   0   0  -7   21.42    0.78 
  -1   0  -7   49.60    1.29 
  -1   0  -7   49.12    1.44 
  -2   0  -7   13.73    0.54 
  -2   0  -7   13.92    0.67 
  -3   0  -7    2.53    0.28 
  -3   0  -7    3.73    0.43 
  -4   0  -7    4.84    0.48 
  -4   0  -7    4.43    0.35 
  -8  -1   7    0.26    0.31 
  -8   1   7    0.08    0.29 
  -7  -1   7   14.62    0.83 
  -7   1   7   14.58    0.82 
  -6  -1   7    0.02    0.22 
  -6   1   7    0.38    0.24 
   6   1  -7    0.49    0.17 
  -6   1   7    0.37    0.13 
   5  -1  -7    7.64    0.38 
   5  -1  -7    7.49    0.39 
  -5  -1   7    7.92    0.55 
  -5  -1   7    7.47    0.32 
  -5   1   7    7.07    0.34 
   5   1  -7    7.15    0.39 
   5   1  -7    7.75    0.36 
  -5   1   7    7.00    0.49 
   4  -1  -7    0.21    0.12 
  -4  -1   7    0.51    0.20 
   4  -1  -7    0.30    0.15 
  -4  -1   7    0.49    0.12 
   4   1  -7    0.26    0.12 
  -4   1   7    0.51    0.19 
  -4   1   7    0.50    0.13 
   4   1  -7    0.53    0.14 
   3  -1  -7   21.63    0.67 
   3  -1  -7   21.07    0.73 
   3   1  -7   21.28    0.70 
   3   1  -7   20.95    0.69 
   2  -1  -7    0.25    0.11 
   2  -1  -7    0.02    0.13 
   2   1  -7    0.26    0.12 
   2   1  -7    0.09    0.12 
   1  -1  -7    6.18    0.31 
   1  -1  -7    5.78    0.39 
   1   1  -7    5.83    0.36 
   1   1  -7    6.38    0.34 
   0  -1  -7   55.17    1.56 
   0  -1  -7   58.97    1.42 
   0   1  -7   54.06    1.53 
   0   1  -7   57.24    1.45 
  -1  -1  -7   20.57    0.80 
  -1  -1  -7   19.89    0.64 
  -1   1  -7   20.07    0.77 
  -1   1  -7   19.97    0.68 
  -2  -1  -7    6.98    0.50 
  -2  -1  -7    6.60    0.36 
  -2   1  -7    7.99    0.50 
  -2   1  -7    6.63    0.38 
  -3  -1  -7    0.16    0.21 
  -3  -1  -7   -0.09    0.11 
  -3   1  -7    0.35    0.20 
  -3   1  -7   -0.18    0.14 
  -4  -1  -7    2.84    0.40 
  -4   1  -7    1.90    0.34 
  -4   1  -7    2.72    0.32 
  -8  -2   7    5.36    0.63 
  -8   2   7    5.17    0.57 
  -7  -2   7    0.52    0.30 
   7   2  -7    0.43    0.18 
  -7   2   7    0.45    0.29 
  -6  -2   7   22.74    0.99 
  -6   2   7   22.69    0.73 
  -6   2   7   23.29    0.95 
   6   2  -7   22.80    0.80 
  -5  -2   7   -0.06    0.21 
   5  -2  -7    0.35    0.13 
   5   2  -7    0.32    0.15 
  -5   2   7    0.22    0.12 
  -5   2   7   -0.07    0.15 
   4  -2  -7   16.55    0.57 
   4  -2  -7   17.78    0.66 
  -4   2   7   16.54    0.69 
   4   2  -7   16.44    0.56 
  -4   2   7   16.94    0.59 
   4   2  -7   17.16    0.63 
   3  -2  -7    9.69    0.39 
   3  -2  -7    9.87    0.49 
  -3   2   7    9.30    0.49 
   3   2  -7    9.78    0.42 
  -3   2   7    8.70    0.41 
   3   2  -7    9.49    0.44 
   2  -2  -7    0.99    0.15 
   2  -2  -7    1.26    0.22 
   2   2  -7    0.78    0.16 
   2   2  -7    1.16    0.19 
   1  -2  -7   11.94    0.42 
   1  -2  -7   11.40    0.55 
   1   2  -7   11.70    0.51 
   1   2  -7   11.53    0.48 
   0  -2  -7    6.93    0.45 
   0  -2  -7    6.46    0.31 
   0   2  -7    6.06    0.39 
   0   2  -7    6.25    0.36 
  -1  -2  -7   13.22    0.63 
  -1  -2  -7   12.85    0.47 
  -1   2  -7   12.92    0.54 
  -1   2  -7   13.64    0.61 
  -2  -2  -7   13.49    0.50 
  -2  -2  -7   12.65    0.65 
  -2   2  -7   13.76    0.57 
  -2   2  -7   12.82    0.63 
  -3  -2  -7    9.54    0.59 
  -3   2  -7    9.18    0.49 
  -3   2  -7   10.19    0.59 
  -4  -2  -7   -0.03    0.21 
  -4   2  -7    0.07    0.16 
  -4   2  -7   -0.04    0.17 
  -8  -3   7    3.28    0.53 
  -8   3   7    2.30    0.43 
  -7  -3   7   19.00    0.96 
   7   3  -7   19.79    0.75 
  -7   3   7   18.60    0.88 
  -7   3   7   18.19    0.67 
  -6  -3   7    1.40    0.33 
  -6   3   7    1.29    0.30 
   6   3  -7    1.53    0.25 
  -6   3   7    1.85    0.23 
  -5  -3   7   68.50    1.95 
   5   3  -7   68.00    1.75 
  -5   3   7   66.62    1.86 
  -5   3   7   65.18    1.69 
   4  -3  -7   37.22    1.12 
   4  -3  -7   36.67    0.99 
   4   3  -7   36.55    1.16 
   4   3  -7   35.98    1.07 
  -4   3   7   37.51    1.15 
  -4   3   7   37.11    1.05 
   3  -3  -7    1.24    0.22 
   3  -3  -7    1.01    0.15 
   3   3  -7    1.05    0.17 
  -3   3   7    0.90    0.18 
  -3   3   7    1.70    0.26 
   3   3  -7    1.25    0.22 
   2  -3  -7    3.67    0.31 
   2  -3  -7    3.01    0.21 
   2   3  -7    3.23    0.28 
   2   3  -7    3.18    0.27 
  -2   3   7    3.36    0.29 
   1  -3  -7    5.44    0.26 
   1  -3  -7    5.70    0.40 
   1   3  -7    4.84    0.33 
   1   3  -7    4.91    0.34 
   0  -3  -7   32.15    0.85 
   0  -3  -7   32.28    1.07 
   0   3  -7   32.56    1.01 
   0   3  -7   32.39    0.97 
  -1  -3  -7    1.36    0.29 
  -1   3  -7    1.22    0.23 
  -1   3  -7    1.50    0.23 
  -2  -3  -7    1.24    0.26 
  -2   3  -7    0.93    0.24 
  -2   3  -7    1.12    0.22 
  -3  -3  -7    1.06    0.29 
  -3   3  -7    1.49    0.29 
  -3   3  -7    1.06    0.24 
  -4  -3  -7    1.87    0.35 
  -4   3  -7    1.92    0.34 
  -4   3  -7    1.57    0.28 
  -8  -4   7    4.70    0.60 
  -8   4   7    3.98    0.52 
  -7  -4   7   -0.31    0.21 
  -7   4   7    0.13    0.20 
   7   4  -7    0.11    0.16 
  -7   4   7    0.18    0.16 
  -6  -4   7   20.51    0.96 
  -6   4   7   21.57    0.75 
  -6   4   7   21.53    0.89 
   6   4  -7   22.03    0.79 
  -5  -4   7    7.15    0.54 
  -5   4   7    8.10    0.43 
  -5   4   7    8.25    0.51 
   5   4  -7    7.59    0.43 
   4  -4  -7   -0.04    0.15 
  -4   4   7    0.29    0.17 
  -4   4   7    0.14    0.14 
   4   4  -7    0.10    0.13 
   3  -4  -7    9.96    0.37 
   3  -4  -7    9.54    0.51 
   3   4  -7   10.13    0.48 
  -3   4   7    9.45    0.45 
   3   4  -7    8.83    0.39 
  -3   4   7    9.91    0.47 
   2  -4  -7   25.86    0.91 
   2  -4  -7   26.57    0.71 
  -2   4   7   26.14    0.82 
   2   4  -7   25.43    0.84 
  -2   4   7   26.91    0.85 
   2   4  -7   25.06    0.79 
   1  -4  -7   52.65    1.51 
   1   4  -7   53.57    1.41 
   1   4  -7   52.93    1.43 
   0  -4  -7    3.03    0.34 
   0   4  -7    2.92    0.29 
   0   4  -7    2.80    0.29 
  -1  -4  -7    5.81    0.44 
  -1   4  -7    5.42    0.38 
  -1   4  -7    5.85    0.40 
  -2  -4  -7    2.06    0.33 
  -2   4  -7    3.10    0.36 
  -2   4  -7    2.94    0.30 
  -3  -4  -7    5.48    0.50 
  -3   4  -7    5.40    0.42 
  -3   4  -7    6.06    0.46 
  -7  -5   7    3.01    0.49 
  -7   5   7    4.38    0.37 
  -7   5   7    4.14    0.47 
   7   5  -7    4.35    0.38 
  -6  -5   7    1.34    0.34 
  -6   5   7    1.32    0.28 
  -6   5   7    1.69    0.26 
   6   5  -7    1.11    0.24 
  -5  -5   7   17.24    0.85 
  -5   5   7   17.45    0.72 
  -5   5   7   18.39    0.70 
   5   5  -7   17.52    0.69 
   4  -5  -7    0.21    0.18 
  -4   5   7    0.51    0.19 
  -4   5   7    0.32    0.16 
   4   5  -7    0.27    0.18 
   3  -5  -7    7.11    0.46 
  -3   5   7    6.09    0.39 
   3   5  -7    6.78    0.40 
   2  -5  -7   10.74    0.56 
  -2   5   7   10.54    0.50 
   2   5  -7   10.59    0.50 
   2   5  -7    9.92    0.43 
   1  -5  -7    4.20    0.37 
   1   5  -7    3.67    0.30 
   1   5  -7    4.30    0.34 
   0  -5  -7    8.38    0.52 
   0   5  -7    8.15    0.44 
   0   5  -7    8.10    0.45 
  -1  -5  -7    3.57    0.42 
  -1   5  -7    3.32    0.32 
  -1   5  -7    3.21    0.34 
  -2  -5  -7    2.41    0.37 
  -2   5  -7    2.27    0.31 
  -2   5  -7    2.70    0.34 
  -3  -5  -7    5.61    0.52 
  -3   5  -7    6.99    0.50 
  -3   5  -7    7.52    0.49 
  -7  -6   7    0.64    0.34 
   7   6  -7    0.11    0.19 
  -7   6   7   -0.03    0.17 
  -7   6   7    0.26    0.21 
  -6  -6   7    4.88    0.57 
  -6   6   7    4.56    0.39 
   6   6  -7    4.65    0.40 
   5   6  -7    2.15    0.28 
  -5   6   7    1.63    0.26 
   4   6  -7    0.08    0.15 
  -4   6   7    0.33    0.18 
   3  -6  -7   19.98    0.81 
   3   6  -7   20.79    0.75 
  -3   6   7   20.34    0.75 
   2  -6  -7   33.56    1.11 
   2   6  -7   31.46    0.92 
   2   6  -7   30.49    1.00 
  -2   6   7   32.36    1.02 
   1  -6  -7   18.80    0.81 
  -1   6   7   19.18    0.74 
   1   6  -7   19.36    0.72 
   1   6  -7   19.97    0.69 
   0  -6  -7   10.49    0.61 
   0   6  -7   10.45    0.53 
   0   6  -7   10.57    0.50 
  -1  -6  -7    9.17    0.58 
  -1   6  -7    9.07    0.52 
  -1   6  -7    8.81    0.49 
  -2  -6  -7    3.64    0.43 
  -2   6  -7    4.46    0.41 
  -2   6  -7    4.17    0.39 
  -3  -6  -7    7.40    0.58 
  -3   6  -7    7.83    0.53 
  -3   6  -7    6.99    0.50 
  -6  -7   7    1.33    0.37 
   6   7  -7    1.22    0.25 
  -6   7   7    1.35    0.26 
  -5   7   7   19.19    0.77 
   5   7  -7   18.64    0.76 
   4   7  -7    6.42    0.42 
  -4   7   7    7.37    0.46 
   3  -7  -7    0.11    0.20 
   3   7  -7    0.40    0.18 
  -3   7   7    0.25    0.18 
   2  -7  -7    0.57    0.22 
   2   7  -7    0.21    0.17 
  -2   7   7    0.37    0.18 
   1  -7  -7   16.32    0.74 
   1   7  -7   14.16    0.63 
  -1   7   7   15.05    0.64 
   1   7  -7   14.80    0.58 
   0  -7  -7   12.15    0.67 
   0   7  -7   12.96    0.61 
   0   7  -7   12.75    0.56 
   0   7   7   11.73    0.59 
  -1  -7  -7    4.10    0.46 
  -1   7  -7    3.73    0.39 
  -1   7  -7    4.51    0.37 
  -2  -7  -7    3.76    0.47 
  -2   7  -7    4.27    0.41 
  -2   7  -7    4.17    0.39 
  -6  -8   7    5.57    0.61 
  -6   8   7    4.68    0.45 
   6   8  -7    6.17    0.46 
  -5   8   7   -0.08    0.18 
   5   8  -7    0.05    0.16 
   4   8  -7    9.22    0.52 
  -4   8   7    9.01    0.55 
  -3   8   7    5.93    0.44 
   3   8  -7    6.11    0.43 
   2  -8  -7    0.15    0.22 
  -2   8   7    0.37    0.20 
   2   8  -7    0.41    0.19 
   1  -8  -7    2.77    0.38 
  -1   8   7    2.50    0.32 
   1   8  -7    3.10    0.34 
   0  -8  -7    2.02    0.34 
   0   8  -7    2.17    0.32 
   0   8   7    1.27    0.26 
   0   8  -7    1.85    0.27 
  -1  -8  -7    1.89    0.35 
  -1   8  -7    1.37    0.28 
   1   8   7    0.94    0.23 
  -1   8  -7    1.20    0.23 
   5   9  -7    4.68    0.41 
  -5   9   7    3.87    0.43 
  -4   9   7    1.55    0.29 
   4   9  -7    1.88    0.31 
  -3   9   7    1.65    0.30 
   3   9  -7    1.68    0.28 
   2  -9  -7    1.74    0.34 
   2   9  -7    2.13    0.31 
  -2   9   7    2.40    0.34 
   1  -9  -7    1.82    0.36 
  -1   9   7    1.74    0.29 
   1   9  -7    1.80    0.30 
   0  -9  -7    8.23    0.60 
   0   9  -7   10.49    0.57 
   0   9   7    8.06    0.52 
   0   9  -7   10.01    0.53 
  -2  10   7    2.94    0.38 
   2  10  -7    3.34    0.39 
  -8   0   8    2.90    0.51 
  -7   0   8    9.70    0.70 
  -6   0   8   16.93    0.83 
   6   0  -8   15.63    0.63 
  -5   0   8    2.50    0.23 
   5   0  -8    2.53    0.27 
  -5   0   8    2.38    0.36 
   5   0  -8    2.53    0.27 
  -4   0   8   11.15    0.60 
   4   0  -8   12.71    0.54 
  -4   0   8   11.32    0.46 
   4   0  -8   11.25    0.49 
   3   0  -8    2.17    0.24 
   3   0  -8    2.31    0.27 
   2   0  -8   32.88    1.04 
   2   0  -8   33.09    0.96 
   1   0  -8   15.88    0.68 
   1   0  -8   17.43    0.61 
   0   0  -8   28.79    0.88 
   0   0  -8   28.82    1.00 
  -1   0  -8    4.57    0.43 
  -1   0  -8    4.11    0.31 
  -2   0  -8    3.65    0.32 
  -2   0  -8    4.30    0.45 
  -3   0  -8    3.68    0.34 
  -3   0  -8    3.48    0.44 
  -8  -1   8    1.93    0.43 
  -8   1   8    2.44    0.48 
  -7  -1   8    2.50    0.44 
   7   1  -8    1.85    0.27 
  -7   1   8    2.11    0.41 
   6  -1  -8   18.92    0.70 
  -6  -1   8   21.79    0.97 
   6   1  -8   19.30    0.73 
  -6   1   8   19.18    0.89 
   5  -1  -8    0.28    0.14 
  -5  -1   8    0.29    0.24 
   5  -1  -8    0.21    0.15 
  -5   1   8    0.29    0.21 
   5   1  -8    0.08    0.13 
  -5   1   8    0.16    0.12 
   4  -1  -8    3.33    0.31 
   4  -1  -8    3.64    0.28 
  -4   1   8    3.65    0.26 
  -4   1   8    3.40    0.39 
   4   1  -8    3.86    0.30 
   4   1  -8    3.34    0.29 
   3  -1  -8    8.46    0.39 
   3  -1  -8    7.90    0.46 
   3   1  -8    8.41    0.44 
   3   1  -8    8.54    0.42 
   2  -1  -8    0.14    0.12 
   2  -1  -8    0.26    0.17 
   2   1  -8    0.15    0.13 
   2   1  -8   -0.05    0.14 
   1  -1  -8   11.90    0.59 
   1  -1  -8   11.77    0.47 
   1   1  -8   11.91    0.50 
   1   1  -8   12.00    0.57 
   0  -1  -8    5.27    0.32 
   0  -1  -8    6.55    0.46 
   0   1  -8    6.12    0.44 
   0   1  -8    5.79    0.37 
  -1  -1  -8   22.19    0.73 
  -1  -1  -8   23.52    0.92 
  -1   1  -8   23.86    0.91 
  -1   1  -8   21.57    0.76 
  -2  -1  -8    3.89    0.44 
  -2  -1  -8    2.86    0.43 
  -2   1  -8    3.26    0.31 
  -2   1  -8    3.90    0.45 
  -3  -1  -8    2.59    0.41 
  -3   1  -8    2.61    0.40 
  -3   1  -8    3.01    0.33 
  -8  -2   8    1.15    0.37 
  -8   2   8    1.84    0.43 
  -7  -2   8   19.19    0.96 
   7   2  -8   19.45    0.77 
  -7   2   8   20.06    0.97 
  -6  -2   8   12.39    0.75 
   6   2  -8   11.28    0.55 
  -6   2   8   11.62    0.50 
  -6   2   8   11.73    0.68 
  -5  -2   8   11.90    0.69 
   5  -2  -8   11.77    0.55 
   5  -2  -8   10.46    0.47 
  -5   2   8   10.90    0.48 
  -5   2   8   10.32    0.60 
   5   2  -8   11.01    0.52 
   4  -2  -8    6.48    0.34 
   4  -2  -8    5.78    0.40 
   4   2  -8    5.60    0.34 
   4   2  -8    5.94    0.38 
  -4   2   8    4.79    0.32 
  -4   2   8    5.79    0.44 
   3  -2  -8    0.28    0.13 
   3  -2  -8    0.22    0.18 
  -3   2   8    0.51    0.19 
  -3   2   8    0.41    0.16 
   3   2  -8    0.17    0.14 
   3   2  -8    0.26    0.14 
   2  -2  -8   32.40    1.06 
   2  -2  -8   33.42    0.92 
   2   2  -8   32.66    1.01 
   2   2  -8   32.79    0.99 
   1  -2  -8    4.00    0.27 
   1  -2  -8    4.16    0.39 
   1   2  -8    4.10    0.32 
   1   2  -8    3.72    0.33 
   0  -2  -8    0.66    0.15 
   0  -2  -8    0.96    0.26 
   0   2  -8    0.71    0.20 
   0   2  -8    0.37    0.20 
  -1  -2  -8    1.21    0.28 
  -1   2  -8    1.47    0.28 
  -1   2  -8    1.30    0.23 
  -2  -2  -8    7.33    0.57 
  -2   2  -8    8.64    0.47 
  -2   2  -8    7.74    0.54 
  -3  -2  -8    3.59    0.44 
  -3   2  -8    3.88    0.45 
  -3   2  -8    3.35    0.36 
  -7  -3   8    0.54    0.33 
   7   3  -8    0.74    0.22 
  -7   3   8    0.49    0.28 
  -6  -3   8   42.55    1.49 
   6   3  -8   38.97    1.23 
  -6   3   8   42.00    1.40 
  -6   3   8   41.48    1.18 
  -5  -3   8   21.04    0.94 
   5  -3  -8   22.64    0.82 
  -5   3   8   21.27    0.87 
  -5   3   8   20.06    0.73 
   5   3  -8   20.91    0.78 
   4  -3  -8    2.06    0.22 
   4  -3  -8    2.17    0.31 
  -4   3   8    2.27    0.27 
   4   3  -8    2.14    0.28 
  -4   3   8    2.03    0.30 
   3  -3  -8    5.28    0.30 
   3  -3  -8    4.13    0.38 
   3   3  -8    5.21    0.37 
   3   3  -8    4.65    0.32 
  -3   3   8    4.51    0.34 
  -3   3   8    4.22    0.38 
   2  -3  -8    0.20    0.10 
   2  -3  -8    0.14    0.18 
   2   3  -8   -0.18    0.14 
   2   3  -8    0.25    0.15 
   1  -3  -8   10.25    0.56 
   1   3  -8   11.24    0.51 
   1   3  -8   10.65    0.52 
   0  -3  -8   -0.01    0.18 
   0   3  -8   -0.03    0.14 
   0   3  -8    0.07    0.14 
  -1  -3  -8   14.76    0.74 
  -1   3  -8   16.88    0.72 
  -1   3  -8   14.72    0.63 
  -2  -3  -8    4.81    0.46 
  -2   3  -8    5.52    0.41 
  -2   3  -8    4.91    0.45 
  -3  -3  -8    0.03    0.21 
  -3   3  -8    0.08    0.20 
  -3   3  -8    0.02    0.15 
  -7  -4   8   22.00    1.08 
  -7   4   8   20.10    0.94 
  -7   4   8   22.16    0.79 
   7   4  -8   21.49    0.83 
  -6  -4   8    5.57    0.58 
  -6   4   8    6.21    0.41 
   6   4  -8    6.83    0.46 
  -6   4   8    6.29    0.52 
  -5   4   8    6.24    0.39 
  -5   4   8    6.72    0.48 
   5   4  -8    5.90    0.42 
   4  -4  -8   19.99    0.79 
  -4   4   8   19.30    0.72 
   4   4  -8   18.23    0.72 
  -4   4   8   19.48    1.01 
   3  -4  -8    0.97    0.24 
   3   4  -8    1.24    0.23 
  -3   4   8    0.93    0.22 
   2  -4  -8    4.76    0.40 
  -2   4   8    4.15    0.34 
   2   4  -8    5.18    0.35 
   2   4  -8    4.61    0.36 
   1  -4  -8    1.04    0.26 
   1   4  -8    0.86    0.20 
   1   4  -8    0.96    0.21 
   0  -4  -8    8.00    0.55 
   0   4  -8    7.77    0.47 
   0   4  -8    8.00    0.46 
  -1  -4  -8   -0.01    0.19 
  -1   4  -8   -0.02    0.15 
  -1   4  -8    0.21    0.17 
  -2  -4  -8    0.75    0.29 
  -2   4  -8    1.65    0.29 
  -2   4  -8    1.42    0.28 
  -7  -5   8    3.58    0.56 
  -7   5   8    4.37    0.55 
  -7   5   8    4.42    0.39 
   7   5  -8    3.79    0.39 
  -6  -5   8    6.72    0.60 
  -6   5   8    6.49    0.44 
   6   5  -8    6.71    0.46 
  -5   5   8   -0.02    0.16 
   5   5  -8   -0.20    0.14 
   4  -5  -8    0.08    0.18 
   4   5  -8   -0.05    0.13 
  -4   5   8   -0.14    0.13 
   3  -5  -8   -0.01    0.18 
  -3   5   8    0.08    0.16 
   3   5  -8   -0.05    0.13 
   2  -5  -8   22.17    0.88 
   2   5  -8   21.17    0.74 
  -2   5   8   22.55    0.81 
   2   5  -8   21.35    0.80 
   1  -5  -8   39.76    1.30 
   1   5  -8   38.71    1.16 
   1   5  -8   39.50    1.20 
   0  -5  -8    2.49    0.37 
   0   5  -8    2.46    0.31 
   0   5  -8    3.02    0.34 
  -1  -5  -8    6.06    0.52 
  -1   5  -8    5.42    0.43 
  -1   5  -8    6.72    0.46 
  -2  -5  -8    1.86    0.37 
  -2   5  -8    2.14    0.33 
  -2   5  -8    1.03    0.28 
  -6  -6   8    1.07    0.34 
   6   6  -8    1.57    0.28 
  -6   6   8    1.20    0.26 
  -5   6   8    4.51    0.40 
   5   6  -8    4.50    0.40 
   4  -6  -8    3.83    0.42 
   4   6  -8    5.22    0.40 
  -4   6   8    4.46    0.39 
   3  -6  -8    0.18    0.20 
   3   6  -8    0.08    0.15 
  -3   6   8   -0.19    0.14 
   2  -6  -8    0.22    0.21 
  -2   6   8    0.54    0.20 
   2   6  -8    0.95    0.22 
   1  -6  -8    3.41    0.43 
   1   6  -8    2.87    0.34 
   1   6  -8    3.21    0.32 
  -1   6   8    3.00    0.36 
   0  -6  -8   14.02    0.75 
   0   6  -8   14.10    0.66 
   0   6  -8   14.53    0.64 
  -1  -6  -8   -0.05    0.22 
  -1   6  -8   -0.02    0.17 
  -1   6  -8   -0.04    0.18 
  -6   7   8   16.09    0.74 
   6   7  -8   17.72    0.77 
  -5   7   8    4.55    0.42 
   5   7  -8    3.03    0.36 
  -4   7   8   -0.10    0.17 
   4   7  -8    0.04    0.17 
   3  -7  -8    1.10    0.29 
  -3   7   8    1.26    0.26 
   3   7  -8    1.24    0.26 
   2  -7  -8    1.33    0.31 
   2   7  -8    1.17    0.24 
  -2   7   8    1.24    0.27 
   1  -7  -8    2.99    0.41 
   1   7  -8    3.48    0.39 
  -1   7   8    2.82    0.35 
   0  -7  -8    2.69    0.41 
   0   7  -8    2.43    0.34 
   0   7   8    2.21    0.32 
   0   7  -8    2.19    0.30 
  -1  -7  -8   15.39    0.82 
  -1   7  -8   14.94    0.72 
  -1   7  -8   14.63    0.68 
   4   8  -8    2.58    0.35 
  -4   8   8    2.21    0.32 
   3  -8  -8    0.27    0.23 
  -3   8   8    0.56    0.22 
   3   8  -8    0.27    0.18 
   2  -8  -8    9.98    0.64 
   2   8  -8    9.86    0.57 
  -2   8   8    9.22    0.56 
   1  -8  -8    1.77    0.33 
  -1   8   8    1.63    0.28 
   1   8  -8    1.82    0.31 
   7   0  -9    8.80    0.51 
  -7   0   9    8.97    0.71 
  -6   0   9    1.01    0.32 
   6   0  -9    1.21    0.22 
   5   0  -9   12.91    0.57 
  -5   0   9   12.49    0.71 
  -4   0   9    1.57    0.31 
  -4   0   9    1.51    0.22 
   4   0  -9    1.21    0.25 
   4   0  -9    1.59    0.24 
   3   0  -9    5.66    0.41 
   3   0  -9    6.37    0.38 
   2   0  -9    0.17    0.15 
   2   0  -9    0.39    0.19 
   1   0  -9    9.59    0.57 
   1   0  -9   10.18    0.47 
   0   0  -9    0.55    0.17 
   0   0  -9    0.43    0.23 
  -1   0  -9   10.20    0.50 
  -1   0  -9    9.89    0.61 
  -7  -1   9    0.54    0.30 
  -7   1   9    0.02    0.26 
   7   1  -9    0.39    0.18 
   6  -1  -9   21.03    0.75 
  -6  -1   9   19.44    0.97 
  -6   1   9   20.32    0.94 
   6   1  -9   20.18    0.77 
   5  -1  -9    0.76    0.19 
  -5  -1   9    0.44    0.28 
   5  -1  -9    0.79    0.23 
  -5   1   9    0.77    0.18 
   5   1  -9    0.87    0.21 
  -5   1   9    0.66    0.25 
   4  -1  -9    2.38    0.26 
   4  -1  -9    2.40    0.31 
  -4   1   9    2.74    0.38 
  -4   1   9    2.76    0.27 
   4   1  -9    2.66    0.31 
   4   1  -9    2.31    0.28 
   3  -1  -9    1.45    0.22 
   3  -1  -9    1.73    0.28 
   3   1  -9    1.75    0.27 
   3   1  -9    1.48    0.23 
   2  -1  -9   16.60    0.73 
   2  -1  -9   15.95    0.59 
   2   1  -9   15.57    0.62 
   2   1  -9   15.52    0.69 
   1  -1  -9    1.39    0.21 
   1  -1  -9    1.02    0.26 
   1   1  -9    1.87    0.31 
   1   1  -9    1.29    0.22 
   0  -1  -9    2.54    0.40 
   0  -1  -9    2.74    0.39 
   0   1  -9    2.38    0.35 
   0   1  -9    2.69    0.30 
  -1  -1  -9    7.75    0.57 
  -1   1  -9    6.31    0.52 
  -1   1  -9    7.68    0.45 
  -7  -2   9   14.13    0.87 
  -7   2   9   14.14    0.83 
   7   2  -9   13.88    0.66 
  -6  -2   9    1.07    0.36 
   6   2  -9    0.88    0.23 
  -6   2   9    0.93    0.30 
   5  -2  -9   15.30    0.69 
   5  -2  -9   15.04    0.59 
  -5  -2   9   15.30    0.82 
   5   2  -9   14.79    0.65 
  -5   2   9   15.50    0.61 
  -5   2   9   15.56    0.76 
   4  -2  -9    0.34    0.18 
   4  -2  -9    0.48    0.15 
   4   2  -9    0.51    0.18 
  -4   2   9    0.81    0.25 
  -4   2   9    0.45    0.16 
   3  -2  -9   20.06    0.82 
   3  -2  -9   19.95    0.68 
   3   2  -9   20.69    0.76 
   3   2  -9   19.32    0.74 
  -3   2   9   19.10    0.81 
   2  -2  -9   11.50    0.62 
   2  -2  -9   12.76    0.53 
   2   2  -9   11.93    0.58 
   2   2  -9   11.84    0.54 
   1  -2  -9    1.00    0.26 
   1   2  -9    0.62    0.21 
   1   2  -9    0.90    0.22 
   0  -2  -9   -0.11    0.18 
   0   2  -9    0.04    0.17 
   0   2  -9   -0.05    0.15 
  -1  -2  -9    1.66    0.36 
  -1   2  -9    1.75    0.34 
  -1   2  -9    1.08    0.23 
  -7  -3   9    1.06    0.37 
   7   3  -9    1.40    0.28 
  -7   3   9    0.93    0.33 
  -6  -3   9   36.42    1.42 
  -6   3   9   38.01    1.35 
  -6   3   9   38.31    1.15 
   6   3  -9   37.51    1.21 
   5  -3  -9    0.89    0.19 
   5  -3  -9    1.40    0.27 
  -5  -3   9    0.66    0.32 
  -5   3   9    0.74    0.19 
   5   3  -9    0.78    0.23 
  -5   3   9    1.03    0.27 
   4  -3  -9   25.95    0.96 
   4  -3  -9   24.15    0.92 
  -4   3   9   23.32    0.83 
   4   3  -9   24.79    0.87 
   3  -3  -9   36.92    1.23 
   3   3  -9   37.53    1.20 
   3   3  -9   37.94    1.16 
  -3   3   9   37.31    1.15 
   2  -3  -9    0.26    0.21 
   2   3  -9    0.15    0.18 
   2   3  -9    0.12    0.17 
   1  -3  -9    1.52    0.31 
   1   3  -9    1.44    0.25 
   1   3  -9    1.88    0.30 
   0  -3  -9    1.80    0.35 
   0   3  -9    1.73    0.31 
   0   3  -9    1.81    0.28 
  -1  -3  -9    4.55    0.50 
  -1   3  -9    5.09    0.48 
  -1   3  -9    4.52    0.38 
  -6  -4   9   -0.10    0.26 
   6   4  -9   -0.05    0.15 
  -6   4   9    0.52    0.20 
   5  -4  -9    9.46    0.57 
   5   4  -9    9.20    0.53 
  -5   4   9    9.38    0.51 
   4  -4  -9    0.03    0.19 
   4   4  -9   -0.01    0.15 
  -4   4   9    0.17    0.16 
   3  -4  -9    6.46    0.50 
   3   4  -9    6.15    0.44 
  -3   4   9    6.39    0.43 
   2  -4  -9    0.40    0.23 
   2   4  -9    0.35    0.17 
   2   4  -9    0.70    0.22 
  -2   4   9    0.29    0.18 
   1  -4  -9   10.87    0.64 
   1   4  -9   10.03    0.55 
   1   4  -9   10.66    0.55 
   0  -4  -9    6.42    0.54 
   0   4  -9    6.01    0.44 
   0   4  -9    4.99    0.44 
  -1  -4  -9    0.13    0.24 
  -1   4  -9   -0.02    0.17 
  -1   4  -9    0.03    0.20 
  -6  -5   9   19.88    1.05 
   6   5  -9   20.89    0.85 
  -6   5   9   20.94    0.82 
   5   5  -9    0.35    0.21 
  -5   5   9    0.28    0.18 
   4  -5  -9    1.72    0.32 
   4   5  -9    2.14    0.31 
  -4   5   9    1.85    0.28 
   3  -5  -9    3.01    0.40 
  -3   5   9    3.40    0.36 
   3   5  -9    3.00    0.35 
   2  -5  -9    3.23    0.42 
   2   5  -9    3.59    0.37 
  -2   5   9    4.10    0.39 
   1  -5  -9    0.32    0.24 
   1   5  -9    0.01    0.17 
   1   5  -9    0.29    0.19 
   0  -5  -9    5.54    0.53 
   0   5  -9    5.72    0.44 
   0   5  -9    5.84    0.45 
  -5   6   9    3.03    0.37 
   5   6  -9    3.57    0.40 
   4  -6  -9    0.60    0.26 
  -4   6   9    1.02    0.25 
   4   6  -9    0.79    0.24 
   3  -6  -9    3.87    0.45 
   3   6  -9    3.78    0.38 
  -3   6   9    4.78    0.42 
   2  -6  -9    0.56    0.26 
   2   6  -9    0.39    0.22 
  -2   6   9    0.53    0.22 
   1  -6  -9   11.40    0.70 
   1   6  -9   10.62    0.68 
   1   6  -9   11.30    0.61 
  -1   6   9   10.77    0.60 
   3  -7  -9    5.47    0.52 
   3   7  -9    5.90    0.46 
  -3   7   9    5.21    0.45 
   6   0 -10    0.90    0.22 
  -5   0  10    4.15    0.51 
   5   0 -10    3.86    0.36 
  -4   0  10    0.42    0.17 
  -4   0  10    0.45    0.26 
   4   0 -10    0.97    0.25 
   4   0 -10    1.06    0.21 
   3   0 -10    3.78    0.34 
   3   0 -10    3.14    0.38 
   2   0 -10    7.03    0.51 
   2   0 -10    6.23    0.42 
   1   0 -10    6.65    0.42 
   1   0 -10    8.38    0.57 
  -5  -1  10    4.45    0.54 
   5  -1 -10    3.82    0.35 
   5   1 -10    3.82    0.36 
  -5   1  10    4.11    0.49 
   4  -1 -10   10.89    0.60 
   4  -1 -10   10.35    0.51 
  -4   1  10    9.41    0.63 
  -4   1  10   10.10    0.51 
   4   1 -10   11.18    0.56 
   3  -1 -10    1.70    0.25 
   3  -1 -10    1.76    0.32 
   3   1 -10    2.11    0.29 
   3   1 -10    1.43    0.28 
   2  -1 -10    8.69    0.57 
   2   1 -10    7.68    0.47 
   2   1 -10    8.44    0.55 
   1  -1 -10    6.88    0.54 
   1   1 -10    7.42    0.46 
   1   1 -10    7.63    0.55 
  -5  -2  10    7.12    0.63 
   5  -2 -10    5.68    0.39 
   5  -2 -10    6.14    0.49 
  -5   2  10    6.47    0.42 
  -5   2  10    6.72    0.56 
   5   2 -10    5.63    0.43 
   4  -2 -10    3.40    0.40 
   4   2 -10    3.81    0.37 
  -4   2  10    3.39    0.34 
   3  -2 -10   17.92    0.82 
   3   2 -10   18.02    0.73 
   3   2 -10   17.61    0.81 
   2  -2 -10    0.07    0.21 
   2   2 -10   -0.18    0.15 
   2   2 -10    0.42    0.22 
   1  -2 -10    6.32    0.54 
   1   2 -10    6.66    0.54 
   1   2 -10    6.11    0.43 
   5  -3 -10   16.35    0.77 
  -5  -3  10   15.07    0.88 
   5   3 -10   16.59    0.73 
  -5   3  10   16.97    0.69 
   4  -3 -10   21.34    0.88 
   4   3 -10   19.46    0.80 
  -4   3  10   19.42    0.77 
   3  -3 -10    0.15    0.21 
  -3   3  10    0.02    0.17 
   3   3 -10    0.25    0.19 
   2  -3 -10   14.73    0.78 
   2   3 -10   14.97    0.68 
   2   3 -10   15.92    0.71 
   1  -3 -10    0.72    0.29 
   1   3 -10    0.75    0.25 
   1   3 -10    0.30    0.18 
   4  -4 -10    5.13    0.50 
   4   4 -10    4.29    0.41 
  -4   4  10    4.31    0.41 
   3  -4 -10   22.87    0.97 
   3   4 -10   23.69    0.91 
  -3   4  10   23.44    0.89 
   2  -4 -10    2.50    0.41 
   2   4 -10    2.41    0.33 
  -2   4  10    2.19    0.32 
   0   0   0    0.00    0.00 
;
_shelx_hkl_checksum              97351
loop_
_space_group_symop_operation_xyz
'x, y, z'
'-x, y+1/2, -z'
'-x, -y, -z'
'x, -y-1/2, z'
loop_
_atom_site_label
_atom_site_type_symbol
_atom_site_fract_x
_atom_site_fract_y
_atom_site_fract_z
_atom_site_U_iso_or_equiv
_atom_site_adp_type
_atom_site_occupancy
_atom_site_site_symmetry_order
_atom_site_calc_flag
_atom_site_refinement_flags_posn
_atom_site_refinement_flags_adp
_atom_site_refinement_flags_occupancy
_atom_site_disorder_assembly
_atom_site_disorder_group
V1 V 0.73093(6) 0.7500 0.62573(6) 0.03032(18) Uani 1 2 d S T P . .
O1 O 0.9142(3) 0.7500 0.7714(3) 0.0517(7) Uani 1 2 d S T P A .
O2 O 0.4633(3) 0.7500 0.4318(2) 0.0266(4) Uani 1 2 d S T P A .
H2A H 0.452(3) 0.807(2) 0.378(3) 0.044(7) Uiso 1 1 d . . . . .
N1 N 0.5591(3) 0.7500 0.7571(3) 0.0236(5) Uani 1 2 d S T P A .
C2 C 0.5050(3) 0.64696(18) 0.7959(2) 0.0266(4) Uani 1 1 d . . . . .
C3 C 0.3925(3) 0.6435(2) 0.8844(2) 0.0336(5) Uani 1 1 d . . . . .
H3 H 0.3535 0.5700 0.9131 0.040 Uiso 1 1 calc R U . . .
C4 C 0.3384(4) 0.7500 0.9299(3) 0.0360(7) Uani 1 2 d S T P . .
H4 H 0.2634 0.7500 0.9929 0.043 Uiso 1 2 calc R U P . .
C5 C 0.5807(3) 0.5465(2) 0.7292(2) 0.0350(5) Uani 1 1 d . . . . .
O5 O 0.5553(3) 0.44368(14) 0.75758(19) 0.0518(5) Uani 1 1 d . . . . .
O6 O 0.6723(2) 0.58181(14) 0.64193(17) 0.0381(4) Uani 1 1 d . . . . .
O3 O 0.8067(3) 0.7341(15) 0.4634(3) 0.032(3) Uani 0.5 1 d D U P A -1
C11 C 0.9875(5) 0.7283(6) 0.4582(4) 0.0331(18) Uani 0.5 1 d D U P A -1
H11 H 1.0691 0.6901 0.5581 0.040 Uiso 0.5 1 calc R U P A -1
C12 C 1.0484(6) 0.8552(5) 0.4469(6) 0.0459(12) Uani 0.5 1 d D U P A -1
H12A H 1.0355 0.9023 0.5362 0.055 Uiso 0.5 1 calc R U P A -1
H12B H 1.1766 0.8546 0.4587 0.055 Uiso 0.5 1 calc R U P A -1
C13 C 0.9436(8) 0.9133(6) 0.2913(7) 0.0577(15) Uani 0.5 1 d D U P A -1
H13A H 0.9927 0.9934 0.2869 0.069 Uiso 0.5 1 calc R U P A -1
H13B H 0.8175 0.9223 0.2843 0.069 Uiso 0.5 1 calc R U P A -1
C14 C 0.9513(9) 0.8410(6) 0.1517(7) 0.0670(18) Uani 0.5 1 d D U P A -1
H14A H 1.0767 0.8361 0.1551 0.080 Uiso 0.5 1 calc R U P A -1
H14B H 0.8800 0.8805 0.0504 0.080 Uiso 0.5 1 calc R U P A -1
C15 C 0.8800(8) 0.7178(6) 0.1555(6) 0.060(2) Uani 0.5 1 d D U P A -1
H15A H 0.8912 0.6711 0.0651 0.072 Uiso 0.5 1 calc R U P A -1
H15B H 0.7515 0.7224 0.1422 0.072 Uiso 0.5 1 calc R U P A -1
C16 C 0.9818(8) 0.6549(6) 0.3137(7) 0.0478(13) Uani 0.5 1 d D U P A -1
H16A H 0.9234 0.5780 0.3172 0.057 Uiso 0.5 1 calc R U P A -1
H16B H 1.1055 0.6385 0.3183 0.057 Uiso 0.5 1 calc R U P A -1
loop_
_atom_site_aniso_label
_atom_site_aniso_U_11
_atom_site_aniso_U_22
_atom_site_aniso_U_33
_atom_site_aniso_U_23
_atom_site_aniso_U_13
_atom_site_aniso_U_12
V1 0.0232(3) 0.0469(3) 0.0237(3) 0.000 0.0117(2) 0.000
O1 0.0295(12) 0.098(2) 0.0288(12) 0.000 0.0111(10) 0.000
O2 0.0272(11) 0.0263(12) 0.0268(10) 0.000 0.0100(8) 0.000
N1 0.0247(12) 0.0279(12) 0.0198(11) 0.000 0.0096(9) 0.000
C2 0.0298(11) 0.0288(11) 0.0194(9) 0.0030(8) 0.0063(8) -0.0013(8)
C3 0.0338(11) 0.0434(13) 0.0242(10) 0.0052(9) 0.0108(9) -0.0088(10)
C4 0.0297(16) 0.057(2) 0.0257(14) 0.000 0.0157(13) 0.000
C5 0.0495(13) 0.0311(12) 0.0214(10) 0.0018(9) 0.0083(9) 0.0075(10)
O5 0.0948(15) 0.0274(9) 0.0334(8) 0.0031(7) 0.0222(9) 0.0037(9)
O6 0.0502(10) 0.0379(9) 0.0302(8) 0.0031(7) 0.0189(7) 0.0157(7)
O3 0.0242(11) 0.046(8) 0.0287(11) -0.0006(18) 0.0140(9) 0.0048(19)
C11 0.0205(16) 0.052(6) 0.0284(17) 0.000(2) 0.0102(13) 0.004(2)
C12 0.026(2) 0.066(3) 0.050(3) -0.014(2) 0.019(2) -0.011(2)
C13 0.032(3) 0.063(4) 0.081(4) 0.015(3) 0.023(3) -0.002(3)
C14 0.046(4) 0.105(5) 0.047(3) 0.013(3) 0.012(3) -0.010(3)
C15 0.049(3) 0.098(7) 0.033(2) -0.010(3) 0.012(2) -0.006(3)
C16 0.036(3) 0.059(3) 0.055(3) -0.012(3) 0.024(2) 0.002(3)
loop_
_atom_type_symbol
_atom_type_description
_atom_type_scat_dispersion_real
_atom_type_scat_dispersion_imag
_atom_type_scat_source
C C 0.0033 0.0016 'International Tables Vol C Tables 4.2.6.8 and 6.1.1.4'
H H 0.0000 0.0000 'International Tables Vol C Tables 4.2.6.8 and 6.1.1.4'
N N 0.0061 0.0033 'International Tables Vol C Tables 4.2.6.8 and 6.1.1.4'
O O 0.0106 0.0060 'International Tables Vol C Tables 4.2.6.8 and 6.1.1.4'
V V 0.3005 0.5294 'International Tables Vol C Tables 4.2.6.8 and 6.1.1.4'
loop_
_geom_angle_atom_site_label_1
_geom_angle_atom_site_label_2
_geom_angle_atom_site_label_3
_geom_angle
_geom_angle_site_symmetry_1
_geom_angle_site_symmetry_3
O1 V1 O3 101.02(12) . .
O1 V1 O6 96.62(5) . .
O3 V1 O6 96.9(6) . .
O1 V1 O6 96.62(5) . 4_575
O3 V1 O6 108.4(6) . 4_575
O6 V1 O6 148.53(9) . 4_575
O1 V1 N1 98.07(10) . .
O3 V1 N1 160.01(19) . .
O6 V1 N1 74.98(4) . .
O6 V1 N1 74.98(4) 4_575 .
O1 V1 O2 176.28(10) . .
O3 V1 O2 82.67(10) . .
O6 V1 O2 82.48(5) . .
O6 V1 O2 82.48(5) 4_575 .
N1 V1 O2 78.21(8) . .
V1 O2 H2A 110.3(19) . .
C2 N1 C2 122.5(2) 4_575 .
C2 N1 V1 118.75(12) 4_575 .
C2 N1 V1 118.75(12) . .
N1 C2 C3 120.36(19) . .
N1 C2 C5 110.40(18) . .
C3 C2 C5 129.2(2) . .
C2 C3 C4 118.1(2) . .
C2 C3 H3 120.9 . .
C4 C3 H3 120.9 . .
C3 C4 C3 120.5(3) . 4_575
C3 C4 H4 119.7 . .
C3 C4 H4 119.7 4_575 .
O5 C5 O6 125.7(2) . .
O5 C5 C2 121.3(2) . .
O6 C5 C2 113.02(18) . .
C5 O6 V1 122.37(14) . .
C11 O3 V1 130.8(2) . .
O3 C11 C16 108.1(5) . .
O3 C11 C12 107.4(8) . .
C16 C11 C12 111.9(4) . .
O3 C11 H11 109.8 . .
C16 C11 H11 109.8 . .
C12 C11 H11 109.8 . .
C13 C12 C11 112.5(4) . .
C13 C12 H12A 109.1 . .
C11 C12 H12A 109.1 . .
C13 C12 H12B 109.1 . .
C11 C12 H12B 109.1 . .
H12A C12 H12B 107.8 . .
C12 C13 C14 110.9(5) . .
C12 C13 H13A 109.5 . .
C14 C13 H13A 109.5 . .
C12 C13 H13B 109.5 . .
C14 C13 H13B 109.5 . .
H13A C13 H13B 108.1 . .
C13 C14 C15 111.0(5) . .
C13 C14 H14A 109.4 . .
C15 C14 H14A 109.4 . .
C13 C14 H14B 109.4 . .
C15 C14 H14B 109.4 . .
H14A C14 H14B 108.0 . .
C14 C15 C16 111.3(5) . .
C14 C15 H15A 109.4 . .
C16 C15 H15A 109.4 . .
C14 C15 H15B 109.4 . .
C16 C15 H15B 109.4 . .
H15A C15 H15B 108.0 . .
C11 C16 C15 112.2(5) . .
C11 C16 H16A 109.2 . .
C15 C16 H16A 109.2 . .
C11 C16 H16B 109.2 . .
C15 C16 H16B 109.2 . .
H16A C16 H16B 107.9 . .
loop_
_geom_bond_atom_site_label_1
_geom_bond_atom_site_label_2
_geom_bond_distance
_geom_bond_site_symmetry_2
V1 O1 1.583(2) .
V1 O3 1.755(3) .
V1 O6 1.9699(16) .
V1 O6 1.9699(16) 4_575
V1 N1 2.084(2) .
V1 O2 2.232(2) .
O2 H2A 0.79(2) .
N1 C2 1.325(2) 4_575
N1 C2 1.325(2) .
C2 C3 1.382(3) .
C2 C5 1.498(3) .
C3 C4 1.383(3) .
C3 H3 0.9500 .
C4 C3 1.383(3) 4_575
C4 H4 0.9500 .
C5 O5 1.218(3) .
C5 O6 1.297(3) .
O3 C11 1.458(5) .
C11 C16 1.516(7) .
C11 C12 1.525(8) .
C11 H11 1.0000 .
C12 C13 1.498(7) .
C12 H12A 0.9900 .
C12 H12B 0.9900 .
C13 C14 1.504(8) .
C13 H13A 0.9900 .
C13 H13B 0.9900 .
C14 C15 1.505(8) .
C14 H14A 0.9900 .
C14 H14B 0.9900 .
C15 C16 1.533(7) .
C15 H15A 0.9900 .
C15 H15B 0.9900 .
C16 H16A 0.9900 .
C16 H16B 0.9900 .
loop_
_geom_torsion_atom_site_label_1
_geom_torsion_atom_site_label_2
_geom_torsion_atom_site_label_3
_geom_torsion_atom_site_label_4
_geom_torsion
_geom_torsion_site_symmetry_1
_geom_torsion_site_symmetry_4
C2 N1 C2 C3 -2.1(4) 4_575 .
V1 N1 C2 C3 179.33(15) . .
C2 N1 C2 C5 177.15(17) 4_575 .
V1 N1 C2 C5 -1.4(2) . .
N1 C2 C3 C4 0.3(3) . .
C5 C2 C3 C4 -178.8(2) . .
C2 C3 C4 C3 1.5(4) . 4_575
N1 C2 C5 O5 176.2(2) . .
C3 C2 C5 O5 -4.6(3) . .
N1 C2 C5 O6 -3.7(3) . .
C3 C2 C5 O6 175.46(19) . .
O5 C5 O6 V1 -172.06(18) . .
C2 C5 O6 V1 7.9(2) . .
O1 V1 O3 C11 -2.8(15) . .
O6 V1 O3 C11 -100.9(14) . .
O6 V1 O3 C11 98.1(14) 4_575 .
N1 V1 O3 C11 -165.3(4) . .
O2 V1 O3 C11 177.6(15) . .
V1 O3 C11 C16 151.4(12) . .
V1 O3 C11 C12 -87.6(14) . .
O3 C11 C12 C13 -66.8(5) . .
C16 C11 C12 C13 51.7(6) . .
C11 C12 C13 C14 -55.7(6) . .
C12 C13 C14 C15 58.4(6) . .
C13 C14 C15 C16 -56.8(7) . .
O3 C11 C16 C15 68.4(8) . .
C12 C11 C16 C15 -49.8(6) . .
C14 C15 C16 C11 52.8(7) . .
