#------------------------------------------------------------------------------
#$Date: 2017-03-04 03:42:28 +0200 (Sat, 04 Mar 2017) $
#$Revision: 192913 $
#$URL: file:///home/coder/svn-repositories/cod/cif/4/34/53/4345352.cif $
#------------------------------------------------------------------------------
#
# This file is available in the Crystallography Open Database (COD),
# http://www.crystallography.net/
#
# All data on this site have been placed in the public domain by the
# contributors.
#
data_4345352
loop_
_publ_author_name
'Bruno, Rosaria'
'Vallejo, Julia'
'Marino, Nadia'
'De Munno, Giovanni'
'Krzystek, J.'
'Cano, Joan'
'Pardo, Emilio'
'Armentano, Donatella'
_publ_section_title
;
 Cytosine Nucleobase Ligand: A Suitable Choice for Modulating Magnetic
 Anisotropy in Tetrahedrally Coordinated Mononuclear Co(II) Compounds.
;
_journal_issue                   4
_journal_name_full               'Inorganic chemistry'
_journal_page_first              1857
_journal_page_last               1864
_journal_paper_doi               10.1021/acs.inorgchem.6b02448
_journal_volume                  56
_journal_year                    2017
_chemical_formula_sum            'C10 H10 Co N8 O2 S2'
_chemical_formula_weight         397.31
_chemical_name_systematic
;
 ?
;
_space_group_crystal_system      triclinic
_space_group_IT_number           2
_space_group_name_Hall           '-P 1'
_space_group_name_H-M_alt        'P -1'
_symmetry_space_group_name_Hall  '-P 1'
_symmetry_space_group_name_H-M   'P -1'
_atom_sites_solution_hydrogens   geom
_audit_creation_method           SHELXL-2013
_cell_angle_alpha                103.615(2)
_cell_angle_beta                 96.610(2)
_cell_angle_gamma                101.962(2)
_cell_formula_units_Z            2
_cell_length_a                   7.7520(4)
_cell_length_b                   8.7900(4)
_cell_length_c                   12.3723(6)
_cell_measurement_reflns_used    9891
_cell_measurement_temperature    100(2)
_cell_measurement_theta_max      30
_cell_measurement_theta_min      2.5
_cell_volume                     789.57(7)
_computing_cell_refinement       'Bruker APEX'
_computing_data_collection       'Bruker APEX'
_computing_data_reduction        'Bruker SAINT'
_computing_molecular_graphics    'Bruker SHELXTL'
_computing_publication_material  'Bruker SHELXTL'
_computing_structure_refinement  'SHELXL-2013 (Sheldrick, 2013)'
_computing_structure_solution    'SHELXS-2013 (Sheldrick, 2013)'
_diffrn_ambient_temperature      100(2)
_diffrn_measured_fraction_theta_full 0.999
_diffrn_measured_fraction_theta_max 0.903
_diffrn_measurement_device_type  'CCD area detector'
_diffrn_measurement_method       'phi and omega scans'
_diffrn_radiation_type           MoK\a
_diffrn_radiation_wavelength     0.71073
_diffrn_reflns_av_R_equivalents  0.0208
_diffrn_reflns_av_unetI/netI     0.0154
_diffrn_reflns_Laue_measured_fraction_full 0.999
_diffrn_reflns_Laue_measured_fraction_max 0.903
_diffrn_reflns_limit_h_max       11
_diffrn_reflns_limit_h_min       -11
_diffrn_reflns_limit_k_max       12
_diffrn_reflns_limit_k_min       -12
_diffrn_reflns_limit_l_max       17
_diffrn_reflns_limit_l_min       -18
_diffrn_reflns_number            25960
_diffrn_reflns_point_group_measured_fraction_full 0.999
_diffrn_reflns_point_group_measured_fraction_max 0.903
_diffrn_reflns_theta_full        25.242
_diffrn_reflns_theta_max         31.698
_diffrn_reflns_theta_min         1.719
_diffrn_source                   'fine-focus sealed tube'
_exptl_absorpt_coefficient_mu    1.372
_exptl_absorpt_correction_T_max  0.795
_exptl_absorpt_correction_T_min  0.740
_exptl_absorpt_correction_type   multi-scan
_exptl_absorpt_process_details   sadabs
_exptl_crystal_colour            violet
_exptl_crystal_density_diffrn    1.671
_exptl_crystal_description       parallelepiped
_exptl_crystal_F_000             402
_exptl_crystal_size_max          0.22
_exptl_crystal_size_mid          0.18
_exptl_crystal_size_min          0.18
_refine_diff_density_max         0.445
_refine_diff_density_min         -0.351
_refine_diff_density_rms         0.051
_refine_ls_extinction_method     none
_refine_ls_goodness_of_fit_ref   1.570
_refine_ls_hydrogen_treatment    constr
_refine_ls_matrix_type           full
_refine_ls_number_parameters     209
_refine_ls_number_reflns         4829
_refine_ls_number_restraints     0
_refine_ls_restrained_S_all      1.570
_refine_ls_R_factor_all          0.0330
_refine_ls_R_factor_gt           0.0282
_refine_ls_shift/su_max          0.001
_refine_ls_shift/su_mean         0.000
_refine_ls_structure_factor_coef Fsqd
_refine_ls_weighting_details
'w=1/[\s^2^(Fo^2^)+(0.0378P)^2^] where P=(Fo^2^+2Fc^2^)/3'
_refine_ls_weighting_scheme      calc
_refine_ls_wR_factor_gt          0.0846
_refine_ls_wR_factor_ref         0.0894
_reflns_Friedel_coverage         0.000
_reflns_number_gt                4289
_reflns_number_total             4829
_reflns_threshold_expression     'I > 2\s(I)'
_cod_data_source_file            ic6b02448_si_002.cif
_cod_data_source_block           1
_cod_database_code               4345352
_shelx_space_group_comment
;
The symmetry employed for this shelxl refinement is uniquely defined
by the following loop, which should always be used as a source of
symmetry information in preference to the above space-group names.
They are only intended as comments.
;
_shelxl_version_number           2013-4
_shelx_res_file
;
TITL JULIA16_0m in P-1
CELL 0.71073   7.7520   8.7900  12.3723 103.615  96.610 101.962
ZERR    2.00   0.0004   0.0004   0.0006   0.002   0.002   0.002
LATT 1
SFAC C  H  N  O  S  Co
UNIT 20  20  16  4  4  2
L.S. 4
ACTA
BOND
FMAP 2
PLAN 5
TEMP -173.000
WGHT    0.037800
FVAR       0.18857   0.18809
CO1   6    0.697086    0.783363    0.744257    11.00000    0.03111    0.03356 =
         0.02698    0.00666    0.00534    0.01258
S1C   5    1.124712    0.488897    0.672138    11.00000    0.04420    0.05688 =
         0.07752    0.01684    0.01460    0.02874
S2C   5    0.497697    0.311783    0.843108    11.00000    0.06814    0.04368 =
         0.06167    0.02192    0.02015    0.00706
O2    4    0.410299    0.908355    0.785956    11.00000    0.04372    0.05004 =
         0.02703    0.00693    0.01177    0.01906
N1    3    0.246520    0.902544    0.618059    11.00000    0.03269    0.04746 =
         0.03567    0.01328    0.01119    0.02081
AFIX  43
H1A   2    0.168652    0.946031    0.652912    11.00000   -1.20000
AFIX   0
O21   4    0.963406    1.031765    0.703261    11.00000    0.04412    0.05565 =
         0.03836    0.01920    0.01883    0.02254
N3    3    0.509680    0.808277    0.625455    11.00000    0.02816    0.03516 =
         0.02502    0.00570    0.00734    0.01185
N31   3    0.831017    0.999140    0.853373    11.00000    0.02764    0.03511 =
         0.02624    0.00660    0.00708    0.01158
N2C   3    0.593523    0.629920    0.828829    11.00000    0.04411    0.04703 =
         0.04836    0.01941    0.00552    0.00781
N1C   3    0.856949    0.657360    0.670565    11.00000    0.04805    0.04837 =
         0.04911    0.00692    0.01248    0.02482
C41   1    0.810431    1.061471    0.961685    11.00000    0.03248    0.04301 =
         0.02670    0.00519    0.00354    0.01911
C21   1    0.946799    1.087427    0.802448    11.00000    0.02818    0.03869 =
         0.03678    0.01395    0.00770    0.01465
C2    1    0.387947    0.874813    0.680728    11.00000    0.02813    0.03214 =
         0.02915    0.00799    0.00800    0.00908
N11   3    1.043556    1.239245    0.865090    11.00000    0.04223    0.04119 =
         0.05750    0.01357    0.01039    0.00311
AFIX  43
H11A  2    1.118637    1.297112    0.833436    11.00000   -1.20000
AFIX   0
C5    1    0.340982    0.800443    0.446324    11.00000    0.04325    0.05958 =
         0.02603    0.00832    0.00264    0.01883
AFIX  43
H5    2    0.326142    0.775178    0.366299    11.00000   -1.20000
AFIX   0
C6    1    0.222397    0.864654    0.502616    11.00000    0.03525    0.05378 =
         0.03566    0.01479    0.00130    0.01575
AFIX  43
H6    2    0.121244    0.883702    0.461666    11.00000   -1.20000
AFIX   0
C51   1    0.912041    1.220332    1.025001    11.00000    0.05359    0.04530 =
         0.03232   -0.00159   -0.00241    0.02162
AFIX  43
H51   2    0.898130    1.265273    1.100270    11.00000   -1.20000
AFIX   0
C4    1    0.488643    0.772120    0.511231    11.00000    0.03393    0.04334 =
         0.02874    0.00593    0.00792    0.01398
N41   3    0.700027    0.971449    1.008306    11.00000    0.05022    0.05936 =
         0.02867    0.00823    0.01710    0.01630
AFIX  93
H41A  2    0.641329    0.873188    0.969631    11.00000   -1.20000
H41B  2    0.685053    1.009640    1.078091    11.00000   -1.20000
AFIX   0
N4    3    0.610470    0.708301    0.461060    11.00000    0.05514    0.09265 =
         0.02880    0.00454    0.01303    0.04176
AFIX  93
H4A   2    0.701209    0.690833    0.502010    11.00000   -1.20000
H4B   2    0.600028    0.683704    0.387042    11.00000   -1.20000
AFIX   0
C1C   1    0.967654    0.584091    0.669765    11.00000    0.03585    0.03563 =
         0.03643    0.00405    0.00894    0.01078
C2C   1    0.552669    0.498275    0.836719    11.00000    0.03356    0.04458 =
         0.03180    0.01177    0.00605    0.00669
C61   1    1.027367    1.302739    0.973643    11.00000    0.05040    0.03711 =
         0.05964    0.00100   -0.00830    0.00969
AFIX  43
H61   2    1.098566    1.406852    1.013817    11.00000   -1.20000

AFIX   0
HKLF 4

REM  JULIA16_0m in P-1
REM R1 =  0.0282 for    4289 Fo > 4sig(Fo)  and  0.0330 for all    4829 data
REM    209 parameters refined using      0 restraints

END

WGHT      0.0399      0.2243

REM Highest difference peak  0.445,  deepest hole -0.351,  1-sigma level  0.051
Q1    1   0.5511  0.3390  0.9051  11.00000  0.05    0.45
Q2    1   0.5036  0.7952  0.5812  11.00000  0.05    0.35
Q3    1   1.1232  0.5176  0.6231  11.00000  0.05    0.33
Q4    1   0.4230  0.8934  0.7586  11.00000  0.05    0.33
Q5    1   0.8728  1.1408  0.9914  11.00000  0.05    0.33
;
_shelx_res_checksum              81714
_shelx_hkl_file
;
  -1   0   0   15.71    0.29
  -1   0   0   15.95    0.29
  -1   0   0   15.66    0.29
  -1   0   0   15.85    0.32
  -1   0   0   16.21    0.30
  -1   0   0   15.93    0.31
  -1   0   0   15.78    0.29
  -1   0   0   15.84    0.28
   1   0   0   15.92    0.31
   1   0   0   15.64    0.31
  -2   0   0   29.49    0.57
  -2   0   0   28.08    0.53
  -2   0   0   29.67    0.52
  -2   0   0   29.88    0.55
  -2   0   0   29.79    0.57
  -2   0   0   29.08    0.54
  -2   0   0   29.19    0.54
  -2   0   0   28.55    0.53
  -2   0   0   30.29    0.60
   2   0   0   29.28    0.54
   2   0   0   29.62    0.54
   2   0   0   29.18    0.52
   2   0   0   29.39    0.53
   2   0   0   29.81    0.57
   2   0   0   28.75    0.60
   2   0   0   29.43    0.55
   2   0   0   29.00    0.57
  -3   0   0    2.05    0.07
  -3   0   0    1.97    0.10
  -3   0   0    2.12    0.09
  -3   0   0    2.11    0.08
  -3   0   0    1.96    0.07
  -3   0   0    2.05    0.07
  -3   0   0    1.98    0.07
  -3   0   0    2.01    0.10
  -3   0   0    2.00    0.09
   3   0   0    2.00    0.07
   3   0   0    2.12    0.08
   3   0   0    1.98    0.07
   3   0   0    1.98    0.07
   3   0   0    2.21    0.08
  -4   0   0    2.73    0.13
  -4   0   0    2.83    0.13
  -4   0   0    2.85    0.10
  -4   0   0    2.84    0.10
  -4   0   0    3.07    0.10
  -4   0   0    2.93    0.09
  -4   0   0    3.01    0.12
   4   0   0    2.83    0.10
   4   0   0    2.95    0.10
   4   0   0    2.99    0.10
   4   0   0    2.75    0.09
   4   0   0    2.90    0.10
  -5   0   0   32.04    0.72
  -5   0   0   32.17    0.63
  -5   0   0   31.91    0.68
  -5   0   0   32.71    0.63
  -5   0   0   31.89    0.61
  -5   0   0   32.74    0.67
  -5   0   0   32.29    0.74
   5   0   0   32.55    0.64
   5   0   0   32.58    0.61
   5   0   0   31.85    0.62
  -6   0   0    8.93    0.31
  -6   0   0    8.04    0.29
  -6   0   0    8.42    0.23
  -6   0   0    8.18    0.27
  -6   0   0    8.75    0.25
   6   0   0    8.94    0.23
  -7   0   0    2.55    0.12
  -7   0   0    2.75    0.18
  -7   0   0    2.74    0.13
  -7   0   0    2.75    0.16
  -7   0   0    2.37    0.12
  -7   0   0    2.28    0.16
   7   0   0    2.85    0.12
  -8   0   0    0.27    0.09
  -8   0   0    0.21    0.07
  -8   0   0    0.24    0.08
  -9   0   0    2.02    0.20
  -9   0   0    1.96    0.18
  -9   0   0    2.16    0.17
 -10   0   0    1.83    0.19
 -10   0   0    1.89    0.21
 -11   1   0    1.11    0.16
 -11   1   0    1.17    0.19
 -10   1   0    0.47    0.12
 -10   1   0    0.72    0.14
 -10   1   0    0.60    0.12
  -9   1   0    7.03    0.33
  -9   1   0    6.79    0.29
  -9   1   0    6.92    0.33
  -8   1   0    0.12    0.06
  -8   1   0    0.04    0.05
  -8   1   0    0.07    0.07
   7  -1   0    3.00    0.11
  -7   1   0    2.68    0.18
  -7   1   0    2.60    0.12
  -7   1   0    2.38    0.16
  -7   1   0    2.39    0.15
   6  -1   0   14.38    0.31
   6  -1   0   13.93    0.31
  -6   1   0   13.84    0.31
  -6   1   0   14.26    0.38
  -6   1   0   14.18    0.43
  -6   1   0   14.43    0.34
  -6   1   0   14.26    0.31
  -6   1   0   14.25    0.41
  -6   1   0   14.15    0.29
   5  -1   0    2.46    0.09
   5  -1   0    2.37    0.09
   5  -1   0    2.57    0.09
  -5   1   0    2.54    0.14
  -5   1   0    2.51    0.09
  -5   1   0    2.42    0.12
  -5   1   0    2.46    0.08
  -5   1   0    2.51    0.09
  -5   1   0    2.47    0.09
  -5   1   0    2.44    0.14
  -5   1   0    2.57    0.09
  -5   1   0    2.31    0.10
   4  -1   0  105.66    1.82
   4  -1   0  103.32    1.82
   4  -1   0  102.84    1.80
  -4   1   0  102.50    1.82
  -4   1   0  103.28    2.03
  -4   1   0  101.02    1.95
  -4   1   0  104.13    1.84
  -4   1   0  103.78    1.75
  -4   1   0  103.90    1.79
  -4   1   0  100.64    1.92
  -4   1   0  103.27    1.85
  -4   1   0  100.75    1.82
   3  -1   0   25.42    0.47
   3  -1   0   25.14    0.47
   3  -1   0   25.68    0.48
  -3   1   0   25.19    0.47
  -3   1   0   25.45    0.57
  -3   1   0   25.43    0.48
  -3   1   0   25.75    0.54
  -3   1   0   25.34    0.48
  -3   1   0   24.98    0.51
  -3   1   0   25.87    0.47
  -3   1   0   25.56    0.46
  -3   1   0   26.13    0.50
   2  -1   0  173.80    3.17
   2  -1   0  170.28    3.05
   2  -1   0  173.43    3.24
   2  -1   0  173.01    3.03
   2  -1   0  172.19    5.25
   2  -1   0  172.42    3.35
   2  -1   0  172.96    2.95
   2  -1   0  167.60    3.03
   2  -1   0  175.78    3.05
   2  -1   0  174.04    3.07
  -2   1   0  170.47    3.28
  -2   1   0  165.63    3.03
  -2   1   0  172.27    5.34
  -2   1   0  170.19    3.03
  -2   1   0  167.41    3.13
  -2   1   0  170.17    3.03
  -2   1   0  167.45    3.06
  -2   1   0  172.61    3.24
  -2   1   0  166.74    3.17
   1  -1   0   40.89    0.78
   1  -1   0   39.76    0.81
   1  -1   0   40.64    0.71
   1  -1   0   41.56    0.72
   1  -1   0   38.61    0.71
   1  -1   0   39.78    0.74
   1  -1   0   40.26    0.77
  -1   1   0   41.73    1.25
  -1   1   0   39.59    0.74
  -1   1   0   40.58    0.71
  -1   1   0   39.69    0.77
  -1   1   0   39.09    0.71
  -1   1   0   39.29    0.78
  -1   1   0   40.93    0.81
  -1   1   0   39.45    0.72
  -1  -1   0   45.06    0.81
  -1  -1   0   45.39    0.81
  -1  -1   0   44.66    0.83
  -1  -1   0   44.46    0.81
  -1  -1   0   44.78    0.82
  -1  -1   0   43.62    0.80
  -1  -1   0   44.37    0.78
   1   1   0   44.85    0.80
   1   1   0   44.81    0.81
   1   1   0   44.60    0.81
   1   1   0   45.69    0.85
   1   1   0   44.14    0.83
   1   1   0   45.28    0.82
   1   1   0   43.87    0.80
   1   1   0   43.83    0.78
  -2  -1   0   10.62    0.24
  -2  -1   0   10.76    0.25
  -2  -1   0   10.75    0.24
  -2  -1   0   10.61    0.24
  -2  -1   0   10.36    0.24
  -2  -1   0   10.47    0.25
  -2  -1   0   10.91    0.24
  -2  -1   0   10.48    0.24
  -2  -1   0   10.46    0.23
   2   1   0   10.73    0.24
   2   1   0   10.31    0.24
   2   1   0   11.01    0.24
   2   1   0   10.56    0.24
   2   1   0   10.75    0.24
   2   1   0   10.76    0.24
   2   1   0   10.67    0.23
   2   1   0   11.07    0.25
  -3  -1   0   32.74    0.64
  -3  -1   0   33.27    0.65
  -3  -1   0   31.97    0.63
  -3  -1   0   32.23    0.63
  -3  -1   0   32.20    0.69
  -3  -1   0   33.11    0.65
  -3  -1   0   33.08    0.61
  -3  -1   0   32.18    0.67
   3   1   0   34.16    0.66
   3   1   0   32.30    0.63
   3   1   0   32.78    0.61
   3   1   0   33.00    0.68
   3   1   0   32.39    0.63
   3   1   0   32.26    0.63
  -4  -1   0    6.41    0.18
  -4  -1   0    6.18    0.18
  -4  -1   0    6.11    0.21
  -4  -1   0    6.43    0.20
  -4  -1   0    6.30    0.21
  -4  -1   0    6.41    0.20
   4   1   0    6.33    0.19
   4   1   0    6.25    0.18
   4   1   0    6.26    0.18
  -5  -1   0    4.53    0.18
  -5  -1   0    4.63    0.19
  -5  -1   0    4.67    0.19
  -5  -1   0    4.34    0.15
  -5  -1   0    4.46    0.16
   5   1   0    4.70    0.16
   5   1   0    4.35    0.15
   5   1   0    4.63    0.16
  -6  -1   0   13.24    0.33
  -6  -1   0   13.61    0.37
  -6  -1   0   13.07    0.40
  -6  -1   0   13.22    0.40
  -6  -1   0   13.15    0.33
   6   1   0   12.96    0.32
   6   1   0   13.10    0.34
   6   1   0   13.10    0.34
  -7  -1   0   12.78    0.32
  -7  -1   0   11.26    0.36
  -7  -1   0   12.67    0.36
  -7  -1   0   12.43    0.33
  -7  -1   0   12.17    0.41
  -7  -1   0   12.20    0.40
   7   1   0   12.11    0.33
   7   1   0   12.68    0.31
  -8  -1   0   12.85    0.43
  -8  -1   0   11.97    0.43
  -8  -1   0   12.72    0.40
  -9  -1   0    0.00    0.07
  -9  -1   0   -0.05    0.05
 -10  -1   0    0.02    0.08
 -10  -1   0    0.02    0.07
 -11   2   0    0.66    0.15
 -10   2   0    5.02    0.30
 -10   2   0    5.52    0.28
  -9   2   0    0.13    0.08
  -9   2   0    0.00    0.06
  -8   2   0    0.31    0.08
  -8   2   0    0.40    0.10
  -8   2   0    0.28    0.08
  -7   2   0    8.96    0.33
  -7   2   0    9.27    0.35
  -7   2   0    8.87    0.30
  -7   2   0    9.01    0.24
   6  -2   0   46.13    0.88
   6  -2   0   49.52    0.89
  -6   2   0   47.72    0.85
  -6   2   0   47.51    1.03
  -6   2   0   49.21    0.89
  -6   2   0   49.11    0.90
  -6   2   0   49.30    0.89
  -6   2   0   47.88    0.96
  -6   2   0   49.20    1.10
  -6   2   0   48.03    0.89
  -6   2   0   47.44    0.96
   5  -2   0   22.03    0.43
   5  -2   0   21.98    0.42
   5  -2   0   21.58    0.42
  -5   2   0   21.17    0.42
  -5   2   0   21.63    0.49
  -5   2   0   21.36    0.52
  -5   2   0   22.15    0.46
  -5   2   0   21.48    0.43
  -5   2   0   21.16    0.42
  -5   2   0   22.26    0.56
  -5   2   0   21.65    0.43
  -5   2   0   21.61    0.40
   4  -2   0    1.38    0.07
   4  -2   0    1.52    0.06
   4  -2   0    1.42    0.06
   4  -2   0    1.42    0.06
  -4   2   0    1.42    0.07
  -4   2   0    1.43    0.06
  -4   2   0    1.37    0.10
  -4   2   0    1.45    0.06
  -4   2   0    1.38    0.06
  -4   2   0    1.49    0.07
  -4   2   0    1.38    0.05
  -4   2   0    1.51    0.09
  -4   2   0    1.41    0.06
  -4   2   0    1.18    0.09
  -4   2   0    1.55    0.16
   3  -2   0  197.91    3.51
   3  -2   0  196.83    3.52
   3  -2   0  192.63    3.48
   3  -2   0  202.95    3.73
  -3   2   0  193.80    4.01
  -3   2   0  195.24    3.57
  -3   2   0  197.45    3.52
  -3   2   0  198.81    3.49
  -3   2   0  198.00    6.19
  -3   2   0  196.36    3.49
  -3   2   0  197.02    3.75
   2  -2   0   16.79    0.34
   2  -2   0   16.86    0.38
   2  -2   0   17.51    0.37
   2  -2   0   16.52    0.33
   2  -2   0   16.88    0.34
   2  -2   0   16.73    0.36
   2  -2   0   17.70    0.62
   2  -2   0   17.07    0.38
  -2   2   0   16.99    0.38
  -2   2   0   16.65    0.34
  -2   2   0   16.99    0.34
  -2   2   0   16.87    0.34
  -2   2   0   17.39    0.62
  -2   2   0   16.49    0.39
  -2   2   0   17.07    0.34
  -2   2   0   17.18    0.37
  -2   2   0   16.96    0.39
   1  -2   0    4.85    0.13
   1  -2   0    4.87    0.13
   1  -2   0    4.91    0.13
   1  -2   0    5.14    0.13
   1  -2   0    4.93    0.13
   1  -2   0    5.20    0.15
  -1   2   0    4.97    0.13
  -1   2   0    5.21    0.24
  -1   2   0    4.81    0.14
  -1   2   0    4.79    0.15
  -1   2   0    4.98    0.13
  -1   2   0    4.83    0.13
  -1   2   0    5.18    0.13
  -1   2   0    4.90    0.14
  -1   2   0    4.98    0.13
   0  -2   0   52.25    0.96
   0  -2   0   51.33    0.94
   0  -2   0   50.64    0.93
   0  -2   0   50.32    0.94
   0  -2   0   50.85    1.07
   0  -2   0   52.31    0.96
   0  -2   0   50.49    0.95
   0   2   0   51.63    0.94
   0   2   0   51.70    0.91
   0   2   0   49.56    0.94
   0   2   0   50.41    0.96
   0   2   0   51.51    0.96
  -1  -2   0  371.67    6.64
  -1  -2   0  362.55    6.54
  -1  -2   0  364.87    6.73
  -1  -2   0  372.67    6.51
  -1  -2   0  367.81    6.24
  -1  -2   0  359.43    6.51
  -1  -2   0  351.90    6.45
   1   2   0  365.49    6.26
   1   2   0  372.82    6.70
   1   2   0  362.78    6.51
   1   2   0  364.94    6.49
   1   2   0  359.08    6.54
   1   2   0  361.67    6.68
  -2  -2   0    0.35    0.04
  -2  -2   0    0.42    0.04
  -2  -2   0    0.34    0.05
  -2  -2   0    0.40    0.05
  -2  -2   0    0.45    0.05
   2   2   0    0.36    0.05
   2   2   0    0.42    0.05
   2   2   0    0.37    0.04
   2   2   0    0.44    0.05
   2   2   0    0.44    0.04
  -3  -2   0    1.15    0.08
  -3  -2   0    1.23    0.08
  -3  -2   0    1.19    0.07
  -3  -2   0    1.22    0.08
  -3  -2   0    1.17    0.08
   3   2   0    1.18    0.07
   3   2   0    1.24    0.08
   3   2   0    1.19    0.08
   3   2   0    1.02    0.07
   3   2   0    1.21    0.07
  -4  -2   0   54.02    1.12
  -4  -2   0   56.11    1.06
  -4  -2   0   56.41    1.07
  -4  -2   0   55.31    1.08
   4   2   0   56.27    1.04
   4   2   0   55.46    1.08
   4   2   0   55.85    1.10
  -5  -2   0   41.48    0.84
  -5  -2   0   41.78    0.83
  -5  -2   0   40.29    0.89
   5   2   0   41.48    0.81
   5   2   0   40.80    0.86
   5   2   0   40.78    0.84
  -6  -2   0    0.76    0.10
  -6  -2   0    0.61    0.09
  -6  -2   0    0.79    0.09
  -6  -2   0    0.73    0.09
   6   2   0    0.78    0.08
   6   2   0    0.67    0.09
   6   2   0    0.71    0.09
  -7  -2   0    0.11    0.05
  -7  -2   0    0.21    0.06
  -7  -2   0    0.16    0.07
  -7  -2   0    0.23    0.07
   7   2   0    0.18    0.06
   7   2   0    0.17    0.06
   7   2   0    0.17    0.05
  -8  -2   0    0.94    0.14
  -8  -2   0    1.05    0.13
  -9  -2   0    2.43    0.20
  -9  -2   0    2.71    0.19
 -10  -2   0    1.16    0.16
 -10  -2   0    1.24    0.18
 -10   3   0    0.73    0.15
  -9   3   0    0.12    0.08
  -8   3   0    3.78    0.23
  -7   3   0    8.75    0.35
   6  -3   0    1.05    0.06
  -6   3   0    0.95    0.05
  -6   3   0    0.84    0.11
  -6   3   0    0.95    0.07
  -6   3   0    0.78    0.05
   5  -3   0    6.69    0.17
   5  -3   0    6.36    0.16
   5  -3   0    6.75    0.18
  -5   3   0    6.76    0.26
  -5   3   0    6.65    0.20
  -5   3   0    6.46    0.38
  -5   3   0    6.18    0.16
  -5   3   0    6.70    0.16
  -5   3   0    6.43    0.17
   4  -3   0    1.21    0.06
   4  -3   0    1.16    0.06
   4  -3   0    1.12    0.06
   4  -3   0    1.10    0.07
  -4   3   0    1.15    0.06
  -4   3   0    1.15    0.06
  -4   3   0    1.13    0.10
  -4   3   0    1.15    0.06
  -4   3   0    1.14    0.15
  -4   3   0    1.14    0.07
  -4   3   0    1.17    0.09
  -4   3   0    1.09    0.06
   3  -3   0    0.07    0.02
   3  -3   0    0.07    0.03
   3  -3   0    0.03    0.02
   3  -3   0   -0.02    0.02
  -3   3   0    0.02    0.03
  -3   3   0    0.11    0.07
  -3   3   0    0.11    0.04
  -3   3   0    0.05    0.03
  -3   3   0    0.06    0.02
  -3   3   0    0.02    0.02
  -3   3   0    0.02    0.02
   2  -3   0   87.96    1.60
   2  -3   0   88.85    1.63
   2  -3   0   87.14    1.59
   2  -3   0   88.71    1.59
   2  -3   0   92.08    1.81
  -2   3   0   88.45    1.71
  -2   3   0   88.15    1.63
  -2   3   0   86.14    1.59
  -2   3   0   87.30    1.59
  -2   3   0   86.59    2.78
  -2   3   0   87.95    1.60
  -2   3   0   87.60    1.62
  -2   3   0   87.65    1.81
  -2   3   0   88.92    1.72
   1  -3   0   67.85    1.24
   1  -3   0   67.14    1.28
   1  -3   0   68.68    1.26
   1  -3   0   66.55    1.25
   1  -3   0   66.55    1.24
   1  -3   0   68.89    1.41
  -1   3   0   65.81    1.24
  -1   3   0   66.67    2.15
  -1   3   0   69.26    1.32
  -1   3   0   68.37    1.26
  -1   3   0   68.22    1.24
  -1   3   0   62.88    1.30
  -1   3   0   67.73    1.41
  -1   3   0   67.38    1.24
   0  -3   0    3.57    0.13
   0  -3   0    3.78    0.13
   0  -3   0    3.69    0.13
   0  -3   0    3.79    0.15
   0   3   0    3.70    0.14
   0   3   0    3.69    0.12
   0   3   0    3.74    0.13
   0   3   0    3.68    0.13
  -1  -3   0   86.96    1.59
  -1  -3   0   82.81    1.55
  -1  -3   0   83.83    1.78
  -1  -3   0   84.53    1.57
   1   3   0   86.00    1.52
   1   3   0   85.37    1.59
   1   3   0   87.22    1.58
   1   3   0   85.55    1.61
  -2  -3   0    0.68    0.06
  -2  -3   0    0.79    0.05
  -2  -3   0    0.74    0.08
  -2  -3   0    0.67    0.07
  -2  -3   0    0.88    0.08
   2   3   0    0.68    0.08
   2   3   0    0.74    0.08
   2   3   0    0.76    0.08
   2   3   0    0.87    0.05
  -3  -3   0   15.99    0.40
  -3  -3   0   16.66    0.45
  -3  -3   0   16.52    0.36
  -3  -3   0   16.37    0.40
  -3  -3   0   16.24    0.39
   3   3   0   15.96    0.40
   3   3   0   16.70    0.37
   3   3   0   16.37    0.39
   3   3   0   16.60    0.41
  -4  -3   0   15.40    0.41
  -4  -3   0   15.76    0.39
  -4  -3   0   15.64    0.36
  -4  -3   0   15.18    0.39
   4   3   0   15.07    0.40
   4   3   0   15.23    0.41
   4   3   0   15.05    0.38
  -5  -3   0   18.77    0.45
  -5  -3   0   17.63    0.49
  -5  -3   0   18.39    0.46
   5   3   0   17.42    0.45
   5   3   0   18.46    0.47
   5   3   0   17.69    0.44
  -6  -3   0    0.44    0.08
  -6  -3   0    0.50    0.08
  -6  -3   0    0.59    0.10
   6   3   0    0.52    0.09
   6   3   0    0.57    0.09
   6   3   0    0.32    0.07
  -7  -3   0    0.19    0.08
  -7  -3   0    0.04    0.06
  -7  -3   0    0.15    0.06
  -7  -3   0    0.14    0.07
   7   3   0    0.06    0.06
   7   3   0    0.09    0.05
   7   3   0    0.10    0.06
  -8  -3   0    1.70    0.17
  -8  -3   0    1.40    0.17
  -9  -3   0    2.71    0.22
  -9  -3   0    2.57    0.20
 -10   4   0    0.10    0.09
  -9   4   0    2.12    0.22
  -8   4   0    7.29    0.34
  -7   4   0    0.18    0.07
   6  -4   0   24.75    0.55
   6  -4   0   25.72    0.50
  -6   4   0   26.08    0.59
  -6   4   0   24.65    0.67
  -6   4   0   25.19    0.49
  -6   4   0   24.92    0.50
  -6   4   0   24.52    1.03
  -6   4   0   25.01    0.50
   5  -4   0   81.79    1.47
   5  -4   0   81.38    1.58
   5  -4   0   80.51    1.47
   5  -4   0   79.78    1.48
  -5   4   0   81.11    2.69
  -5   4   0   81.27    1.69
  -5   4   0   81.41    1.47
  -5   4   0   80.76    1.47
  -5   4   0   83.35    1.61
  -5   4   0   79.38    1.48
  -5   4   0   81.46    1.69
  -5   4   0   79.47    1.49
   4  -4   0   12.41    0.29
   4  -4   0   12.42    0.31
  -4   4   0   12.55    0.34
  -4   4   0   11.79    0.28
  -4   4   0   11.83    0.33
  -4   4   0   11.99    0.58
  -4   4   0   12.08    0.36
  -4   4   0   12.45    0.29
  -4   4   0   12.10    0.29
   3  -4   0   11.47    0.32
   3  -4   0   11.12    0.27
  -3   4   0   10.78    0.32
  -3   4   0   11.47    0.32
  -3   4   0   11.26    0.53
  -3   4   0   10.75    0.27
  -3   4   0   11.13    0.32
  -3   4   0   10.84    0.29
  -3   4   0   10.77    0.27
  -3   4   0   10.70    0.27
   2  -4   0    0.41    0.07
   2  -4   0    0.41    0.06
   2  -4   0    0.37    0.06
  -2   4   0    0.43    0.07
  -2   4   0    0.41    0.06
  -2   4   0    0.34    0.05
  -2   4   0    0.39    0.05
  -2   4   0    0.42    0.06
  -2   4   0    0.49    0.13
  -2   4   0    0.40    0.06
   1  -4   0    4.12    0.17
   1  -4   0    3.92    0.15
   1  -4   0    4.05    0.15
   1  -4   0    4.10    0.15
  -1   4   0    3.67    0.15
  -1   4   0    4.10    0.27
  -1   4   0    4.14    0.14
  -1   4   0    4.03    0.15
  -1   4   0    3.85    0.13
  -1   4   0    3.84    0.14
   0  -4   0   68.26    1.45
   0  -4   0   67.99    1.28
   0  -4   0   67.88    1.29
   0  -4   0   68.47    1.27
   0   4   0   65.03    1.27
   0   4   0   65.65    1.23
   0   4   0   65.91    1.30
  -1  -4   0   43.08    0.96
  -1  -4   0   41.28    0.84
  -1  -4   0   41.87    0.85
  -1  -4   0   41.14    0.84
   1   4   0   41.53    0.82
   1   4   0   42.22    0.85
   1   4   0   40.26    0.86
  -2  -4   0    1.94    0.07
  -2  -4   0    1.87    0.10
  -2  -4   0    1.76    0.12
  -2  -4   0    1.91    0.12
   2   4   0    1.90    0.12
   2   4   0    2.17    0.07
   2   4   0    1.81    0.12
   2   4   0    1.72    0.11
  -3  -4   0    0.03    0.04
  -3  -4   0    0.01    0.04
  -3  -4   0    0.03    0.02
  -3  -4   0    0.04    0.03
   3   4   0    0.01    0.04
   3   4   0   -0.04    0.04
   3   4   0    0.03    0.04
  -4  -4   0    6.89    0.20
  -4  -4   0    7.33    0.25
  -4  -4   0    7.09    0.26
  -4  -4   0    6.85    0.23
   4   4   0    6.49    0.24
   4   4   0    6.51    0.25
   4   4   0    6.44    0.26
  -5  -4   0   10.27    0.32
  -5  -4   0   10.07    0.34
  -5  -4   0   10.20    0.33
   5   4   0    9.30    0.33
   5   4   0    9.70    0.31
   5   4   0    9.05    0.31
  -6  -4   0    1.29    0.14
  -6  -4   0    1.23    0.13
  -6  -4   0    1.48    0.14
   6   4   0    1.06    0.13
   6   4   0    1.31    0.13
   6   4   0    1.24    0.13
  -7  -4   0    4.94    0.26
  -7  -4   0    5.05    0.25
  -7  -4   0    5.46    0.25
  -7  -4   0    5.00    0.23
   7   4   0    5.24    0.24
   7   4   0    4.84    0.22
   7   4   0    5.04    0.25
  -8  -4   0   -0.04    0.07
  -8  -4   0   -0.03    0.06
  -9  -4   0    0.36    0.11
  -9  -4   0    0.45    0.11
 -10   5   0    4.38    0.30
  -9   5   0    2.59    0.22
  -8   5   0   10.95    0.44
  -7   5   0    0.86    0.21
  -7   5   0    0.57    0.11
   6  -5   0    2.39    0.11
  -6   5   0    2.42    0.10
  -6   5   0    2.57    0.18
  -6   5   0    2.57    0.13
  -6   5   0    2.24    0.10
  -6   5   0    2.34    0.26
   5  -5   0   18.24    0.45
   5  -5   0   19.06    0.42
  -5   5   0   18.61    0.49
  -5   5   0   17.60    0.41
  -5   5   0   18.72    0.42
  -5   5   0   18.35    0.48
  -5   5   0   17.89    0.83
  -5   5   0   18.57    0.41
  -5   5   0   18.88    0.53
   4  -5   0   36.18    0.74
  -4   5   0   36.09    0.74
  -4   5   0   37.08    0.79
  -4   5   0   36.24    0.85
  -4   5   0   38.69    0.85
  -4   5   0   34.75    1.36
  -4   5   0   36.61    0.85
  -4   5   0   37.08    0.75
   3  -5   0   16.99    0.44
   3  -5   0   15.67    0.45
   3  -5   0   16.30    0.39
  -3   5   0   16.65    0.40
  -3   5   0   15.73    0.43
  -3   5   0   15.87    0.39
  -3   5   0   16.61    0.45
  -3   5   0   16.44    0.39
  -3   5   0   15.67    0.72
  -3   5   0   17.00    0.46
   2  -5   0   57.25    1.12
   2  -5   0   54.67    1.07
   2  -5   0   55.15    1.22
   2  -5   0   55.11    1.06
  -2   5   0   51.74    1.12
  -2   5   0   51.86    1.87
  -2   5   0   54.10    1.09
  -2   5   0   53.84    1.07
  -2   5   0   54.89    1.16
  -2   5   0   55.55    1.07
  -2   5   0   55.54    1.03
   1  -5   0    6.31    0.22
   1  -5   0    6.25    0.22
   1  -5   0    6.35    0.22
  -1   5   0    6.39    0.20
  -1   5   0    6.57    0.22
  -1   5   0    6.21    0.22
  -1   5   0    6.33    0.21
  -1   5   0    6.41    0.19
  -1   5   0    6.31    0.38
   0  -5   0    0.05    0.03
   0  -5   0    0.12    0.05
   0  -5   0    0.09    0.04
   0   5   0    0.20    0.05
   0   5   0    0.15    0.05
   0   5   0    0.07    0.05
  -1  -5   0    4.23    0.19
  -1  -5   0    4.23    0.18
  -1  -5   0    4.11    0.17
   1   5   0    4.50    0.19
   1   5   0    4.37    0.19
   1   5   0    4.25    0.18
  -2  -5   0    5.69    0.22
  -2  -5   0    5.70    0.14
  -2  -5   0    5.38    0.22
  -2  -5   0    5.47    0.20
   2   5   0    5.89    0.15
   2   5   0    5.51    0.22
   2   5   0    5.59    0.23
   2   5   0    5.82    0.22
  -3  -5   0   38.06    0.84
  -3  -5   0   38.59    0.81
  -3  -5   0   37.55    0.72
  -3  -5   0   37.93    0.83
   3   5   0   37.26    0.84
   3   5   0   37.55    0.81
   3   5   0   37.05    0.86
  -4  -5   0    2.71    0.10
  -4  -5   0    2.33    0.16
  -4  -5   0    2.46    0.14
  -4  -5   0    2.37    0.15
   4   5   0    2.15    0.15
   4   5   0    2.14    0.16
   4   5   0    2.09    0.16
  -5  -5   0    2.87    0.18
  -5  -5   0    2.67    0.18
  -5  -5   0    2.98    0.18
   5   5   0    2.79    0.18
   5   5   0    2.49    0.16
   5   5   0    2.79    0.18
  -6  -5   0    3.76    0.21
  -6  -5   0    3.58    0.21
  -6  -5   0    4.27    0.24
   6   5   0    3.75    0.21
   6   5   0    3.74    0.20
   6   5   0    3.30    0.21
  -7  -5   0    0.23    0.09
  -7  -5   0    0.30    0.09
  -7  -5   0    0.21    0.09
   7   5   0    0.20    0.08
   7   5   0    0.38    0.09
   7   5   0    0.13    0.08
  -8  -5   0    2.39    0.21
  -8  -5   0    2.92    0.21
 -10   6   0    0.12    0.10
  -9   6   0    0.94    0.17
  -8   6   0   10.99    0.45
  -8   6   0   10.87    0.68
  -7   6   0    3.02    0.32
  -7   6   0    3.16    0.21
   6  -6   0    0.69    0.08
  -6   6   0    0.92    0.13
  -6   6   0    0.84    0.08
  -6   6   0    0.68    0.20
  -6   6   0    0.70    0.07
  -6   6   0    0.79    0.11
  -6   6   0    0.76    0.09
   5  -6   0    1.03    0.10
  -5   6   0    1.00    0.11
  -5   6   0    1.00    0.22
  -5   6   0    0.87    0.09
  -5   6   0    0.97    0.09
  -5   6   0    0.96    0.11
  -5   6   0    1.07    0.09
  -5   6   0    0.93    0.12
   4  -6   0    0.29    0.07
   4  -6   0    0.26    0.06
   4  -6   0    0.25    0.06
  -4   6   0    0.43    0.09
  -4   6   0    0.20    0.05
  -4   6   0    0.37    0.15
  -4   6   0    0.15    0.05
  -4   6   0    0.16    0.06
  -4   6   0    0.32    0.06
  -4   6   0    0.37    0.08
  -4   6   0    0.20    0.05
   3  -6   0   79.69    1.55
   3  -6   0   83.90    1.65
   3  -6   0   80.43    1.56
  -3   6   0   82.86    1.58
  -3   6   0   86.20    1.60
  -3   6   0   84.60    1.57
  -3   6   0   80.20    1.69
  -3   6   0   76.69    1.66
  -3   6   0   83.82    1.51
  -3   6   0   78.96    2.75
   2  -6   0   12.77    0.35
   2  -6   0   11.75    0.35
   2  -6   0   12.30    0.37
  -2   6   0   11.82    0.34
  -2   6   0   12.08    0.63
  -2   6   0   12.52    0.34
  -2   6   0   12.72    0.35
  -2   6   0   12.00    0.35
  -2   6   0   12.50    0.39
  -2   6   0   12.65    0.33
   1  -6   0   12.66    0.36
   1  -6   0   12.46    0.36
   1  -6   0   12.78    0.36
  -1   6   0   12.79    0.36
  -1   6   0   12.71    0.37
  -1   6   0   12.53    0.33
  -1   6   0   12.41    0.35
  -1   6   0   13.02    0.33
  -1   6   0   12.20    0.63
   0  -6   0    1.11    0.12
   0  -6   0    0.97    0.11
   0  -6   0    1.10    0.10
   0   6   0    1.08    0.12
   0   6   0    1.10    0.12
   0   6   0    1.11    0.07
   0   6   0    1.21    0.11
  -1  -6   0   21.78    0.56
  -1  -6   0   22.54    0.56
  -1  -6   0   22.69    0.54
   1   6   0   22.67    0.55
   1   6   0   22.81    0.58
   1   6   0   22.34    0.57
  -2  -6   0   21.36    0.56
  -2  -6   0   21.65    0.52
  -2  -6   0   21.63    0.41
  -2  -6   0   21.40    0.55
   2   6   0   20.31    0.55
   2   6   0   19.96    0.56
   2   6   0   21.45    0.54
  -3  -6   0    2.18    0.16
  -3  -6   0    2.28    0.16
  -3  -6   0    2.60    0.14
   3   6   0    1.88    0.15
   3   6   0    1.97    0.15
   3   6   0    2.06    0.16
  -4  -6   0    4.81    0.21
  -4  -6   0    4.37    0.23
  -4  -6   0    4.70    0.24
   4   6   0    4.95    0.25
   4   6   0    4.46    0.24
   4   6   0    4.73    0.23
  -5  -6   0    0.25    0.07
  -5  -6   0    0.46    0.10
  -5  -6   0    0.34    0.10
  -5  -6   0    0.36    0.09
   5   6   0    0.56    0.12
   5   6   0    0.38    0.10
   5   6   0    0.39    0.09
  -6  -6   0    3.54    0.23
  -6  -6   0    4.17    0.24
  -6  -6   0    3.96    0.24
   6   6   0    3.76    0.24
   6   6   0    3.45    0.22
   6   6   0    3.93    0.24
  -7  -6   0   -0.05    0.06
  -7  -6   0    0.00    0.07
  -7  -6   0    0.08    0.08
   7   6   0    0.05    0.08
   7   6   0    0.01    0.07
   7   6   0    0.03    0.07
  -8  -6   0    0.06    0.08
  -8  -6   0   -0.02    0.07
  -9   7   0   -0.06    0.07
  -8   7   0    0.91    0.16
  -8   7   0    0.78    0.24
  -7   7   0   15.60    0.54
  -7   7   0   15.32    0.84
   6  -7   0    3.16    0.15
   6  -7   0    3.16    0.16
   6  -7   0    3.56    0.22
  -6   7   0    3.07    0.15
  -6   7   0    3.12    0.15
  -6   7   0    2.74    0.18
  -6   7   0    2.81    0.20
  -6   7   0    3.41    0.35
   5  -7   0   22.27    0.54
   5  -7   0   23.03    0.54
   5  -7   0   22.89    0.63
  -5   7   0   23.46    0.54
  -5   7   0   22.11    1.04
  -5   7   0   22.42    0.54
  -5   7   0   20.77    0.62
  -5   7   0   22.19    0.57
  -5   7   0   23.12    0.52
   4  -7   0    0.02    0.05
   4  -7   0    0.00    0.05
   4  -7   0    0.06    0.05
  -4   7   0    0.02    0.04
  -4   7   0   -0.03    0.04
  -4   7   0   -0.01    0.04
  -4   7   0   -0.03    0.09
  -4   7   0    0.05    0.05
  -4   7   0    0.08    0.06
  -4   7   0    0.02    0.04
   3  -7   0    0.32    0.08
   3  -7   0    0.61    0.09
   3  -7   0    0.41    0.08
  -3   7   0    0.44    0.07
  -3   7   0    0.49    0.08
  -3   7   0    0.54    0.10
  -3   7   0    0.26    0.06
  -3   7   0    0.42    0.08
  -3   7   0    0.50    0.08
  -3   7   0    0.51    0.18
   2  -7   0    7.26    0.27
   2  -7   0    7.39    0.28
   2  -7   0    7.42    0.27
  -2   7   0    7.28    0.28
  -2   7   0    7.69    0.27
  -2   7   0    7.70    0.25
  -2   7   0    7.53    0.27
  -2   7   0    7.21    0.25
  -2   7   0    7.08    0.49
  -2   7   0    7.45    0.30
   1  -7   0    4.08    0.20
   1  -7   0    4.14    0.20
   1  -7   0    3.78    0.19
  -1   7   0    3.82    0.35
  -1   7   0    4.33    0.16
  -1   7   0    3.85    0.20
  -1   7   0    4.23    0.20
  -1   7   0    4.01    0.20
  -1   7   0    4.21    0.17
   0  -7   0   25.94    0.66
   0  -7   0   26.29    0.64
   0  -7   0   26.88    0.67
   0   7   0   27.25    0.68
   0   7   0   27.14    0.59
   0   7   0   27.84    0.65
   0   7   0   26.75    0.67
  -1  -7   0    0.17    0.07
  -1  -7   0    0.08    0.05
  -1  -7   0    0.02    0.05
   1   7   0    0.07    0.05
   1   7   0    0.03    0.05
   1   7   0    0.04    0.05
  -2  -7   0    2.72    0.16
  -2  -7   0    2.46    0.17
  -2  -7   0    2.78    0.19
   2   7   0    2.84    0.18
   2   7   0    2.57    0.18
   2   7   0    2.84    0.18
  -3  -7   0    2.14    0.17
  -3  -7   0    2.23    0.17
  -3  -7   0    1.94    0.14
   3   7   0    2.08    0.17
   3   7   0    1.83    0.17
   3   7   0    1.62    0.17
  -4  -7   0    0.66    0.10
  -4  -7   0    0.65    0.13
  -4  -7   0    0.78    0.13
   4   7   0    0.62    0.12
   4   7   0    0.81    0.13
   4   7   0    0.50    0.11
  -5  -7   0    4.28    0.25
  -5  -7   0    4.13    0.25
  -5  -7   0    4.14    0.25
   5   7   0    4.15    0.24
   5   7   0    3.49    0.23
   5   7   0    4.12    0.26
  -6  -7   0    0.11    0.09
  -6  -7   0   -0.01    0.07
  -6  -7   0    0.08    0.09
   6   7   0    0.04    0.07
   6   7   0   -0.03    0.07
   6   7   0    0.08    0.09
  -7  -7   0    0.19    0.10
  -7  -7   0    0.11    0.08
  -7  -7   0    0.26    0.10
   7   7   0    0.12    0.10
   7   7   0    0.16    0.09
   7   7   0    0.00    0.09
   9  -8   0    2.21    0.25
  -9   8   0    2.28    0.41
  -9   8   0    3.05    0.25
   8  -8   0   -0.09    0.06
  -8   8   0   -0.02    0.13
  -8   8   0   -0.06    0.07
   7  -8   0   -0.01    0.07
  -7   8   0    0.07    0.08
  -7   8   0    0.04    0.13
   6  -8   0    1.79    0.14
   6  -8   0    2.37    0.19
   6  -8   0    2.40    0.15
  -6   8   0    2.26    0.31
  -6   8   0    2.07    0.16
  -6   8   0    2.06    0.18
   5  -8   0    5.94    0.24
   5  -8   0    5.55    0.24
   5  -8   0    6.14    0.30
  -5   8   0    6.08    0.28
  -5   8   0    6.44    0.31
  -5   8   0    6.19    0.24
  -5   8   0    6.12    0.25
  -5   8   0    6.87    0.52
  -5   8   0    5.96    0.24
  -5   8   0    6.37    0.24
   4  -8   0   24.42    0.67
   4  -8   0   23.41    0.60
   4  -8   0   24.09    0.60
  -4   8   0   25.02    0.61
  -4   8   0   24.15    0.59
  -4   8   0   23.60    0.64
  -4   8   0   24.62    0.61
  -4   8   0   23.33    1.11
  -4   8   0   23.68    0.58
  -4   8   0   23.45    0.68
   3  -8   0    1.93    0.15
   3  -8   0    2.18    0.16
   3  -8   0    2.17    0.16
  -3   8   0    2.11    0.15
  -3   8   0    1.94    0.14
  -3   8   0    1.92    0.14
  -3   8   0    2.11    0.14
  -3   8   0    1.94    0.33
  -3   8   0    1.98    0.17
  -3   8   0    1.88    0.14
   2  -8   0    0.95    0.12
   2  -8   0    0.96    0.13
   2  -8   0    0.99    0.13
  -2   8   0    1.00    0.13
  -2   8   0    1.00    0.11
  -2   8   0    1.04    0.24
  -2   8   0    1.14    0.13
  -2   8   0    1.14    0.11
  -2   8   0    0.85    0.13
  -2   8   0    1.20    0.13
   1  -8   0    0.57    0.10
   1  -8   0    0.53    0.10
   1  -8   0    0.71    0.12
  -1   8   0    0.50    0.19
  -1   8   0    0.50    0.11
  -1   8   0    0.63    0.07
  -1   8   0    0.62    0.10
  -1   8   0    0.62    0.11
  -1   8   0    0.68    0.11
  -1   8   0    0.55    0.08
   0  -8   0    0.06    0.07
   0  -8   0    0.13    0.06
   0  -8   0    0.04    0.06
   0   8   0    0.06    0.06
   0   8   0   -0.02    0.05
   0   8   0   -0.04    0.06
  -1  -8   0    9.37    0.33
  -1  -8   0    9.82    0.38
  -1  -8   0    9.76    0.37
   1   8   0    9.40    0.37
   1   8   0   10.46    0.38
   1   8   0    9.56    0.36
  -2  -8   0    2.37    0.19
  -2  -8   0    2.76    0.17
  -2  -8   0    2.41    0.19
   2   8   0    2.44    0.19
   2   8   0    2.27    0.18
   2   8   0    2.46    0.20
  -3  -8   0    0.80    0.11
  -3  -8   0    0.78    0.13
  -3  -8   0    0.59    0.12
   3   8   0    0.81    0.14
   3   8   0    0.70    0.12
   3   8   0    0.72    0.13
  -4  -8   0    0.20    0.10
  -4  -8   0    0.16    0.09
   4   8   0    0.11    0.08
   4   8   0    0.14    0.09
   4   8   0    0.15    0.09
  -5  -8   0    0.16    0.10
  -5  -8   0    0.11    0.08
  -5  -8   0    0.08    0.09
   5   8   0    0.06    0.08
   5   8   0   -0.01    0.08
   5   8   0    0.07    0.09
  -6  -8   0    1.99    0.22
  -6  -8   0    3.17    0.24
  -6  -8   0    2.84    0.24
   6   8   0    2.72    0.27
   6   8   0    2.83    0.22
   6   8   0    2.48    0.25
  -9   9   0    0.86    0.28
   8  -9   0    2.14    0.24
  -8   9   0    2.12    0.24
  -8   9   0    2.30    0.41
   7  -9   0    0.20    0.10
  -7   9   0    0.27    0.19
  -7   9   0    0.38    0.10
  -7   9   0    0.44    0.12
   6  -9   0    0.10    0.07
   6  -9   0   -0.01    0.07
  -6   9   0    0.11    0.08
  -6   9   0    0.19    0.17
  -6   9   0    0.12    0.07
   5  -9   0    7.80    0.36
   5  -9   0    7.58    0.30
   5  -9   0    7.91    0.30
  -5   9   0    7.94    0.30
  -5   9   0    7.45    0.58
  -5   9   0    8.17    0.34
  -5   9   0    7.78    0.30
  -5   9   0    8.16    0.30
  -5   9   0    8.19    0.31
  -5   9   0    7.50    0.36
   4  -9   0    0.53    0.11
   4  -9   0    0.60    0.11
   4  -9   0    0.64    0.12
  -4   9   0    0.50    0.10
  -4   9   0    0.54    0.09
  -4   9   0    0.50    0.10
  -4   9   0    0.57    0.10
  -4   9   0    0.55    0.10
  -4   9   0    0.63    0.23
  -4   9   0    0.57    0.12
   3  -9   0    5.61    0.27
   3  -9   0    6.70    0.29
   3  -9   0    6.52    0.30
  -3   9   0    6.22    0.51
  -3   9   0    6.20    0.28
  -3   9   0    6.65    0.27
  -3   9   0    6.39    0.28
  -3   9   0    6.25    0.32
  -3   9   0    6.26    0.27
  -3   9   0    6.49    0.25
   2  -9   0    0.49    0.11
   2  -9   0    0.61    0.11
   2  -9   0    0.53    0.11
  -2   9   0    0.78    0.14
  -2   9   0    0.58    0.10
  -2   9   0    0.50    0.08
  -2   9   0    0.62    0.11
  -2   9   0    0.36    0.07
  -2   9   0    0.44    0.19
  -2   9   0    0.60    0.11
   1  -9   0    1.00    0.14
   1  -9   0    0.91    0.13
   1  -9   0    0.88    0.14
  -1   9   0    1.17    0.27
  -1   9   0    0.86    0.10
  -1   9   0    0.86    0.14
  -1   9   0    0.91    0.15
  -1   9   0    0.90    0.13
  -1   9   0    0.71    0.13
   0  -9   0    6.73    0.32
   0  -9   0    6.93    0.29
   0  -9   0    6.63    0.31
   0   9   0    6.89    0.32
   0   9   0    6.88    0.32
   0   9   0    6.87    0.31
   0   9   0    6.34    0.52
  -1  -9   0    0.89    0.14
  -1  -9   0    0.89    0.14
  -1  -9   0    0.89    0.13
   1   9   0    0.78    0.14
   1   9   0    0.97    0.14
   1   9   0    0.95    0.15
  -2  -9   0    1.60    0.19
  -2  -9   0    2.07    0.16
  -2  -9   0    1.56    0.19
   2   9   0    1.76    0.20
   2   9   0    1.85    0.19
   2   9   0    2.04    0.21
  -3  -9   0    0.44    0.12
  -3  -9   0    0.41    0.11
   3   9   0    0.29    0.11
   3   9   0    0.24    0.10
   3   9   0    0.35    0.12
  -4  -9   0    0.45    0.13
  -4  -9   0    0.29    0.12
   4   9   0    0.46    0.13
   4   9   0    0.64    0.13
   4   9   0    0.45    0.14
  -5  -9   0    0.78    0.16
  -5  -9   0    0.59    0.13
  -5  -9   0    0.38    0.13
   5   9   0    0.51    0.13
   5   9   0    0.44    0.14
  -8  10   0    1.28    0.35
  -8  10   0    1.39    0.20
   7 -10   0    6.40    0.35
  -7  10   0    5.97    0.57
  -7  10   0    5.23    0.32
   6 -10   0    0.04    0.08
  -6  10   0    0.10    0.08
  -6  10   0    0.10    0.18
   5 -10   0    1.28    0.16
   5 -10   0    1.69    0.17
   5 -10   0    1.72    0.20
  -5  10   0    1.27    0.19
  -5  10   0    1.60    0.18
  -5  10   0    1.92    0.38
  -5  10   0    1.71    0.17
  -5  10   0    1.64    0.16
   4 -10   0    5.00    0.28
   4 -10   0    4.73    0.26
   4 -10   0    4.66    0.25
  -4  10   0    5.12    0.25
  -4  10   0    4.92    0.25
  -4  10   0    4.87    0.26
  -4  10   0    4.84    0.49
  -4  10   0    4.70    0.30
  -4  10   0    5.17    0.27
   3 -10   0    2.44    0.19
   3 -10   0    2.45    0.20
   3 -10   0    2.55    0.20
  -3  10   0    2.19    0.23
  -3  10   0    2.18    0.20
  -3  10   0    2.70    0.20
  -3  10   0    2.36    0.34
  -3  10   0    2.24    0.19
   2 -10   0    0.34    0.10
   2 -10   0    0.37    0.11
   2 -10   0    0.30    0.10
  -2  10   0    0.28    0.10
  -2  10   0    0.48    0.22
  -2  10   0    0.35    0.11
  -2  10   0    0.24    0.08
  -2  10   0    0.27    0.10
   1 -10   0    0.05    0.08
   1 -10   0    0.09    0.08
   1 -10   0    0.10    0.08
  -1  10   0    0.06    0.08
  -1  10   0    0.10    0.08
  -1  10   0    0.11    0.07
  -1  10   0    0.32    0.16
  -1  10   0    0.08    0.09
   0 -10   0    6.35    0.33
   0 -10   0    6.06    0.32
   0 -10   0    6.30    0.29
   0  10   0    6.00    0.34
   0  10   0    5.73    0.32
   0  10   0    5.67    0.30
   0  10   0    6.01    0.32
   0  10   0    6.43    0.54
  -1 -10   0    2.40    0.24
  -1 -10   0    2.79    0.23
   1  10   0    2.31    0.24
   1  10   0    2.44    0.24
   1  10   0    2.72    0.21
  -2 -10   0    0.71    0.14
  -2 -10   0    0.43    0.12
   2  10   0    0.27    0.12
   2  10   0    0.44    0.13
   2  10   0    0.72    0.15
  -3 -10   0    0.49    0.14
  -3 -10   0    0.25    0.12
   3  10   0    0.37    0.13
   3  10   0    0.20    0.11
  -7  11   0    0.01    0.09
   6 -11   0    4.14    0.29
  -6  11   0    3.60    0.47
   5 -11   0    1.56    0.21
   5 -11   0    1.47    0.17
   5 -11   0    1.48    0.18
  -5  11   0    1.41    0.21
  -5  11   0    1.68    0.18
  -5  11   0    1.63    0.38
   4 -11   0    0.06    0.08
   4 -11   0    0.05    0.07
   4 -11   0    0.00    0.08
  -4  11   0    0.11    0.08
  -4  11   0   -0.01    0.07
  -4  11   0    0.03    0.08
  -4  11   0   -0.05    0.16
  -4  11   0   -0.04    0.08
   3 -11   0    1.09    0.17
   3 -11   0    1.21    0.17
   3 -11   0    1.15    0.17
  -3  11   0    0.93    0.18
  -3  11   0    1.24    0.17
  -3  11   0    1.39    0.36
  -3  11   0    1.29    0.17
  -3  11   0    1.37    0.18
   2 -11   0    0.22    0.09
   2 -11   0   -0.02    0.08
   2 -11   0    0.08    0.09
  -2  11   0    0.00    0.09
  -2  11   0    0.17    0.09
  -2  11   0    0.19    0.19
  -2  11   0    0.04    0.09
  -2  11   0    0.23    0.11
   1 -11   0    1.52    0.18
   1 -11   0    1.32    0.19
   1 -11   0    1.27    0.19
  -1  11   0    1.46    0.19
  -1  11   0    1.57    0.20
  -1  11   0    1.91    0.36
  -1  11   0    1.19    0.18
  -1  11   0    1.23    0.20
   0 -11   0    2.87    0.24
   0 -11   0    2.55    0.26
   0  11   0    3.18    0.26
   0  11   0    3.08    0.24
   0  11   0    2.68    0.28
   0  11   0    3.32    0.24
   0  11   0    3.48    0.40
  -1 -11   0    0.01    0.09
  -1 -11   0   -0.02    0.08
   1  11   0    0.13    0.10
   1  11   0    0.07    0.11
   1  11   0    0.48    0.18
   5 -12   0    0.35    0.12
   4 -12   0    1.80    0.21
   4 -12   0    1.84    0.22
   4 -12   0    2.13    0.23
  -4  12   0    1.80    0.20
  -4  12   0    1.73    0.20
  -4  12   0    1.88    0.22
   3 -12   0    0.80    0.16
   3 -12   0    0.75    0.16
   3 -12   0    1.11    0.18
  -3  12   0    0.91    0.17
  -3  12   0    1.11    0.17
  -3  12   0    0.70    0.14
   2 -12   0    0.93    0.17
   2 -12   0    0.98    0.18
   2 -12   0    1.04    0.17
  -2  12   0    0.93    0.17
  -2  12   0    0.66    0.15
  -1  12  -1    0.27    0.11
  -2  12  -1    0.07    0.09
  -2  12  -1    0.08    0.10
   2 -12   1   -0.01    0.09
   2 -12   1    0.10    0.10
  -3  12  -1    4.07    0.28
  -3  12  -1    4.02    0.27
  -3  12  -1    3.24    0.24
   3 -12   1    3.33    0.26
   3 -12   1    3.70    0.26
   3 -12   1    3.01    0.25
  -4  12  -1    0.77    0.15
  -4  12  -1    1.02    0.15
  -4  12  -1    0.74    0.15
   4 -12   1    0.70    0.15
   4 -12   1    0.88    0.16
   4 -12   1    0.80    0.16
   5 -12   1    0.13    0.10
   5 -12   1   -0.02    0.09
   2  11  -1    0.72    0.21
   1  11  -1    0.67    0.14
   1  11  -1    0.67    0.15
   1  11  -1    0.66    0.16
   1  11  -1    1.23    0.29
  -1 -11   1    0.77    0.16
  -1 -11   1    0.72    0.16
   0  11  -1    0.08    0.10
   0  11  -1    0.04    0.09
   0  11  -1    0.19    0.10
   0  11  -1    0.32    0.11
   0  11  -1    0.63    0.21
   0 -11   1    0.14    0.10
   0 -11   1    0.05    0.09
  -1  11  -1    0.37    0.12
  -1  11  -1    0.30    0.12
  -1  11  -1    0.75    0.23
  -1  11  -1    0.54    0.12
  -1  11  -1    0.08    0.09
   1 -11   1    0.19    0.10
   1 -11   1    0.34    0.10
   1 -11   1    0.28    0.11
  -2  11  -1    5.65    0.32
  -2  11  -1    6.42    0.33
  -2  11  -1    6.24    0.36
  -2  11  -1    7.03    0.57
  -2  11  -1    6.75    0.33
   2 -11   1    6.86    0.34
   2 -11   1    5.80    0.30
   2 -11   1    5.82    0.32
  -3  11  -1   -0.03    0.07
  -3  11  -1    0.00    0.17
  -3  11  -1   -0.09    0.06
  -3  11  -1   -0.06    0.06
  -3  11  -1   -0.04    0.08
   3 -11   1   -0.01    0.07
   3 -11   1    0.00    0.08
   3 -11   1    0.02    0.08
  -4  11  -1    1.07    0.16
  -4  11  -1    0.93    0.17
  -4  11  -1    1.11    0.15
  -4  11  -1    0.71    0.14
  -4  11  -1    1.27    0.34
   4 -11   1    1.13    0.17
   4 -11   1    1.03    0.16
   4 -11   1    0.88    0.15
  -5  11  -1    0.08    0.07
  -5  11  -1    0.06    0.19
  -5  11  -1    0.26    0.12
  -5  11  -1    0.19    0.10
   5 -11   1    0.18    0.10
   5 -11   1    0.28    0.10
   5 -11   1    0.29    0.12
  -6  11  -1    0.10    0.18
  -6  11  -1    0.12    0.09
   6 -11   1   -0.03    0.08
  -7  11  -1    2.38    0.25
   3  10  -1    0.33    0.13
   3  10  -1    0.20    0.11
   3  10  -1    0.36    0.12
  -3 -10   1    0.22    0.11
  -3 -10   1    0.31    0.12
   2  10  -1    1.47    0.19
   2  10  -1    1.74    0.21
   2  10  -1    1.76    0.21
  -2 -10   1    1.93    0.22
  -2 -10   1    1.87    0.22
   1  10  -1    0.19    0.10
   1  10  -1    0.12    0.09
   1  10  -1    0.26    0.10
   1  10  -1    0.42    0.18
  -1 -10   1    0.29    0.11
  -1 -10   1   -0.03    0.07
   0  10  -1    2.42    0.32
   0  10  -1    1.65    0.18
   0  10  -1    1.58    0.19
   0  10  -1    1.84    0.21
   0 -10   1    2.10    0.17
   0 -10   1    1.95    0.21
   0 -10   1    1.87    0.20
  -1  10  -1    0.06    0.08
  -1  10  -1    0.05    0.07
  -1  10  -1    0.01    0.06
  -1  10  -1    0.11    0.09
  -1  10  -1    0.31    0.16
   1 -10   1    0.03    0.06
   1 -10   1    0.04    0.08
   1 -10   1    0.11    0.08
  -2  10  -1    0.10    0.08
  -2  10  -1    0.25    0.10
  -2  10  -1    0.15    0.15
  -2  10  -1    0.14    0.08
  -2  10  -1    0.21    0.08
   2 -10   1    0.17    0.09
   2 -10   1    0.03    0.08
   2 -10   1    0.29    0.09
  -3  10  -1    3.38    0.23
  -3  10  -1    3.46    0.25
  -3  10  -1    4.47    0.25
  -3  10  -1    4.18    0.22
  -3  10  -1    3.49    0.41
  -3  10  -1    4.40    0.24
   3 -10   1    3.84    0.24
   3 -10   1    4.03    0.24
   3 -10   1    3.43    0.23
  -4  10  -1    2.81    0.37
  -4  10  -1    2.99    0.24
  -4  10  -1    3.13    0.21
  -4  10  -1    3.12    0.21
  -4  10  -1    2.83    0.20
  -4  10  -1    2.89    0.20
   4 -10   1    2.60    0.21
   4 -10   1    3.11    0.21
   4 -10   1    3.22    0.22
  -5  10  -1    3.32    0.21
  -5  10  -1    3.60    0.22
  -5  10  -1    3.49    0.21
  -5  10  -1    3.64    0.24
  -5  10  -1    3.22    0.25
  -5  10  -1    3.45    0.43
   5 -10   1    3.67    0.22
   5 -10   1    3.21    0.21
   5 -10   1    3.51    0.24
  -6  10  -1    0.31    0.10
  -6  10  -1    0.57    0.25
   6 -10   1    0.58    0.11
   6 -10   1    0.43    0.12
  -7  10  -1   -0.01    0.16
  -7  10  -1   -0.01    0.08
   7 -10   1   -0.02    0.08
  -8  10  -1    1.75    0.23
  -8  10  -1    1.40    0.37
   5   9  -1    0.35    0.13
   5   9  -1    0.43    0.13
   5   9  -1    0.69    0.14
  -5  -9   1    0.56    0.13
  -5  -9   1    0.42    0.13
   4   9  -1    0.53    0.14
   4   9  -1    0.76    0.14
   4   9  -1    0.61    0.14
  -4  -9   1    0.65    0.15
  -4  -9   1    0.72    0.14
   3   9  -1    3.46    0.24
   3   9  -1    3.22    0.25
   3   9  -1    3.22    0.24
  -3  -9   1    3.04    0.23
  -3  -9   1    3.37    0.24
   2   9  -1    1.37    0.17
   2   9  -1    1.02    0.15
   2   9  -1    0.98    0.16
  -2  -9   1    1.27    0.17
  -2  -9   1    1.06    0.16
   1   9  -1    1.35    0.17
   1   9  -1    1.43    0.17
   1   9  -1    1.45    0.16
  -1  -9   1    1.37    0.17
  -1  -9   1    1.40    0.14
  -1  -9   1    1.32    0.17
   0   9  -1    0.25    0.09
   0   9  -1    0.39    0.09
   0   9  -1    0.28    0.10
   0   9  -1    0.59    0.20
   0  -9   1    0.32    0.10
   0  -9   1    0.29    0.08
   0  -9   1    0.30    0.10
  -1   9  -1    6.11    0.50
  -1   9  -1    6.29    0.29
  -1   9  -1    6.19    0.32
  -1   9  -1    6.20    0.30
  -1   9  -1    6.35    0.29
   1  -9   1    6.36    0.30
   1  -9   1    6.42    0.30
   1  -9   1    6.59    0.27
  -2   9  -1    0.73    0.22
  -2   9  -1    0.68    0.13
  -2   9  -1    0.44    0.10
  -2   9  -1    0.75    0.12
  -2   9  -1    0.61    0.11
  -2   9  -1    0.74    0.10
   2  -9   1    0.73    0.11
   2  -9   1    0.49    0.11
   2  -9   1    0.54    0.11
  -3   9  -1    0.00    0.05
  -3   9  -1    0.00    0.05
  -3   9  -1   -0.06    0.12
  -3   9  -1    0.01    0.06
  -3   9  -1    0.00    0.06
  -3   9  -1    0.04    0.07
   3  -9   1    0.06    0.07
   3  -9   1    0.02    0.06
   3  -9   1    0.01    0.06
  -4   9  -1    9.53    0.36
  -4   9  -1    9.48    0.65
  -4   9  -1    9.27    0.40
  -4   9  -1    9.50    0.35
  -4   9  -1    9.86    0.34
  -4   9  -1    9.87    0.35
   4  -9   1   10.04    0.36
   4  -9   1   10.27    0.39
   4  -9   1    9.60    0.35
  -5   9  -1    4.92    0.48
  -5   9  -1    4.51    0.23
  -5   9  -1    5.25    0.29
  -5   9  -1    5.96    0.25
  -5   9  -1    5.09    0.27
  -5   9  -1    5.83    0.25
   5  -9   1    5.75    0.29
   5  -9   1    5.09    0.25
   5  -9   1    5.13    0.24
  -6   9  -1    9.69    0.70
  -6   9  -1   10.01    0.42
   6  -9   1   10.45    0.43
   6  -9   1   10.48    0.36
  -7   9  -1    2.19    0.41
  -7   9  -1    2.67    0.22
   7  -9   1    2.44    0.21
  -8   9  -1    0.13    0.10
  -8   9  -1    0.03    0.16
   8  -9   1    0.07    0.08
  -9   9  -1    0.01    0.15
   6   8  -1    0.16    0.10
   6   8  -1    0.17    0.09
   6   8  -1    0.01    0.08
  -6  -8   1    0.05    0.09
  -6  -8   1    0.09    0.09
  -6  -8   1   -0.06    0.07
   5   8  -1    1.71    0.21
   5   8  -1    1.74    0.20
   5   8  -1    1.62    0.19
  -5  -8   1    1.98    0.21
  -5  -8   1    1.20    0.17
   4   8  -1    3.02    0.23
   4   8  -1    2.99    0.23
   4   8  -1    3.14    0.22
  -4  -8   1    2.85    0.22
  -4  -8   1    2.99    0.22
   3   8  -1    1.13    0.16
   3   8  -1    1.30    0.17
   3   8  -1    1.36    0.16
  -3  -8   1    1.29    0.16
  -3  -8   1    1.23    0.16
   2   8  -1    0.52    0.11
   2   8  -1    0.64    0.11
   2   8  -1    0.69    0.13
  -2  -8   1    0.54    0.11
  -2  -8   1    0.45    0.11
  -2  -8   1    0.68    0.10
   1   8  -1    0.14    0.07
   1   8  -1    0.32    0.08
   1   8  -1    0.22    0.09
  -1  -8   1    0.21    0.08
  -1  -8   1    0.26    0.07
  -1  -8   1    0.23    0.08
   0   8  -1   14.22    0.37
   0   8  -1   14.60    0.44
   0   8  -1   14.19    0.46
   0   8  -1   14.79    0.46
   0   8  -1   13.54    0.76
   0  -8   1   14.40    0.46
   0  -8   1   14.01    0.45
   0  -8   1   14.95    0.42
  -1   8  -1    9.42    0.35
  -1   8  -1   10.01    0.28
  -1   8  -1    9.10    0.59
  -1   8  -1   10.31    0.36
  -1   8  -1    9.51    0.30
  -1   8  -1    9.42    0.34
   1  -8   1   10.14    0.34
   1  -8   1   10.36    0.36
   1  -8   1   10.08    0.36
  -2   8  -1   18.05    0.50
  -2   8  -1   16.80    0.87
  -2   8  -1   17.17    0.42
  -2   8  -1   16.64    0.47
  -2   8  -1   17.74    0.55
  -2   8  -1   17.47    0.48
  -2   8  -1   17.85    0.50
   2  -8   1   16.90    0.49
   2  -8   1   17.40    0.50
   2  -8   1   16.76    0.49
  -3   8  -1    0.02    0.06
  -3   8  -1    0.05    0.06
  -3   8  -1    0.01    0.04
  -3   8  -1    0.04    0.05
  -3   8  -1    0.11    0.14
  -3   8  -1    0.12    0.05
  -3   8  -1    0.07    0.06
   3  -8   1    0.02    0.05
   3  -8   1    0.06    0.06
   3  -8   1    0.06    0.06
  -4   8  -1    0.00    0.06
  -4   8  -1    0.12    0.06
  -4   8  -1    0.20    0.07
  -4   8  -1    0.11    0.13
  -4   8  -1    0.13    0.07
  -4   8  -1    0.07    0.05
  -4   8  -1    0.03    0.06
   4  -8   1    0.13    0.06
   4  -8   1    0.05    0.07
   4  -8   1    0.07    0.06
  -5   8  -1    2.00    0.14
  -5   8  -1    1.88    0.16
  -5   8  -1    1.93    0.35
  -5   8  -1    1.92    0.20
  -5   8  -1    1.91    0.14
  -5   8  -1    1.81    0.13
  -5   8  -1    2.04    0.14
   5  -8   1    1.99    0.15
   5  -8   1    1.97    0.14
   5  -8   1    2.03    0.17
  -6   8  -1    4.08    0.41
  -6   8  -1    4.10    0.21
  -6   8  -1    4.17    0.19
  -6   8  -1    4.07    0.19
  -6   8  -1    3.98    0.25
   6  -8   1    4.29    0.20
   6  -8   1    4.15    0.20
   6  -8   1    3.80    0.24
  -7   8  -1    3.55    0.40
  -7   8  -1    3.36    0.24
  -8   8  -1    1.16    0.18
  -8   8  -1    0.89    0.27
  -9   8  -1    0.12    0.10
  -9   8  -1    0.13    0.17
   7   7  -1    0.44    0.11
   7   7  -1    0.76    0.14
   7   7  -1    0.49    0.13
  -7  -7   1    0.63    0.13
  -7  -7   1    0.62    0.13
   6   7  -1    2.78    0.21
   6   7  -1    2.85    0.21
   6   7  -1    2.60    0.22
  -6  -7   1    2.43    0.20
  -6  -7   1    2.49    0.20
  -6  -7   1    2.91    0.21
   5   7  -1    0.71    0.13
   5   7  -1    0.44    0.10
   5   7  -1    0.59    0.13
  -5  -7   1    0.82    0.14
  -5  -7   1    0.78    0.13
   4   7  -1    5.02    0.25
   4   7  -1    4.87    0.27
   4   7  -1    4.99    0.27
  -4  -7   1    5.06    0.26
  -4  -7   1    5.50    0.27
   3   7  -1    0.55    0.10
   3   7  -1    0.67    0.12
   3   7  -1    0.52    0.11
  -3  -7   1    0.65    0.09
  -3  -7   1    0.58    0.11
  -3  -7   1    0.67    0.12
   2   7  -1    7.96    0.32
   2   7  -1    9.09    0.35
   2   7  -1    8.22    0.31
  -2  -7   1    8.35    0.28
  -2  -7   1    8.43    0.32
  -2  -7   1    9.05    0.34
   1   7  -1    1.36    0.14
   1   7  -1    1.31    0.15
   1   7  -1    1.25    0.14
  -1  -7   1    1.17    0.13
  -1  -7   1    1.24    0.10
  -1  -7   1    1.28    0.14
   0   7  -1    6.76    0.27
   0   7  -1    6.92    0.28
   0   7  -1    6.75    0.26
   0  -7   1    6.59    0.27
   0  -7   1    6.66    0.27
   0  -7   1    6.79    0.25
  -1   7  -1   12.32    0.38
  -1   7  -1   12.07    0.34
  -1   7  -1   12.25    0.32
  -1   7  -1   11.68    0.38
  -1   7  -1   11.81    0.65
  -1   7  -1   12.44    0.36
   1  -7   1   11.84    0.37
   1  -7   1   12.84    0.37
   1  -7   1   12.35    0.38
  -2   7  -1   29.95    1.27
  -2   7  -1   31.57    0.67
  -2   7  -1   31.22    0.79
  -2   7  -1   32.42    0.74
  -2   7  -1   32.19    0.74
  -2   7  -1   32.97    0.71
  -2   7  -1   30.72    0.73
   2  -7   1   31.24    0.74
   2  -7   1   32.42    0.73
   2  -7   1   31.43    0.73
  -3   7  -1    9.28    0.31
  -3   7  -1    9.15    0.31
  -3   7  -1    8.95    0.56
  -3   7  -1    9.60    0.28
  -3   7  -1    9.57    0.35
  -3   7  -1    9.23    0.32
  -3   7  -1    9.28    0.35
   3  -7   1    9.72    0.33
   3  -7   1    9.27    0.31
  -4   7  -1   20.61    0.52
  -4   7  -1   20.26    0.96
  -4   7  -1   21.70    0.51
  -4   7  -1   21.91    0.60
  -4   7  -1   20.85    0.58
  -4   7  -1   21.43    0.52
  -4   7  -1   18.82    0.59
   4  -7   1   20.31    0.52
   4  -7   1   21.79    0.58
  -5   7  -1    1.88    0.13
  -5   7  -1    1.97    0.15
  -5   7  -1    2.12    0.14
  -5   7  -1    2.16    0.28
  -5   7  -1    2.00    0.13
  -5   7  -1    2.26    0.17
   5  -7   1    1.96    0.13
  -6   7  -1    0.20    0.06
  -6   7  -1    0.30    0.07
  -6   7  -1    0.18    0.08
  -6   7  -1    0.30    0.07
  -6   7  -1    0.37    0.17
   6  -7   1    0.40    0.07
  -7   7  -1    9.02    0.39
  -7   7  -1    8.86    0.62
  -8   7  -1    1.55    0.32
  -8   7  -1    1.45    0.19
  -9   7  -1    6.04    0.35
  -8  -6   1    0.45    0.11
  -8  -6   1    0.40    0.12
   7   6  -1    0.38    0.11
   7   6  -1    0.50    0.11
   7   6  -1    0.17    0.09
  -7  -6   1    0.24    0.09
  -7  -6   1    0.16    0.08
  -7  -6   1    0.53    0.12
   6   6  -1    5.04    0.27
   6   6  -1    4.85    0.25
   6   6  -1    4.27    0.24
  -6  -6   1    5.00    0.25
  -6  -6   1    4.86    0.25
  -6  -6   1    4.43    0.26
   5   6  -1    4.82    0.26
   5   6  -1    5.26    0.26
   5   6  -1    5.28    0.25
  -5  -6   1    5.47    0.27
  -5  -6   1    4.92    0.25
  -5  -6   1    5.53    0.27
   4   6  -1   -0.03    0.05
   4   6  -1    0.01    0.06
   4   6  -1    0.04    0.05
  -4  -6   1    0.01    0.05
  -4  -6   1    0.02    0.04
  -4  -6   1    0.02    0.06
   3   6  -1    0.04    0.06
   3   6  -1    0.03    0.05
   3   6  -1   -0.02    0.06
  -3  -6   1    0.18    0.07
  -3  -6   1    0.05    0.04
  -3  -6   1    0.06    0.06
   2   6  -1    0.22    0.07
   2   6  -1    0.26    0.07
   2   6  -1    0.18    0.06
  -2  -6   1    0.30    0.08
  -2  -6   1    0.36    0.04
  -2  -6   1    0.26    0.07
  -2  -6   1    0.32    0.06
   1   6  -1   25.61    0.60
   1   6  -1   25.62    0.62
   1   6  -1   26.12    0.64
  -1  -6   1   26.02    0.62
  -1  -6   1   25.04    0.58
  -1  -6   1   25.41    0.62
   0   6  -1   30.65    0.72
   0   6  -1   31.07    0.71
   0   6  -1   31.95    0.68
   0  -6   1   31.67    0.71
   0  -6   1   31.27    0.71
   0  -6   1   30.08    0.68
  -1   6  -1   23.24    0.57
  -1   6  -1   22.95    0.50
  -1   6  -1   23.93    0.56
  -1   6  -1   22.27    0.96
  -1   6  -1   23.30    0.54
   1  -6   1   23.18    0.55
   1  -6   1   22.83    0.55
   1  -6   1   23.84    0.56
  -2   6  -1    6.18    0.23
  -2   6  -1    6.68    0.24
  -2   6  -1    6.12    0.26
  -2   6  -1    6.34    0.23
  -2   6  -1    6.49    0.26
  -2   6  -1    6.65    0.20
  -2   6  -1    5.78    0.40
   2  -6   1    6.58    0.23
   2  -6   1    6.30    0.23
  -3   6  -1    1.67    0.12
  -3   6  -1    1.84    0.14
  -3   6  -1    1.66    0.22
  -3   6  -1    1.64    0.10
  -3   6  -1    1.88    0.14
  -3   6  -1    1.92    0.13
  -3   6  -1    1.56    0.11
  -3   6  -1    1.69    0.12
   3  -6   1    1.86    0.13
   3  -6   1    1.86    0.12
  -4   6  -1   49.59    1.15
  -4   6  -1   50.63    1.01
  -4   6  -1   49.74    1.11
  -4   6  -1   50.45    1.02
  -4   6  -1   46.99    1.80
  -4   6  -1   49.47    1.01
  -4   6  -1   50.76    1.00
  -4   6  -1   50.39    1.10
   4  -6   1   47.74    1.00
  -5   6  -1   53.58    1.08
  -5   6  -1   50.86    1.22
  -5   6  -1   55.37    1.23
  -5   6  -1   54.17    1.08
  -5   6  -1   54.61    1.13
  -5   6  -1   54.16    1.07
  -5   6  -1   53.17    1.97
   5  -6   1   54.83    1.07
  -6   6  -1    0.07    0.12
  -6   6  -1    0.11    0.07
  -6   6  -1    0.03    0.04
  -6   6  -1    0.11    0.06
  -6   6  -1    0.09    0.04
  -6   6  -1    0.04    0.04
   6  -6   1    0.07    0.04
  -7   6  -1    3.07    0.34
  -7   6  -1    3.04    0.22
  -8   6  -1    0.56    0.21
  -8   6  -1    0.48    0.12
  -9   6  -1    0.29    0.11
 -10   6  -1    5.16    0.34
  -8  -5   1    0.10    0.08
  -8  -5   1    0.15    0.09
   7   5  -1    0.91    0.13
   7   5  -1    0.86    0.13
   7   5  -1    0.86    0.12
  -7  -5   1    1.19    0.14
  -7  -5   1    0.98    0.13
  -7  -5   1    1.03    0.15
   6   5  -1    2.37    0.18
   6   5  -1    2.56    0.17
   6   5  -1    2.36    0.17
  -6  -5   1    2.53    0.19
  -6  -5   1    2.65    0.17
  -6  -5   1    1.95    0.16
   5   5  -1    4.42    0.22
   5   5  -1    4.24    0.22
   5   5  -1    4.67    0.21
  -5  -5   1    4.63    0.22
  -5  -5   1    4.65    0.17
  -5  -5   1    4.44    0.23
  -5  -5   1    4.28    0.22
   4   5  -1    0.11    0.06
   4   5  -1    0.08    0.05
   4   5  -1    0.09    0.06
  -4  -5   1    0.23    0.04
  -4  -5   1    0.06    0.06
  -4  -5   1    0.16    0.05
  -4  -5   1    0.23    0.07
   3   5  -1    1.06    0.13
   3   5  -1    1.06    0.11
   3   5  -1    0.93    0.11
  -3  -5   1    1.19    0.12
  -3  -5   1    1.18    0.09
  -3  -5   1    1.19    0.07
  -3  -5   1    0.92    0.11
   2   5  -1   55.55    1.13
   2   5  -1   54.91    1.15
   2   5  -1   54.50    1.09
  -2  -5   1   54.85    1.04
  -2  -5   1   56.58    1.12
  -2  -5   1   54.31    1.09
  -2  -5   1   55.51    1.13
   1   5  -1   66.94    1.28
   1   5  -1   64.33    1.23
   1   5  -1   63.62    1.30
  -1  -5   1   64.25    1.27
  -1  -5   1   63.54    1.25
  -1  -5   1   64.82    1.26
   0   5  -1    0.63    0.08
   0   5  -1    0.87    0.09
   0   5  -1    0.75    0.09
   0  -5   1    0.82    0.08
   0  -5   1    0.70    0.09
   0  -5   1    0.58    0.08
  -1   5  -1  104.57    2.02
  -1   5  -1  110.72    1.99
  -1   5  -1  106.91    1.96
  -1   5  -1  108.57    2.26
  -1   5  -1  102.54    3.42
   1  -5   1  104.64    2.25
   1  -5   1  105.18    2.02
   1  -5   1  111.31    1.99
  -2   5  -1   30.35    1.15
  -2   5  -1   30.16    0.66
  -2   5  -1   30.61    0.70
  -2   5  -1   29.73    0.65
  -2   5  -1   31.24    0.75
  -2   5  -1   30.76    0.62
  -2   5  -1   30.55    0.66
  -2   5  -1   29.11    0.68
   2  -5   1   30.50    0.65
   2  -5   1   29.98    0.67
   2  -5   1   30.57    0.75
  -3   5  -1    1.65    0.20
  -3   5  -1    1.57    0.10
  -3   5  -1    1.97    0.13
  -3   5  -1    1.84    0.10
  -3   5  -1    1.74    0.12
  -3   5  -1    1.68    0.10
  -3   5  -1    1.74    0.10
  -3   5  -1    1.89    0.12
   3  -5   1    1.75    0.12
   3  -5   1    1.56    0.10
  -4   5  -1    8.34    0.48
  -4   5  -1    8.36    0.26
  -4   5  -1    8.55    0.29
  -4   5  -1    8.14    0.24
  -4   5  -1    8.25    0.24
  -4   5  -1    8.63    0.29
  -4   5  -1    8.32    0.30
  -4   5  -1    8.08    0.24
   4  -5   1    9.16    0.25
  -5   5  -1    0.08    0.10
  -5   5  -1    0.02    0.05
  -5   5  -1    0.08    0.04
  -5   5  -1    0.04    0.03
  -5   5  -1    0.08    0.05
  -5   5  -1   -0.03    0.03
   5  -5   1    0.09    0.04
  -6   5  -1    0.98    0.21
  -6   5  -1    1.00    0.07
  -6   5  -1    1.17    0.08
  -6   5  -1    0.96    0.09
  -6   5  -1    0.99    0.08
  -6   5  -1    1.01    0.13
   6  -5   1    0.94    0.08
  -7   5  -1    4.37    0.25
  -7   5  -1    4.16    0.38
  -8   5  -1    4.29    0.26
  -9   5  -1    2.84    0.23
 -10   5  -1    0.10    0.09
  -9  -4   1    0.26    0.10
  -9  -4   1    0.24    0.09
  -8  -4   1    0.17    0.08
  -8  -4   1    0.20    0.08
   7   4  -1    1.08    0.14
   7   4  -1    1.04    0.12
   7   4  -1    1.00    0.12
  -7  -4   1    1.02    0.12
  -7  -4   1    1.08    0.13
  -7  -4   1    1.23    0.15
  -7  -4   1    1.16    0.13
   6   4  -1    6.61    0.27
   6   4  -1    6.66    0.26
   6   4  -1    7.07    0.26
  -6  -4   1    7.05    0.25
  -6  -4   1    7.29    0.26
  -6  -4   1    6.82    0.27
  -6  -4   1    6.77    0.29
   5   4  -1   11.03    0.33
   5   4  -1   10.99    0.34
   5   4  -1   11.34    0.36
  -5  -4   1   11.05    0.31
  -5  -4   1   11.39    0.34
  -5  -4   1   11.61    0.35
  -5  -4   1   11.59    0.38
   4   4  -1    7.63    0.25
   4   4  -1    7.48    0.27
   4   4  -1    7.69    0.27
  -4  -4   1    7.96    0.27
  -4  -4   1    7.48    0.24
  -4  -4   1    7.90    0.23
  -4  -4   1    8.08    0.27
   3   4  -1   20.77    0.51
   3   4  -1   19.84    0.47
   3   4  -1   20.19    0.49
  -3  -4   1   20.48    0.44
  -3  -4   1   20.91    0.46
  -3  -4   1   20.14    0.48
  -3  -4   1   20.05    0.49
   2   4  -1   93.67    1.75
   2   4  -1   94.32    1.79
   2   4  -1   91.82    1.68
  -2  -4   1   92.39    1.74
  -2  -4   1   94.37    1.73
  -2  -4   1   88.95    1.97
  -2  -4   1   93.62    1.75
  -2  -4   1   94.49    1.70
   1   4  -1   75.20    1.41
   1   4  -1   73.61    1.46
   1   4  -1   74.90    1.38
   1   4  -1   76.52    1.43
  -1  -4   1   75.26    1.42
  -1  -4   1   76.09    1.42
  -1  -4   1   74.08    1.43
  -1  -4   1   76.72    1.62
   0   4  -1   33.45    0.77
   0   4  -1   32.79    0.68
   0   4  -1   32.36    0.69
   0  -4   1   32.76    0.66
   0  -4   1   32.68    0.77
   0  -4   1   31.23    0.67
  -1   4  -1    0.76    0.07
  -1   4  -1    0.92    0.13
  -1   4  -1    0.93    0.07
  -1   4  -1    0.79    0.08
  -1   4  -1    0.91    0.05
  -1   4  -1    0.93    0.08
   1  -4   1    1.00    0.09
   1  -4   1    0.84    0.07
   1  -4   1    0.90    0.08
  -2   4  -1   18.26    0.43
  -2   4  -1   19.58    0.46
  -2   4  -1   18.20    0.42
  -2   4  -1   19.37    0.46
  -2   4  -1   18.39    0.42
  -2   4  -1   19.30    0.41
  -2   4  -1   19.44    0.49
  -2   4  -1   18.73    0.76
   2  -4   1   19.42    0.49
   2  -4   1   18.98    0.43
   2  -4   1   18.73    0.40
  -3   4  -1    2.23    0.12
  -3   4  -1    2.19    0.10
  -3   4  -1    2.19    0.10
  -3   4  -1    2.49    0.13
  -3   4  -1    2.37    0.11
  -3   4  -1    2.22    0.12
  -3   4  -1    2.19    0.21
  -3   4  -1    2.30    0.11
   3  -4   1    2.30    0.12
   3  -4   1    2.35    0.11
  -4   4  -1    8.99    0.24
  -4   4  -1    9.13    0.27
  -4   4  -1    8.83    0.24
  -4   4  -1    9.47    0.29
  -4   4  -1    9.33    0.24
  -4   4  -1    9.45    0.31
  -4   4  -1    8.62    0.47
   4  -4   1    9.51    0.26
   4  -4   1    9.25    0.24
  -5   4  -1   38.31    0.75
  -5   4  -1   37.75    0.74
  -5   4  -1   37.50    0.86
  -5   4  -1   36.76    1.40
  -5   4  -1   38.19    0.89
   5  -4   1   37.62    0.80
   5  -4   1   37.86    0.74
  -6   4  -1   15.28    0.35
  -6   4  -1   15.04    0.74
  -6   4  -1   14.95    0.35
  -6   4  -1   15.44    0.41
  -6   4  -1   15.30    0.48
   6  -4   1   15.30    0.35
   6  -4   1   15.63    0.38
  -7   4  -1    5.72    0.28
  -8   4  -1    0.16    0.08
  -9   4  -1   11.90    0.48
 -10   4  -1    0.49    0.13
  -9  -3   1    0.95    0.16
  -9  -3   1    0.62    0.12
  -8  -3   1    7.84    0.35
  -8  -3   1    7.22    0.31
   7   3  -1    3.94    0.20
   7   3  -1    3.77    0.17
   7   3  -1    3.88    0.19
  -7  -3   1    3.93    0.19
  -7  -3   1    3.92    0.22
  -7  -3   1    3.77    0.21
  -7  -3   1    3.90    0.18
   6   3  -1    4.29    0.20
   6   3  -1    4.27    0.18
   6   3  -1    4.12    0.19
  -6  -3   1    4.03    0.18
  -6  -3   1    4.35    0.19
  -6  -3   1    3.86    0.21
  -6  -3   1    4.56    0.19
   5   3  -1    2.43    0.14
   5   3  -1    2.29    0.13
   5   3  -1    2.32    0.13
  -5  -3   1    2.53    0.14
  -5  -3   1    2.42    0.13
  -5  -3   1    2.27    0.15
  -5  -3   1    2.55    0.14
   4   3  -1    3.88    0.17
   4   3  -1    3.91    0.17
   4   3  -1    4.13    0.16
  -4  -3   1    4.38    0.17
  -4  -3   1    4.18    0.16
  -4  -3   1    4.03    0.18
  -4  -3   1    4.29    0.16
  -4  -3   1    4.38    0.19
   3   3  -1    0.06    0.04
   3   3  -1    0.04    0.04
   3   3  -1    0.05    0.03
  -3  -3   1    0.04    0.03
  -3  -3   1    0.06    0.03
  -3  -3   1    0.10    0.04
  -3  -3   1    0.07    0.04
  -3  -3   1    0.04    0.03
   2   3  -1  172.01    3.11
   2   3  -1  169.42    3.04
   2   3  -1  172.14    2.94
   2   3  -1  169.22    3.08
  -2  -3   1  172.09    3.44
  -2  -3   1  164.57    3.04
  -2  -3   1  164.50    3.14
  -2  -3   1  171.90    3.02
  -2  -3   1  174.56    3.04
   1   3  -1   26.43    0.56
   1   3  -1   25.56    0.54
   1   3  -1   26.40    0.52
   1   3  -1   26.12    0.51
  -1  -3   1   25.50    0.53
  -1  -3   1   26.41    0.51
  -1  -3   1   24.83    0.60
  -1  -3   1   24.92    0.54
   0   3  -1   77.90    1.44
   0   3  -1   76.83    1.47
   0   3  -1   77.75    1.45
   0   3  -1   80.64    1.64
   0  -3   1   79.98    1.64
   0  -3   1   77.84    1.45
   0  -3   1   77.87    1.44
  -1   3  -1   17.43    0.67
  -1   3  -1   17.83    0.38
  -1   3  -1   17.83    0.36
  -1   3  -1   18.72    0.45
  -1   3  -1   17.74    0.38
  -1   3  -1   17.72    0.39
  -1   3  -1   17.80    0.39
   1  -3   1   17.27    0.38
   1  -3   1   17.75    0.38
   1  -3   1   17.90    0.39
   1  -3   1   18.64    0.44
  -2   3  -1   35.48    0.78
  -2   3  -1   34.93    0.68
  -2   3  -1   35.17    0.75
  -2   3  -1   34.35    0.69
  -2   3  -1   35.09    0.73
  -2   3  -1   35.54    0.69
  -2   3  -1   35.20    0.68
  -2   3  -1   35.71    1.22
  -2   3  -1   34.93    0.69
   2  -3   1   36.34    0.69
   2  -3   1   34.55    0.68
   2  -3   1   35.74    0.68
   2  -3   1   35.73    0.69
  -3   3  -1  181.00    3.42
  -3   3  -1  179.12    3.15
  -3   3  -1  176.85    3.15
  -3   3  -1  179.82    3.58
  -3   3  -1  174.48    5.49
  -3   3  -1  171.57    3.17
  -3   3  -1  173.36    3.23
   3  -3   1  183.39    3.36
   3  -3   1  180.34    3.15
   3  -3   1  176.71    3.15
   3  -3   1  184.02    3.17
  -4   3  -1   18.52    0.41
  -4   3  -1   19.65    0.40
  -4   3  -1   19.59    0.50
  -4   3  -1   18.39    0.40
  -4   3  -1   20.10    0.79
  -4   3  -1   19.84    0.47
   4  -3   1   19.14    0.44
   4  -3   1   19.38    0.40
   4  -3   1   19.48    0.41
   4  -3   1   19.46    0.41
  -5   3  -1   41.19    0.80
  -5   3  -1   41.31    0.79
  -5   3  -1   40.43    1.49
  -5   3  -1   41.62    0.76
  -5   3  -1   41.74    0.91
  -5   3  -1   42.53    0.79
  -5   3  -1   40.87    0.94
   5  -3   1   40.95    0.85
   5  -3   1   42.57    0.80
   5  -3   1   41.15    0.79
  -6   3  -1    5.30    0.16
  -6   3  -1    5.27    0.16
  -6   3  -1    5.50    0.19
  -6   3  -1    5.32    0.25
   6  -3   1    5.29    0.16
  -7   3  -1    1.97    0.16
  -8   3  -1    4.70    0.26
  -9   3  -1    3.86    0.26
 -10   3  -1    1.26    0.19
 -10  -2   1    0.04    0.09
 -10  -2   1    0.10    0.08
  -9  -2   1    0.02    0.06
  -9  -2   1    0.02    0.07
  -8  -2   1    0.10    0.07
  -8  -2   1    0.11    0.07
   7   2  -1    1.12    0.11
   7   2  -1    1.01    0.09
   7   2  -1    1.04    0.11
  -7  -2   1    0.81    0.12
  -7  -2   1    0.91    0.11
  -7  -2   1    1.05    0.10
  -7  -2   1    1.10    0.10
   6   2  -1   37.07    0.78
   6   2  -1   37.68    0.75
   6   2  -1   36.76    0.79
  -6  -2   1   37.37    0.82
  -6  -2   1   39.03    0.78
  -6  -2   1   38.05    0.76
  -6  -2   1   35.84    0.85
  -6  -2   1   37.62    0.80
   5   2  -1    0.88    0.08
   5   2  -1    0.99    0.08
   5   2  -1    0.87    0.08
  -5  -2   1    0.90    0.08
  -5  -2   1    1.05    0.08
  -5  -2   1    0.84    0.10
  -5  -2   1    0.86    0.09
  -5  -2   1    0.94    0.09
   4   2  -1    7.40    0.22
   4   2  -1    7.73    0.21
   4   2  -1    7.99    0.23
  -4  -2   1    7.70    0.22
  -4  -2   1    7.68    0.25
  -4  -2   1    8.06    0.23
  -4  -2   1    7.42    0.21
  -4  -2   1    8.37    0.26
   3   2  -1   18.45    0.40
   3   2  -1   19.03    0.42
   3   2  -1   17.93    0.39
   3   2  -1   18.04    0.41
  -3  -2   1   18.33    0.40
  -3  -2   1   19.15    0.40
  -3  -2   1   18.28    0.43
  -3  -2   1   18.72    0.41
  -3  -2   1   19.50    0.46
   2   2  -1    0.98    0.05
   2   2  -1    0.92    0.06
   2   2  -1    0.92    0.06
   2   2  -1    1.02    0.07
   2   2  -1    0.93    0.07
   2   2  -1    1.05    0.07
  -2  -2   1    0.89    0.06
  -2  -2   1    0.88    0.06
  -2  -2   1    0.90    0.07
  -2  -2   1    0.95    0.07
  -2  -2   1    0.92    0.06
  -2  -2   1    0.90    0.05
  -2  -2   1    1.02    0.06
   1   2  -1  966.84   19.65
   1   2  -1  984.25   17.73
   1   2  -1 1000.00   17.36
   1   2  -1  990.60   17.28
  -1  -2   1  960.24   17.43
  -1  -2   1  970.58   17.36
  -1  -2   1  980.73   17.68
  -1  -2   1  985.34   17.28
  -1  -2   1  991.96   19.63
   0   2  -1   75.56    1.36
   0   2  -1   75.35    1.54
   0   2  -1   72.74    1.38
   0   2  -1   76.21    1.36
   0   2  -1   74.34    1.36
   0  -2   1   74.60    1.37
   0  -2   1   76.32    1.37
   0  -2   1   76.57    1.36
   0  -2   1   75.51    1.54
   0  -2   1   74.18    1.35
  -1   2  -1   55.21    1.09
  -1   2  -1   56.49    1.18
  -1   2  -1   55.95    1.04
  -1   2  -1   55.52    1.03
  -1   2  -1   56.73    1.03
  -1   2  -1   57.85    1.03
  -1   2  -1   56.74    1.79
   1  -2   1   57.26    1.04
   1  -2   1   56.14    1.03
   1  -2   1   57.98    1.03
   1  -2   1   57.90    1.03
   1  -2   1   57.77    1.18
  -2   2  -1  165.38    3.31
  -2   2  -1  166.15    3.40
  -2   2  -1  169.30    3.11
  -2   2  -1  175.50    3.42
  -2   2  -1  170.18    3.08
  -2   2  -1  168.80    3.17
  -2   2  -1  171.20    5.35
  -2   2  -1  165.72    3.07
   2  -2   1  171.56    3.23
   2  -2   1  172.71    3.08
   2  -2   1  168.76    3.02
   2  -2   1  172.80    3.02
   2  -2   1  174.51    5.31
   2  -2   1  172.35    3.06
   2  -2   1  171.88    3.32
  -3   2  -1   57.71    1.18
  -3   2  -1   57.92    1.89
  -3   2  -1   59.30    1.13
  -3   2  -1   57.87    1.07
  -3   2  -1   56.98    1.06
  -3   2  -1   58.47    1.06
   3  -2   1   58.22    1.06
   3  -2   1   57.84    1.06
   3  -2   1   57.20    1.06
   3  -2   1   58.88    1.13
  -4   2  -1   42.16    0.78
  -4   2  -1   41.43    0.78
  -4   2  -1   39.83    0.83
  -4   2  -1   40.83    0.74
  -4   2  -1   41.50    0.78
  -4   2  -1   40.88    0.90
  -4   2  -1   41.31    0.77
   4  -2   1   41.36    0.77
   4  -2   1   42.09    0.84
   4  -2   1   41.54    0.78
   4  -2   1   41.36    0.77
  -5   2  -1   38.87    0.82
  -5   2  -1   36.73    0.75
  -5   2  -1   37.10    0.72
  -5   2  -1   37.55    0.73
  -5   2  -1   37.68    0.72
  -5   2  -1   38.31    0.86
  -5   2  -1   37.38    0.73
  -5   2  -1   37.77    0.78
   5  -2   1   37.36    0.72
   5  -2   1   38.79    0.73
   5  -2   1   37.85    0.72
  -6   2  -1   18.53    0.52
  -6   2  -1   18.79    0.49
  -6   2  -1   18.23    0.39
  -6   2  -1   17.73    0.43
  -6   2  -1   16.97    0.44
  -6   2  -1   18.33    0.39
   6  -2   1   18.16    0.39
  -7   2  -1    2.44    0.12
  -7   2  -1    2.03    0.10
  -7   2  -1    1.89    0.10
  -7   2  -1    1.99    0.14
  -7   2  -1    1.99    0.16
  -7   2  -1    1.87    0.14
   7  -2   1    2.17    0.10
  -8   2  -1    0.14    0.08
  -8   2  -1    0.19    0.07
  -9   2  -1    2.61    0.21
  -9   2  -1    2.75    0.18
 -10   2  -1    7.58    0.33
 -10   2  -1    7.97    0.39
 -11   2  -1    1.07    0.18
 -10  -1   1    1.32    0.18
 -10  -1   1    1.57    0.18
  -9  -1   1    0.56    0.12
  -9  -1   1    0.44    0.10
  -8  -1   1    2.81    0.20
  -8  -1   1    3.11    0.19
   7   1  -1   23.54    0.51
   7   1  -1   22.67    0.47
   7   1  -1   22.54    0.49
  -7  -1   1   21.73    0.49
  -7  -1   1   21.31    0.60
  -7  -1   1   21.55    0.60
  -7  -1   1   21.63    0.56
  -7  -1   1   23.23    0.53
   6   1  -1    2.00    0.10
   6   1  -1    1.99    0.10
   6   1  -1    1.82    0.09
  -6  -1   1    1.61    0.12
  -6  -1   1    1.72    0.13
  -6  -1   1    1.44    0.12
  -6  -1   1    1.98    0.10
  -6  -1   1    1.72    0.13
  -6  -1   1    1.90    0.10
   5   1  -1   36.02    0.71
   5   1  -1   36.31    0.68
   5   1  -1   36.57    0.73
  -5  -1   1   36.34    0.70
  -5  -1   1   36.14    0.81
  -5  -1   1   35.12    0.77
  -5  -1   1   35.20    0.79
  -5  -1   1   36.09    0.79
  -5  -1   1   36.95    0.71
  -5  -1   1   36.15    0.74
   4   1  -1    3.58    0.12
   4   1  -1    3.22    0.12
   4   1  -1    3.23    0.11
   4   1  -1    3.38    0.12
  -4  -1   1    3.26    0.11
  -4  -1   1    3.21    0.11
  -4  -1   1    3.15    0.11
  -4  -1   1    3.11    0.13
  -4  -1   1    3.07    0.14
  -4  -1   1    3.15    0.12
  -4  -1   1    3.26    0.14
  -4  -1   1    3.21    0.14
   3   1  -1   43.19    0.83
   3   1  -1   43.13    0.80
   3   1  -1   42.32    0.82
   3   1  -1   42.77    0.80
   3   1  -1   43.42    0.77
  -3  -1   1   42.70    0.88
  -3  -1   1   42.30    0.82
  -3  -1   1   42.35    0.79
  -3  -1   1   42.75    0.80
  -3  -1   1   42.01    0.80
  -3  -1   1   44.57    0.86
  -3  -1   1   42.96    0.84
  -3  -1   1   43.65    0.90
   2   1  -1    6.61    0.17
   2   1  -1    6.89    0.16
   2   1  -1    6.51    0.15
   2   1  -1    6.56    0.17
   2   1  -1    6.74    0.16
   2   1  -1    6.75    0.18
   2   1  -1    6.99    0.16
  -2  -1   1    6.71    0.16
  -2  -1   1    6.67    0.17
  -2  -1   1    7.02    0.18
  -2  -1   1    6.39    0.16
  -2  -1   1    6.64    0.16
  -2  -1   1    6.55    0.16
  -2  -1   1    6.82    0.17
   1   1  -1    3.48    0.09
   1   1  -1    3.36    0.09
   1   1  -1    2.86    0.10
   1   1  -1    3.55    0.09
   1   1  -1    3.39    0.09
   1   1  -1    3.45    0.08
  -1  -1   1    3.25    0.09
  -1  -1   1    3.39    0.09
  -1  -1   1    3.35    0.08
  -1  -1   1    3.38    0.09
  -1  -1   1    3.38    0.10
   0   1  -1  136.96    2.40
   0   1  -1  143.98    2.77
   0   1  -1  138.25    2.45
   0  -1   1  119.84    2.44
   0  -1   1  113.60    2.43
   0  -1   1  136.85    2.42
   0  -1   1  150.47    4.19
   0  -1   1  135.48    2.83
  -1   1  -1   -0.19    0.04
  -1   1  -1   -0.19    0.02
  -1   1  -1   -0.22    0.02
  -1   1  -1   -0.21    0.02
   1  -1   1   -0.21    0.02
   1  -1   1   -0.20    0.02
   1  -1   1   -0.10    0.05
   1  -1   1   -0.21    0.02
   1  -1   1   -0.16    0.02
  -2   1  -1  608.33   10.63
  -2   1  -1  593.65   10.44
  -2   1  -1  583.48   10.32
  -2   1  -1  577.22   10.32
  -2   1  -1  564.29   11.24
  -2   1  -1  587.39    9.86
  -2   1  -1  569.63   11.03
   2  -1   1  591.36   18.00
   2  -1   1  588.65   10.34
   2  -1   1  579.81   10.33
   2  -1   1  588.90   10.59
   2  -1   1  580.32    9.85
   2  -1   1  605.32   11.04
  -3   1  -1   10.21    0.28
  -3   1  -1    9.90    0.23
  -3   1  -1    9.87    0.23
  -3   1  -1   10.20    0.26
  -3   1  -1   10.13    0.25
  -3   1  -1   10.41    0.24
  -3   1  -1   10.08    0.22
  -3   1  -1   10.23    0.23
  -3   1  -1   10.35    0.23
   3  -1   1   10.17    0.23
   3  -1   1   10.09    0.23
   3  -1   1   10.77    0.23
  -4   1  -1   62.98    1.14
  -4   1  -1   63.70    1.11
  -4   1  -1   62.86    1.29
  -4   1  -1   63.43    1.18
  -4   1  -1   64.39    1.23
  -4   1  -1   61.80    1.16
  -4   1  -1   62.12    1.16
  -4   1  -1   62.22    1.24
  -4   1  -1   64.10    1.16
   4  -1   1   62.67    1.14
   4  -1   1   63.37    1.15
   4  -1   1   63.60    1.16
  -5   1  -1    0.12    0.04
  -5   1  -1    0.15    0.04
  -5   1  -1    0.07    0.04
  -5   1  -1    0.11    0.05
  -5   1  -1    0.07    0.02
  -5   1  -1    0.16    0.04
  -5   1  -1    0.16    0.05
   5  -1   1    0.18    0.04
  -6   1  -1   12.21    0.30
  -6   1  -1   12.65    0.38
  -6   1  -1   12.63    0.30
  -6   1  -1   12.52    0.33
  -6   1  -1   11.92    0.34
  -6   1  -1   12.57    0.39
   6  -1   1   12.76    0.30
  -7   1  -1   14.21    0.44
  -7   1  -1   14.10    0.34
  -7   1  -1   14.36    0.34
  -7   1  -1   14.35    0.38
  -7   1  -1   14.73    0.40
  -7   1  -1   13.86    0.45
   7  -1   1   14.18    0.34
  -8   1  -1    5.88    0.28
  -8   1  -1    6.18    0.25
  -8   1  -1    6.06    0.29
  -9   1  -1    0.00    0.06
  -9   1  -1   -0.03    0.06
  -9   1  -1    0.04    0.07
 -10   1  -1    3.60    0.25
 -10   1  -1    3.95    0.23
 -10   1  -1    3.68    0.26
 -11   1  -1    0.65    0.15
 -11   1  -1    0.56    0.11
 -10   0   1    0.02    0.08
 -10   0   1   -0.07    0.06
  -9   0   1    5.30    0.26
  -9   0   1    5.84    0.30
  -9   0   1    5.81    0.30
  -8   0   1    0.33    0.09
  -8   0   1    0.43    0.10
  -8   0   1    0.37    0.09
   7   0  -1   31.22    0.62
  -7   0   1   31.34    0.79
  -7   0   1   30.62    0.70
  -7   0   1   31.03    0.76
  -7   0   1   31.17    0.67
   6   0  -1    3.39    0.12
  -6   0   1    3.19    0.17
  -6   0   1    3.37    0.12
  -6   0   1    3.42    0.16
  -6   0   1    3.38    0.12
  -6   0   1    3.25    0.13
  -6   0   1    3.21    0.18
   5   0  -1    1.67    0.07
   5   0  -1    1.81    0.08
   5   0  -1    1.70    0.07
   5   0  -1    1.61    0.07
   5   0  -1    1.62    0.07
  -5   0   1    1.67    0.12
  -5   0   1    1.60    0.07
  -5   0   1    1.66    0.08
  -5   0   1    1.63    0.07
  -5   0   1    1.58    0.11
  -5   0   1    1.53    0.07
  -5   0   1    1.57    0.10
  -5   0   1    1.61    0.08
  -5   0   1    1.80    0.11
   4   0  -1   55.43    1.00
   4   0  -1   56.25    0.97
   4   0  -1   56.99    1.04
   4   0  -1   57.05    1.01
   4   0  -1   56.48    1.01
  -4   0   1   55.32    0.97
  -4   0   1   55.80    1.16
  -4   0   1   56.51    1.01
  -4   0   1   55.51    1.03
  -4   0   1   56.83    1.10
  -4   0   1   55.97    1.11
  -4   0   1   56.96    1.04
  -4   0   1   52.56    1.01
  -4   0   1   55.91    1.00
   3   0  -1   13.13    0.27
   3   0  -1   13.37    0.25
   3   0  -1   13.49    0.26
   3   0  -1   13.79    0.50
   3   0  -1   12.80    0.26
   3   0  -1   13.09    0.25
  -3   0   1   13.04    0.27
  -3   0   1   13.50    0.33
  -3   0   1   13.22    0.30
  -3   0   1   12.82    0.25
  -3   0   1   13.04    0.26
  -3   0   1   12.95    0.26
  -3   0   1   12.90    0.31
   2   0  -1    0.20    0.02
   2   0  -1    0.22    0.03
   2   0  -1    0.24    0.05
   2   0  -1    0.23    0.03
   2   0  -1    0.22    0.02
   2   0  -1    0.24    0.03
   2   0  -1    0.21    0.02
   2   0  -1    0.25    0.04
   2   0  -1    0.24    0.02
  -2   0   1    0.25    0.04
  -2   0   1    0.22    0.04
  -2   0   1    0.22    0.02
  -2   0   1    0.23    0.02
  -2   0   1    0.22    0.02
  -2   0   1    0.19    0.03
  -2   0   1    0.24    0.03
  -2   0   1    0.22    0.02
  -2   0   1    0.21    0.02
  -2   0   1    0.22    0.03
  -2   0   1    0.18    0.02
   1   0  -1  130.33    2.45
   1   0  -1  112.02    2.36
   1   0  -1  126.43    2.17
   1   0  -1  125.81    2.54
   1   0  -1  126.42    2.26
   1   0  -1  130.12    2.29
   1   0  -1  132.13    2.36
   1   0  -1  130.80    3.92
   1   0  -1  129.26    2.38
  -1   0   1  130.42    2.38
  -1   0   1  131.55    2.26
  -1   0   1  129.97    2.25
  -1   0   1  127.23    2.25
  -1   0   1  127.63    2.48
  -1   0   1  127.29    2.41
  -1   0   1  130.97    2.28
   0   0  -1   -0.19    0.00
   0   0  -1   -0.19    0.00
   0   0  -1   -0.18    0.00
   0   0  -1   -0.18    0.00
   0   0  -1   -0.18    0.01
   0   0  -1   -0.19    0.00
   0   0   1   -0.18    0.00
   0   0   1   -0.18    0.00
   0   0   1   -0.18    0.00
   0   0   1   -0.19    0.00
   0   0   1   -0.18    0.00
   0   0   1   -0.19    0.00
  -1   0  -1   14.31    0.28
  -1   0  -1   14.26    0.29
  -1   0  -1   14.73    0.27
  -1   0  -1   14.41    0.30
  -1   0  -1   14.36    0.30
  -1   0  -1   14.78    0.28
  -1   0  -1   14.26    0.28
  -1   0  -1   14.29    0.28
   1   0   1   14.20    0.28
   1   0   1   14.75    0.27
   1   0   1   14.66    0.30
   1   0   1   13.59    0.29
   1   0   1   14.33    0.28
   1   0   1   14.62    0.28
   1   0   1   14.94    0.28
  -2   0  -1   54.62    0.99
  -2   0  -1   55.17    0.95
  -2   0  -1   55.81    0.98
  -2   0  -1   54.01    0.99
  -2   0  -1   56.03    1.01
  -2   0  -1   52.90    0.94
  -2   0  -1   53.54    1.01
  -2   0  -1   54.67    1.06
   2   0   1   53.90    1.03
   2   0   1   54.40    0.99
   2   0   1   52.70    0.95
   2   0   1   56.31    1.01
   2   0   1   55.54    0.98
   2   0   1   55.02    1.06
   2   0   1   55.18    0.99
   2   0   1   53.35    1.01
   2   0   1   52.23    1.00
  -3   0  -1   20.81    0.43
  -3   0  -1   20.95    0.42
  -3   0  -1   20.33    0.41
  -3   0  -1   19.84    0.40
  -3   0  -1   20.35    0.46
  -3   0  -1   20.52    0.41
  -3   0  -1   20.41    0.42
  -3   0  -1   20.31    0.45
   3   0   1   21.19    0.42
   3   0   1   21.08    0.41
   3   0   1   20.55    0.41
   3   0   1   20.32    0.42
   3   0   1   20.78    0.43
  -4   0  -1   23.15    0.47
  -4   0  -1   23.25    0.48
  -4   0  -1   23.40    0.52
  -4   0  -1   22.84    0.46
  -4   0  -1   23.09    0.54
  -4   0  -1   22.87    0.48
   4   0   1   22.73    0.48
   4   0   1   22.92    0.46
  -5   0  -1    0.39    0.05
  -5   0  -1    0.25    0.06
  -5   0  -1    0.33    0.05
  -5   0  -1    0.31    0.06
  -5   0  -1    0.26    0.05
  -5   0  -1    0.24    0.05
   5   0   1    0.31    0.05
   5   0   1    0.41    0.06
  -6   0  -1    5.19    0.18
  -6   0  -1    5.38    0.23
  -6   0  -1    5.09    0.20
  -6   0  -1    5.39    0.20
  -6   0  -1    5.17    0.22
   6   0   1    5.30    0.18
  -7   0  -1   19.38    0.55
  -7   0  -1   19.45    0.50
  -7   0  -1   21.32    0.47
  -7   0  -1   20.13    0.57
  -7   0  -1   20.83    0.51
  -7   0  -1   20.48    0.47
   7   0   1   20.06    0.47
  -8   0  -1   11.48    0.37
  -8   0  -1   10.71    0.39
  -8   0  -1   11.35    0.41
  -9   0  -1    1.00    0.15
  -9   0  -1    1.31    0.15
  -9   0  -1    1.64    0.18
 -10   0  -1    0.14    0.09
 -10   0  -1    0.02    0.07
 -10   0  -1    0.01    0.07
 -10   1   1    0.89    0.14
 -10   1   1    0.60    0.14
 -10   1   1    0.57    0.13
  -9   1   1    0.63    0.11
  -9   1   1    0.63    0.12
  -9   1   1    0.57    0.12
  -8   1   1    0.95    0.13
  -8   1   1    0.98    0.12
  -8   1   1    0.92    0.13
  -7   1   1    0.07    0.05
  -7   1   1    0.17    0.07
  -7   1   1    0.09    0.06
   6  -1  -1    0.07    0.02
   6  -1  -1    0.05    0.02
   6  -1  -1    0.04    0.02
  -6   1   1   -0.03    0.04
  -6   1   1    0.05    0.02
  -6   1   1    0.04    0.02
  -6   1   1    0.03    0.02
  -6   1   1    0.02    0.02
  -6   1   1    0.05    0.03
  -6   1   1    0.02    0.05
  -6   1   1    0.06    0.04
   5  -1  -1    3.11    0.08
   5  -1  -1    3.29    0.08
  -5   1   1    2.85    0.15
  -5   1   1    3.02    0.08
  -5   1   1    3.09    0.10
  -5   1   1    3.22    0.09
  -5   1   1    3.09    0.14
  -5   1   1    3.37    0.16
  -5   1   1    2.92    0.16
  -5   1   1    2.94    0.08
   4  -1  -1    6.76    0.14
   4  -1  -1    6.86    0.14
  -4   1   1    6.58    0.22
  -4   1   1    6.73    0.20
  -4   1   1    6.84    0.22
  -4   1   1    6.43    0.21
  -4   1   1    6.77    0.16
   3  -1  -1   78.33    2.37
  -3   1   1   73.39    1.43
  -3   1   1   73.26    1.41
  -3   1   1   76.51    1.42
  -3   1   1   73.31    1.41
  -3   1   1   78.43    2.37
  -3   1   1   75.83    1.33
  -3   1   1   76.41    1.50
   2  -1  -1  214.46    6.69
   2  -1  -1  217.71    3.65
   2  -1  -1  212.69    4.06
   2  -1  -1  220.07    4.02
   2  -1  -1  214.04    4.13
  -2   1   1  216.44    4.03
  -2   1   1  215.48    4.30
  -2   1   1  214.90    3.79
  -2   1   1  210.71    3.95
  -2   1   1  217.87    6.75
  -2   1   1  206.89    4.07
   1  -1  -1  203.50    3.50
   1  -1  -1  205.35    3.92
   1  -1  -1  206.13    3.96
   1  -1  -1  208.92    3.73
   1  -1  -1  206.19    3.70
   1  -1  -1  197.72    3.78
   1  -1  -1  199.96    3.86
   1  -1  -1  208.79    3.73
   1  -1  -1  207.01    3.65
   1  -1  -1  203.24    3.61
   1  -1  -1  206.46    3.64
  -1   1   1  197.75    3.79
  -1   1   1  203.11    3.91
  -1   1   1  203.09    3.96
  -1   1   1  203.81    3.73
  -1   1   1  205.38    3.71
  -1   1   1  208.66    3.64
  -1   1   1  206.11    3.50
  -1   1   1  208.32    3.64
  -1   1   1  202.21    3.60
   0  -1  -1   50.37    0.91
   0  -1  -1   50.89    0.88
   0  -1  -1   51.37    0.91
   0  -1  -1   50.79    0.90
   0  -1  -1   50.89    0.94
   0  -1  -1   50.68    0.93
   0   1   1   50.00    0.94
   0   1   1   49.74    0.88
   0   1   1   52.58    0.92
   0   1   1   51.32    0.90
   0   1   1   50.89    0.91
  -1  -1  -1   33.84    0.65
  -1  -1  -1   33.71    0.61
  -1  -1  -1   32.24    0.64
  -1  -1  -1   33.83    0.65
  -1  -1  -1   32.88    0.63
  -1  -1  -1   34.27    0.64
   1   1   1   33.75    0.64
   1   1   1   34.10    0.64
   1   1   1   31.57    0.65
   1   1   1   34.35    0.63
   1   1   1   33.93    0.61
   1   1   1   33.37    0.61
   1   1   1   33.42    0.65
  -2  -1  -1    0.28    0.04
  -2  -1  -1    0.29    0.04
  -2  -1  -1    0.30    0.04
  -2  -1  -1    0.36    0.04
  -2  -1  -1    0.30    0.04
  -2  -1  -1    0.39    0.04
  -2  -1  -1    0.32    0.04
  -2  -1  -1    0.33    0.04
   2   1   1    0.36    0.04
   2   1   1    0.36    0.04
   2   1   1    0.34    0.04
   2   1   1    0.31    0.04
   2   1   1    0.28    0.04
   2   1   1    0.28    0.04
   2   1   1    0.31    0.03
   2   1   1    0.37    0.05
  -3  -1  -1   11.71    0.29
  -3  -1  -1   11.91    0.28
  -3  -1  -1   11.79    0.29
  -3  -1  -1   11.44    0.27
  -3  -1  -1   11.57    0.28
   3   1   1   11.78    0.29
   3   1   1   11.47    0.27
   3   1   1   11.73    0.28
   3   1   1   12.17    0.29
   3   1   1   12.08    0.28
  -4  -1  -1   33.78    0.68
  -4  -1  -1   34.11    0.74
  -4  -1  -1   34.42    0.69
  -4  -1  -1   33.73    0.67
  -4  -1  -1   34.79    0.73
   4   1   1   34.72    0.69
   4   1   1   33.72    0.71
   4   1   1   33.84    0.66
  -5  -1  -1    7.73    0.23
  -5  -1  -1    7.79    0.26
  -5  -1  -1    7.82    0.26
  -5  -1  -1    7.39    0.24
  -5  -1  -1    7.88    0.23
   5   1   1    7.66    0.22
   5   1   1    7.81    0.24
   5   1   1    7.49    0.23
  -6  -1  -1    1.08    0.11
  -6  -1  -1    1.06    0.10
  -6  -1  -1    1.17    0.12
  -6  -1  -1    1.05    0.12
  -6  -1  -1    1.15    0.09
   6   1   1    1.03    0.10
   6   1   1    1.08    0.09
   6   1   1    1.18    0.10
  -7  -1  -1   10.72    0.34
  -7  -1  -1   10.49    0.36
  -7  -1  -1   10.67    0.34
  -7  -1  -1   10.64    0.30
  -7  -1  -1   10.86    0.31
  -7  -1  -1    9.80    0.36
   7   1   1   10.49    0.30
   7   1   1   10.57    0.31
  -8  -1  -1    0.96    0.13
  -8  -1  -1    0.72    0.11
  -8  -1  -1    0.64    0.12
  -9  -1  -1    0.37    0.10
  -9  -1  -1    0.36    0.09
 -10  -1  -1    1.94    0.22
 -10  -1  -1    1.74    0.19
 -11   2   1    0.43    0.13
 -10   2   1    1.82    0.22
 -10   2   1    1.70    0.18
  -9   2   1    3.05    0.22
  -9   2   1    2.88    0.21
  -9   2   1    2.96    0.19
  -8   2   1    3.95    0.23
  -8   2   1    3.64    0.23
  -8   2   1    4.29    0.22
  -7   2   1    0.52    0.09
  -7   2   1    0.55    0.10
  -7   2   1    0.50    0.10
  -6   2   1   65.87    1.33
  -6   2   1   63.87    1.40
  -6   2   1   64.20    1.23
  -5   2   1   58.95    1.27
  -5   2   1   59.69    1.12
   4  -2  -1   39.31    0.74
   4  -2  -1   38.38    0.68
  -4   2   1   37.90    0.79
  -4   2   1   37.67    0.81
  -4   2   1   38.62    1.31
  -4   2   1   38.24    0.84
  -4   2   1   38.74    0.75
  -4   2   1   37.82    0.80
   3  -2  -1    9.51    0.19
   3  -2  -1    9.70    0.19
   3  -2  -1    9.71    0.21
   3  -2  -1    9.31    0.19
  -3   2   1    9.30    0.19
  -3   2   1    9.33    0.19
  -3   2   1    9.25    0.19
  -3   2   1    9.69    0.41
  -3   2   1    9.76    0.26
  -3   2   1    9.51    0.23
  -3   2   1    9.66    0.27
   2  -2  -1    0.18    0.03
   2  -2  -1    0.16    0.03
   2  -2  -1    0.13    0.02
   2  -2  -1    0.14    0.03
   2  -2  -1    0.14    0.02
   2  -2  -1    0.19    0.03
   2  -2  -1    0.24    0.07
   2  -2  -1    0.15    0.02
   2  -2  -1    0.16    0.03
   2  -2  -1    0.10    0.02
   2  -2  -1    0.18    0.04
  -2   2   1    0.17    0.02
  -2   2   1    0.12    0.03
  -2   2   1    0.14    0.06
  -2   2   1    0.11    0.03
  -2   2   1    0.27    0.04
  -2   2   1    0.11    0.02
  -2   2   1    0.15    0.02
  -2   2   1    0.18    0.02
   1  -2  -1   11.74    0.27
   1  -2  -1   11.31    0.25
   1  -2  -1   11.88    0.25
   1  -2  -1   11.58    0.26
   1  -2  -1   11.84    0.25
   1  -2  -1   11.48    0.25
   1  -2  -1   11.66    0.29
   1  -2  -1   11.91    0.25
   1  -2  -1   11.27    0.27
  -1   2   1   11.61    0.28
  -1   2   1   11.69    0.25
  -1   2   1   11.84    0.27
  -1   2   1   11.31    0.26
  -1   2   1   11.76    0.25
  -1   2   1   11.53    0.26
  -1   2   1   11.47    0.25
  -1   2   1   11.65    0.24
   0  -2  -1   11.10    0.24
   0  -2  -1   11.53    0.25
   0  -2  -1   10.89    0.26
   0  -2  -1   11.30    0.25
   0  -2  -1   10.86    0.25
   0  -2  -1   11.14    0.25
   0  -2  -1   11.19    0.21
   0   2   1   10.69    0.24
   0   2   1   10.81    0.22
   0   2   1   10.89    0.25
   0   2   1   10.94    0.25
   0   2   1   11.02    0.25
   0   2   1   11.24    0.25
   0   2   1   10.93    0.25
  -1  -2  -1   21.99    0.46
  -1  -2  -1   22.39    0.47
  -1  -2  -1   22.42    0.46
  -1  -2  -1   22.39    0.45
   1   2   1   22.82    0.45
   1   2   1   22.39    0.46
   1   2   1   22.88    0.47
  -2  -2  -1   32.11    0.65
  -2  -2  -1   31.59    0.64
  -2  -2  -1   31.13    0.64
   2   2   1   32.72    0.65
   2   2   1   32.37    0.63
   2   2   1   31.47    0.66
   2   2   1   31.94    0.60
   2   2   1   32.38    0.62
  -3  -2  -1    3.90    0.15
  -3  -2  -1    3.81    0.15
  -3  -2  -1    3.97    0.13
  -3  -2  -1    3.96    0.15
  -3  -2  -1    4.12    0.15
   3   2   1    3.92    0.12
   3   2   1    4.11    0.13
   3   2   1    4.05    0.15
   3   2   1    3.89    0.15
   3   2   1    3.72    0.14
  -4  -2  -1    2.69    0.12
  -4  -2  -1    2.73    0.13
  -4  -2  -1    2.49    0.13
  -4  -2  -1    2.65    0.13
   4   2   1    2.64    0.13
   4   2   1    2.87    0.14
   4   2   1    2.53    0.13
  -5  -2  -1    0.10    0.05
  -5  -2  -1    0.06    0.04
  -5  -2  -1    0.04    0.05
  -5  -2  -1    0.14    0.05
   5   2   1    0.09    0.05
   5   2   1    0.13    0.05
   5   2   1    0.07    0.04
  -6  -2  -1   15.13    0.41
  -6  -2  -1   16.26    0.44
  -6  -2  -1   16.28    0.41
  -6  -2  -1   16.05    0.42
  -6  -2  -1   15.46    0.45
   6   2   1   15.61    0.43
   6   2   1   15.22    0.40
   6   2   1   15.67    0.42
  -7  -2  -1    0.01    0.05
  -7  -2  -1    0.00    0.05
  -7  -2  -1    0.01    0.05
  -7  -2  -1   -0.05    0.05
   7   2   1    0.02    0.05
   7   2   1    0.01    0.04
   7   2   1    0.06    0.06
  -8  -2  -1    0.24    0.09
  -8  -2  -1    0.22    0.08
  -9  -2  -1    2.22    0.22
  -9  -2  -1    2.16    0.20
 -10  -2  -1    0.06    0.08
 -10  -2  -1    0.19    0.10
 -10   3   1    3.18    0.25
  -9   3   1    2.12    0.22
  -8   3   1    0.90    0.14
  -7   3   1   12.85    0.44
  -6   3   1   32.56    0.80
  -6   3   1   31.55    0.67
   5  -3  -1  103.98    1.93
   5  -3  -1  101.26    1.80
  -5   3   1  100.83    3.28
  -5   3   1  102.96    1.80
  -5   3   1  104.38    2.08
  -5   3   1  103.22    1.99
  -5   3   1  101.40    2.06
   4  -3  -1    0.09    0.02
   4  -3  -1    0.03    0.02
   4  -3  -1    0.08    0.03
   4  -3  -1    0.12    0.02
  -4   3   1    0.06    0.04
  -4   3   1    0.09    0.03
  -4   3   1    0.12    0.02
  -4   3   1    0.08    0.04
  -4   3   1    0.11    0.07
  -4   3   1    0.08    0.02
  -4   3   1    0.10    0.02
   3  -3  -1   26.11    0.52
   3  -3  -1   26.48    0.51
   3  -3  -1   26.54    0.51
   3  -3  -1   27.02    0.59
   3  -3  -1   26.53    0.51
  -3   3   1   25.45    0.51
  -3   3   1   25.39    0.49
  -3   3   1   26.55    0.51
  -3   3   1   27.25    0.96
  -3   3   1   26.53    0.57
  -3   3   1   25.46    0.51
  -3   3   1   26.14    0.60
  -3   3   1   26.95    0.59
   2  -3  -1    0.63    0.05
   2  -3  -1    0.63    0.05
   2  -3  -1    0.56    0.06
   2  -3  -1    0.57    0.06
   2  -3  -1    0.54    0.05
   2  -3  -1    0.73    0.06
   2  -3  -1    0.69    0.05
  -2   3   1    0.57    0.05
  -2   3   1    0.63    0.05
  -2   3   1    0.57    0.06
  -2   3   1    0.61    0.06
  -2   3   1    0.59    0.07
  -2   3   1    0.56    0.11
  -2   3   1    0.61    0.05
  -2   3   1    0.57    0.05
   1  -3  -1   11.54    0.28
   1  -3  -1   11.49    0.30
   1  -3  -1   11.87    0.26
   1  -3  -1   11.37    0.32
   1  -3  -1   12.32    0.28
   1  -3  -1   12.14    0.28
  -1   3   1   12.23    0.28
  -1   3   1   11.57    0.27
  -1   3   1   12.34    0.31
  -1   3   1   11.74    0.28
  -1   3   1   11.97    0.28
  -1   3   1   12.25    0.28
   0  -3  -1   82.28    1.55
   0  -3  -1   86.63    1.56
   0  -3  -1   87.30    1.60
   0   3   1   86.64    1.60
   0   3   1   81.40    1.59
   0   3   1   85.78    1.51
   0   3   1   86.24    1.57
  -1  -3  -1    7.38    0.22
  -1  -3  -1    7.41    0.22
  -1  -3  -1    7.20    0.21
   1   3   1    7.52    0.22
   1   3   1    7.49    0.22
   1   3   1    7.40    0.21
  -2  -3  -1   88.12    1.67
  -2  -3  -1   91.79    1.70
  -2  -3  -1   92.22    1.60
  -2  -3  -1   87.26    1.65
   2   3   1   90.16    1.68
   2   3   1   88.62    1.69
   2   3   1   89.11    1.61
   2   3   1   89.74    1.71
  -3  -3  -1    4.20    0.17
  -3  -3  -1    4.40    0.18
  -3  -3  -1    4.21    0.17
   3   3   1    4.73    0.13
   3   3   1    4.48    0.18
   3   3   1    4.56    0.17
   3   3   1    4.50    0.18
  -4  -3  -1   22.03    0.55
  -4  -3  -1   23.82    0.54
  -4  -3  -1   24.35    0.56
  -4  -3  -1   24.26    0.55
   4   3   1   23.52    0.56
   4   3   1   21.45    0.54
   4   3   1   23.03    0.52
  -5  -3  -1   12.66    0.36
  -5  -3  -1   12.92    0.36
  -5  -3  -1   12.31    0.37
   5   3   1   12.14    0.37
   5   3   1   12.06    0.34
   5   3   1   11.51    0.35
  -6  -3  -1    2.62    0.17
  -6  -3  -1    2.65    0.16
  -6  -3  -1    2.59    0.16
   6   3   1    2.51    0.16
   6   3   1    2.53    0.16
   6   3   1    2.57    0.15
  -7  -3  -1    8.74    0.35
  -7  -3  -1    9.91    0.33
  -7  -3  -1   10.00    0.33
  -7  -3  -1    9.12    0.33
   7   3   1   10.09    0.34
   7   3   1    9.57    0.32
   7   3   1    9.61    0.34
  -8  -3  -1    1.21    0.16
  -8  -3  -1    1.12    0.14
  -9  -3  -1    0.54    0.11
  -9  -3  -1    0.50    0.13
 -10   4   1    0.20    0.10
  -9   4   1    8.36    0.39
  -8   4   1    2.52    0.20
  -7   4   1    3.27    0.21
  -7   4   1    2.65    0.28
   6  -4  -1    0.54    0.05
  -6   4   1    0.46    0.04
  -6   4   1    0.49    0.15
  -6   4   1    0.37    0.08
  -6   4   1    0.35    0.08
   5  -4  -1    0.74    0.06
   5  -4  -1    0.72    0.05
   5  -4  -1    0.68    0.06
   5  -4  -1    0.64    0.05
   5  -4  -1    0.76    0.05
  -5   4   1    0.58    0.09
  -5   4   1    0.67    0.05
  -5   4   1    0.72    0.05
  -5   4   1    0.66    0.05
  -5   4   1    0.50    0.09
  -5   4   1    0.61    0.05
  -5   4   1    0.67    0.16
   4  -4  -1  124.52    2.29
   4  -4  -1  118.36    2.12
   4  -4  -1  117.65    2.15
   4  -4  -1  117.53    2.14
   4  -4  -1  121.33    2.14
  -4   4   1  118.54    2.14
  -4   4   1  119.01    2.17
  -4   4   1  122.02    2.26
  -4   4   1  115.72    2.37
  -4   4   1  120.13    3.80
  -4   4   1  121.67    2.14
  -4   4   1  117.51    2.06
   3  -4  -1    1.22    0.09
   3  -4  -1    1.13    0.08
   3  -4  -1    1.23    0.07
   3  -4  -1    1.20    0.10
  -3   4   1    1.25    0.07
  -3   4   1    1.25    0.09
  -3   4   1    1.27    0.10
  -3   4   1    1.35    0.17
  -3   4   1    1.22    0.09
  -3   4   1    1.20    0.07
  -3   4   1    1.13    0.07
   2  -4  -1   37.12    0.83
   2  -4  -1   34.60    0.71
   2  -4  -1   36.51    0.77
   2  -4  -1   34.66    0.72
  -2   4   1   37.34    0.75
  -2   4   1   36.82    1.29
  -2   4   1   35.66    0.77
  -2   4   1   36.31    0.79
  -2   4   1   35.76    0.72
  -2   4   1   37.19    0.74
  -2   4   1   36.45    0.70
   1  -4  -1    8.58    0.24
   1  -4  -1    8.31    0.24
   1  -4  -1    8.47    0.27
   1  -4  -1    8.09    0.25
   1  -4  -1    8.08    0.20
  -1   4   1    8.05    0.23
  -1   4   1    7.78    0.24
  -1   4   1    7.82    0.23
  -1   4   1    8.72    0.26
  -1   4   1    8.23    0.21
   0  -4  -1   88.55    1.68
   0  -4  -1   89.60    1.65
   0  -4  -1   86.79    1.63
   0  -4  -1   88.12    1.87
   0   4   1   88.49    1.67
   0   4   1   85.81    1.58
   0   4   1   89.60    1.65
   0   4   1   87.25    1.68
  -1  -4  -1    8.55    0.26
  -1  -4  -1    9.22    0.31
  -1  -4  -1    8.50    0.26
  -1  -4  -1    9.10    0.27
   1   4   1    9.38    0.26
   1   4   1    8.62    0.26
   1   4   1    9.05    0.27
  -2  -4  -1   14.58    0.37
  -2  -4  -1   14.45    0.38
  -2  -4  -1   14.75    0.39
   2   4   1   13.86    0.39
   2   4   1   14.55    0.37
   2   4   1   14.24    0.38
  -3  -4  -1   25.46    0.59
  -3  -4  -1   24.83    0.60
  -3  -4  -1   26.92    0.59
   3   4   1   23.95    0.61
   3   4   1   25.84    0.52
   3   4   1   25.58    0.60
   3   4   1   24.68    0.57
  -4  -4  -1    4.94    0.21
  -4  -4  -1    4.87    0.21
  -4  -4  -1    4.68    0.21
  -4  -4  -1    4.72    0.20
   4   4   1    4.55    0.20
   4   4   1    5.08    0.23
   4   4   1    5.31    0.22
  -5  -4  -1   12.29    0.37
  -5  -4  -1   12.21    0.39
  -5  -4  -1   12.02    0.38
   5   4   1   11.80    0.37
   5   4   1   11.28    0.35
   5   4   1   11.50    0.38
  -6  -4  -1    6.99    0.28
  -6  -4  -1    6.89    0.28
  -6  -4  -1    7.38    0.30
   6   4   1    7.83    0.30
   6   4   1    7.12    0.27
   6   4   1    6.90    0.29
  -7  -4  -1    0.99    0.14
  -7  -4  -1    1.13    0.14
  -7  -4  -1    1.15    0.14
  -7  -4  -1    1.02    0.13
   7   4   1    1.18    0.13
   7   4   1    0.97    0.14
   7   4   1    1.04    0.14
  -8  -4  -1    1.81    0.20
  -8  -4  -1    2.17    0.17
  -9  -4  -1   -0.06    0.06
  -9  -4  -1    0.03    0.08
 -10   5   1    0.09    0.09
  -9   5   1   -0.05    0.06
  -8   5   1   16.37    0.56
  -7   5   1    3.46    0.33
  -7   5   1    3.78    0.23
   6  -5  -1   56.29    1.04
   6  -5  -1   56.78    1.05
  -6   5   1   55.80    1.04
  -6   5   1   56.30    1.21
  -6   5   1   56.18    1.01
  -6   5   1   54.56    2.00
  -6   5   1   56.21    1.28
   5  -5  -1    4.76    0.15
   5  -5  -1    4.48    0.15
   5  -5  -1    4.27    0.17
  -5   5   1    4.39    0.20
  -5   5   1    4.31    0.14
  -5   5   1    4.23    0.21
  -5   5   1    4.32    0.15
  -5   5   1    3.70    0.32
  -5   5   1    4.34    0.14
   4  -5  -1    3.23    0.14
   4  -5  -1    3.37    0.17
   4  -5  -1    3.62    0.14
   4  -5  -1    3.21    0.18
  -4   5   1    3.43    0.13
  -4   5   1    3.38    0.16
  -4   5   1    3.38    0.14
  -4   5   1    3.59    0.18
  -4   5   1    3.16    0.28
  -4   5   1    3.30    0.17
  -4   5   1    3.34    0.13
   3  -5  -1    3.74    0.15
   3  -5  -1    3.79    0.15
   3  -5  -1    3.42    0.17
   3  -5  -1    4.07    0.19
  -3   5   1    3.59    0.18
  -3   5   1    3.75    0.16
  -3   5   1    3.69    0.15
  -3   5   1    3.52    0.14
  -3   5   1    3.68    0.15
  -3   5   1    3.64    0.16
  -3   5   1    3.43    0.28
   2  -5  -1   19.93    0.46
   2  -5  -1   20.06    0.53
   2  -5  -1   19.76    0.50
   2  -5  -1   19.76    0.46
  -2   5   1   20.11    0.45
  -2   5   1   19.47    0.47
  -2   5   1   19.89    0.46
  -2   5   1   19.38    0.83
  -2   5   1   20.13    0.51
  -2   5   1   19.89    0.47
  -2   5   1   19.71    0.47
   1  -5  -1  164.33    3.03
   1  -5  -1  159.92    2.91
   1  -5  -1  156.68    2.91
   1  -5  -1  157.29    2.94
  -1   5   1  163.57    2.84
  -1   5   1  162.65    3.12
  -1   5   1  165.37    3.08
  -1   5   1  163.89    2.95
  -1   5   1  164.63    3.00
   0  -5  -1    0.09    0.04
   0  -5  -1    0.12    0.02
   0  -5  -1    0.08    0.04
   0  -5  -1    0.01    0.04
   0   5   1    0.06    0.04
   0   5   1    0.08    0.05
   0   5   1    0.05    0.04
   0   5   1    0.02    0.02
  -1  -5  -1    1.07    0.09
  -1  -5  -1    1.02    0.11
  -1  -5  -1    1.19    0.12
   1   5   1    1.14    0.11
   1   5   1    1.18    0.12
   1   5   1    1.13    0.11
  -2  -5  -1    0.70    0.10
  -2  -5  -1    0.53    0.09
  -2  -5  -1    0.78    0.09
   2   5   1    0.60    0.09
   2   5   1    0.69    0.09
   2   5   1    0.64    0.09
  -3  -5  -1    0.06    0.05
  -3  -5  -1    0.04    0.06
  -3  -5  -1    0.00    0.05
   3   5   1    0.06    0.05
   3   5   1    0.07    0.06
   3   5   1    0.01    0.05
  -4  -5  -1   32.19    0.75
  -4  -5  -1   31.26    0.76
  -4  -5  -1   31.05    0.74
   4   5   1   31.76    0.73
   4   5   1   32.32    0.79
   4   5   1   31.79    0.76
  -5  -5  -1    7.32    0.30
  -5  -5  -1    7.45    0.29
  -5  -5  -1    6.79    0.29
  -5  -5  -1    6.87    0.27
   5   5   1    7.45    0.31
   5   5   1    7.32    0.30
   5   5   1    6.98    0.28
  -6  -5  -1    0.08    0.06
  -6  -5  -1    0.00    0.06
  -6  -5  -1    0.01    0.06
   6   5   1    0.02    0.06
   6   5   1    0.15    0.08
   6   5   1    0.04    0.07
  -7  -5  -1    0.27    0.10
  -7  -5  -1    0.19    0.09
  -7  -5  -1    0.24    0.09
   7   5   1    0.24    0.09
   7   5   1    0.43    0.10
   7   5   1    0.36    0.10
  -8  -5  -1    0.11    0.08
  -8  -5  -1    0.22    0.08
 -10   6   1    5.55    0.34
  -9   6   1    0.02    0.08
  -8   6   1    2.00    0.28
  -8   6   1    2.09    0.22
  -7   6   1    4.36    0.26
  -7   6   1    4.31    0.24
  -7   6   1    3.95    0.37
   6  -6  -1    0.36    0.06
   6  -6  -1    0.53    0.06
  -6   6   1    0.41    0.06
  -6   6   1    0.56    0.18
  -6   6   1    0.37    0.09
  -6   6   1    0.45    0.09
  -6   6   1    0.38    0.05
   5  -6  -1   28.59    0.61
   5  -6  -1   28.90    0.61
   5  -6  -1   27.43    0.72
  -5   6   1   27.97    0.68
  -5   6   1   29.05    0.59
  -5   6   1   28.02    0.73
  -5   6   1   28.19    1.18
  -5   6   1   28.40    0.60
  -5   6   1   27.54    0.60
   4  -6  -1    1.13    0.09
   4  -6  -1    1.37    0.14
   4  -6  -1    1.06    0.10
  -4   6   1    1.15    0.12
  -4   6   1    1.46    0.25
  -4   6   1    1.19    0.09
  -4   6   1    1.24    0.09
  -4   6   1    1.17    0.12
  -4   6   1    1.47    0.13
  -4   6   1    1.31    0.10
   3  -6  -1    0.70    0.09
   3  -6  -1    1.00    0.12
   3  -6  -1    0.82    0.10
  -3   6   1    0.91    0.10
  -3   6   1    0.78    0.09
  -3   6   1    0.70    0.08
  -3   6   1    0.97    0.21
  -3   6   1    0.79    0.11
  -3   6   1    0.85    0.10
  -3   6   1    0.85    0.10
   2  -6  -1    0.18    0.06
   2  -6  -1    0.09    0.05
   2  -6  -1    0.11    0.05
  -2   6   1    0.17    0.05
  -2   6   1    0.20    0.05
  -2   6   1    0.10    0.04
  -2   6   1    0.22    0.05
  -2   6   1    0.26    0.12
  -2   6   1    0.14    0.05
  -2   6   1    0.20    0.07
   1  -6  -1    0.01    0.04
   1  -6  -1   -0.02    0.04
   1  -6  -1    0.00    0.04
  -1   6   1    0.06    0.04
  -1   6   1   -0.03    0.04
  -1   6   1   -0.02    0.05
  -1   6   1    0.00    0.04
  -1   6   1    0.07    0.03
   0  -6  -1   25.90    0.62
   0  -6  -1   25.60    0.50
   0  -6  -1   24.87    0.62
   0  -6  -1   25.81    0.62
   0   6   1   25.77    0.63
   0   6   1   25.87    0.62
   0   6   1   26.49    0.60
   0   6   1   25.80    0.54
  -1  -6  -1    2.03    0.14
  -1  -6  -1    1.85    0.13
  -1  -6  -1    2.16    0.15
   1   6   1    2.04    0.14
   1   6   1    2.11    0.14
   1   6   1    1.98    0.15
  -2  -6  -1    9.78    0.32
  -2  -6  -1   10.31    0.35
  -2  -6  -1    9.64    0.34
   2   6   1    9.80    0.33
   2   6   1    9.80    0.35
   2   6   1    9.87    0.34
  -3  -6  -1    1.90    0.13
  -3  -6  -1    1.57    0.16
  -3  -6  -1    1.85    0.17
   3   6   1    2.06    0.16
   3   6   1    1.94    0.16
   3   6   1    2.31    0.16
  -4  -6  -1    1.99    0.16
  -4  -6  -1    1.81    0.17
  -4  -6  -1    1.85    0.14
   4   6   1    2.01    0.17
   4   6   1    1.91    0.15
   4   6   1    1.89    0.18
  -5  -6  -1    6.70    0.30
  -5  -6  -1    5.95    0.26
  -5  -6  -1    6.41    0.29
  -5  -6  -1    6.42    0.30
   5   6   1    6.28    0.30
   5   6   1    6.43    0.30
   5   6   1    6.10    0.28
  -6  -6  -1    0.48    0.11
  -6  -6  -1    0.56    0.12
  -6  -6  -1    0.58    0.12
   6   6   1    0.62    0.12
   6   6   1    0.39    0.11
   6   6   1    0.53    0.12
  -7  -6  -1    0.33    0.10
  -7  -6  -1    0.28    0.09
  -7  -6  -1    0.16    0.09
   7   6   1    0.29    0.10
   7   6   1    0.08    0.09
   7   6   1    0.34    0.10
  -8  -6  -1    0.14    0.09
  -8  -6  -1    0.27    0.10
   9  -7  -1    2.71    0.23
  -9   7   1    3.13    0.39
  -9   7   1    4.00    0.28
   8  -7  -1    1.92    0.21
  -8   7   1    1.79    0.21
  -8   7   1    1.69    0.33
   7  -7  -1    0.00    0.06
  -7   7   1    0.06    0.13
  -7   7   1    0.11    0.08
  -7   7   1    0.09    0.07
   6  -7  -1   10.69    0.30
   6  -7  -1   10.55    0.40
   6  -7  -1   10.97    0.31
  -6   7   1   10.09    0.64
  -6   7   1   10.17    0.37
  -6   7   1   10.21    0.40
   5  -7  -1    6.24    0.22
   5  -7  -1    5.83    0.28
   5  -7  -1    5.96    0.22
  -5   7   1    5.95    0.22
  -5   7   1    6.05    0.27
  -5   7   1    5.97    0.46
  -5   7   1    6.13    0.22
  -5   7   1    6.35    0.22
  -5   7   1    6.10    0.26
   4  -7  -1    1.56    0.12
   4  -7  -1    1.83    0.15
   4  -7  -1    1.84    0.13
  -4   7   1    1.65    0.29
  -4   7   1    1.35    0.15
  -4   7   1    1.56    0.12
  -4   7   1    1.82    0.13
  -4   7   1    1.67    0.12
  -4   7   1    1.53    0.13
  -4   7   1    1.68    0.12
   3  -7  -1    1.05    0.11
   3  -7  -1    0.77    0.11
   3  -7  -1    0.72    0.10
  -3   7   1    0.79    0.10
  -3   7   1    0.81    0.10
  -3   7   1    0.86    0.10
  -3   7   1    0.74    0.10
  -3   7   1    1.07    0.24
  -3   7   1    0.82    0.10
  -3   7   1    0.78    0.12
   2  -7  -1   20.25    0.52
   2  -7  -1   19.41    0.52
   2  -7  -1   20.03    0.55
  -2   7   1   20.01    0.93
  -2   7   1   19.37    0.49
  -2   7   1   20.42    0.50
  -2   7   1   20.11    0.52
  -2   7   1   20.25    0.53
  -2   7   1   21.05    0.51
  -2   7   1   19.65    0.57
   1  -7  -1   23.05    0.60
   1  -7  -1   23.06    0.61
   1  -7  -1   24.31    0.61
  -1   7   1   25.06    0.58
  -1   7   1   24.32    0.61
  -1   7   1   24.09    0.54
  -1   7   1   23.16    0.65
  -1   7   1   23.37    0.61
  -1   7   1   24.94    0.59
   0  -7  -1   11.56    0.37
   0  -7  -1   11.06    0.37
   0  -7  -1   11.09    0.38
   0   7   1   12.02    0.28
   0   7   1   11.52    0.37
   0   7   1   12.01    0.39
   0   7   1   11.45    0.39
  -1  -7  -1    1.43    0.12
  -1  -7  -1    1.55    0.15
  -1  -7  -1    1.54    0.16
   1   7   1    1.24    0.14
   1   7   1    1.49    0.15
   1   7   1    1.66    0.17
  -2  -7  -1    3.33    0.21
  -2  -7  -1    3.26    0.20
  -2  -7  -1    3.28    0.18
   2   7   1    3.14    0.19
   2   7   1    2.93    0.20
   2   7   1    3.20    0.21
  -3  -7  -1    3.10    0.20
  -3  -7  -1    2.80    0.20
  -3  -7  -1    2.91    0.18
   3   7   1    2.86    0.20
   3   7   1    3.24    0.21
   3   7   1    3.06    0.20
  -4  -7  -1    1.78    0.15
  -4  -7  -1    1.50    0.17
  -4  -7  -1    1.42    0.17
   4   7   1    2.03    0.21
   4   7   1    1.62    0.17
   4   7   1    1.78    0.19
  -5  -7  -1    0.43    0.10
  -5  -7  -1    0.42    0.11
  -5  -7  -1    0.52    0.12
   5   7   1    0.42    0.10
   5   7   1    0.34    0.11
   5   7   1    0.30    0.10
  -6  -7  -1    0.02    0.07
  -6  -7  -1    0.00    0.08
  -6  -7  -1   -0.03    0.07
   6   7   1   -0.05    0.07
   6   7   1    0.14    0.10
   6   7   1   -0.03    0.08
  -7  -7  -1    0.26    0.10
  -7  -7  -1    0.29    0.11
  -7  -7  -1    0.23    0.10
   7   7   1    0.38    0.12
   7   7   1    0.01    0.08
   7   7   1    0.13    0.09
   9  -8  -1    2.58    0.26
  -9   8   1    2.57    0.27
  -9   8   1    2.80    0.37
   8  -8  -1    3.27    0.25
  -8   8   1    3.27    0.39
  -8   8   1    3.16    0.24
   7  -8  -1    5.33    0.30
  -7   8   1    5.61    0.28
  -7   8   1    5.10    0.47
  -7   8   1    5.78    0.31
   6  -8  -1    0.14    0.07
   6  -8  -1    0.09    0.08
  -6   8   1    0.21    0.08
  -6   8   1    0.02    0.07
  -6   8   1    0.09    0.13
   5  -8  -1    2.10    0.18
   5  -8  -1    1.89    0.14
   5  -8  -1    2.05    0.15
  -5   8   1    2.08    0.36
  -5   8   1    2.26    0.14
  -5   8   1    2.20    0.16
  -5   8   1    2.18    0.19
  -5   8   1    2.04    0.14
  -5   8   1    1.91    0.16
  -5   8   1    2.14    0.14
   4  -8  -1    0.03    0.06
   4  -8  -1    0.01    0.06
   4  -8  -1    0.01    0.05
  -4   8   1    0.02    0.06
  -4   8   1    0.00    0.06
  -4   8   1   -0.05    0.04
  -4   8   1    0.01    0.05
  -4   8   1    0.04    0.06
  -4   8   1    0.01    0.05
  -4   8   1    0.06    0.13
   3  -8  -1   10.12    0.37
   3  -8  -1    9.65    0.34
   3  -8  -1   10.21    0.34
  -3   8   1    9.66    0.38
  -3   8   1    8.94    0.61
  -3   8   1    9.66    0.32
  -3   8   1    9.33    0.33
  -3   8   1    9.40    0.32
  -3   8   1    9.63    0.34
  -3   8   1   10.40    0.33
   2  -8  -1    5.39    0.26
   2  -8  -1    5.41    0.25
   2  -8  -1    6.20    0.26
  -2   8   1    5.87    0.23
  -2   8   1    5.68    0.46
  -2   8   1    5.73    0.26
  -2   8   1    5.90    0.29
  -2   8   1    5.99    0.27
  -2   8   1    6.06    0.25
  -2   8   1    6.07    0.22
   1  -8  -1    4.77    0.24
   1  -8  -1    4.92    0.25
   1  -8  -1    4.60    0.24
  -1   8   1    4.62    0.42
  -1   8   1    5.05    0.25
  -1   8   1    4.76    0.23
  -1   8   1    5.18    0.28
  -1   8   1    4.56    0.24
  -1   8   1    5.29    0.22
   0  -8  -1    3.70    0.21
   0  -8  -1    3.84    0.22
   0  -8  -1    3.63    0.22
   0   8   1    4.28    0.24
   0   8   1    4.00    0.23
   0   8   1    4.21    0.22
  -1  -8  -1    1.42    0.17
  -1  -8  -1    1.62    0.16
  -1  -8  -1    1.68    0.18
   1   8   1    1.54    0.18
   1   8   1    1.60    0.17
   1   8   1    1.65    0.17
  -2  -8  -1    3.82    0.21
  -2  -8  -1    3.61    0.23
  -2  -8  -1    3.96    0.24
   2   8   1    3.58    0.22
   2   8   1    3.48    0.23
   2   8   1    3.59    0.24
  -3  -8  -1    2.62    0.21
  -3  -8  -1    2.38    0.20
  -3  -8  -1    2.45    0.17
   3   8   1    2.66    0.21
   3   8   1    2.33    0.19
   3   8   1    2.77    0.21
  -4  -8  -1    0.06    0.08
  -4  -8  -1    0.22    0.10
   4   8   1    0.32    0.12
   4   8   1    0.10    0.08
   4   8   1    0.30    0.11
  -5  -8  -1    0.61    0.13
  -5  -8  -1    0.73    0.13
  -5  -8  -1    0.92    0.16
   5   8   1    0.65    0.13
   5   8   1    0.66    0.14
   5   8   1    1.03    0.17
  -6  -8  -1    0.24    0.11
  -6  -8  -1    0.20    0.10
  -6  -8  -1    0.22    0.11
   6   8   1    0.20    0.11
   6   8   1    0.14    0.10
  -9   9   1    0.27    0.21
   8  -9  -1    1.23    0.19
  -8   9   1    1.41    0.34
  -8   9   1    1.05    0.17
   7  -9  -1    5.94    0.34
  -7   9   1    6.54    0.31
  -7   9   1    5.85    0.54
  -7   9   1    6.13    0.33
   6  -9  -1    5.55    0.31
  -6   9   1    4.98    0.25
  -6   9   1    4.92    0.48
  -6   9   1    5.68    0.30
   5  -9  -1    3.47    0.24
   5  -9  -1    3.54    0.20
   5  -9  -1    3.72    0.21
  -5   9   1    3.17    0.19
  -5   9   1    3.72    0.21
  -5   9   1    4.06    0.26
  -5   9   1    3.16    0.38
  -5   9   1    3.79    0.19
  -5   9   1    3.31    0.22
  -5   9   1    3.60    0.20
   4  -9  -1    1.59    0.16
   4  -9  -1    2.07    0.20
   4  -9  -1    1.95    0.16
  -4   9   1    1.90    0.15
  -4   9   1    1.99    0.16
  -4   9   1    1.77    0.15
  -4   9   1    2.05    0.21
  -4   9   1    1.80    0.15
  -4   9   1    1.92    0.36
  -4   9   1    1.58    0.15
   3  -9  -1    0.00    0.06
   3  -9  -1    0.06    0.07
   3  -9  -1   -0.08    0.05
  -3   9   1   -0.01    0.05
  -3   9   1    0.01    0.05
  -3   9   1   -0.03    0.06
  -3   9   1    0.09    0.14
  -3   9   1    0.02    0.07
  -3   9   1    0.05    0.06
  -3   9   1   -0.01    0.06
   2  -9  -1    0.25    0.09
   2  -9  -1    0.30    0.09
   2  -9  -1    0.25    0.09
  -2   9   1    0.20    0.08
  -2   9   1    0.15    0.07
  -2   9   1    0.39    0.19
  -2   9   1    0.24    0.08
  -2   9   1    0.32    0.09
  -2   9   1    0.31    0.11
   1  -9  -1   15.10    0.49
   1  -9  -1   14.07    0.48
   1  -9  -1   14.69    0.48
  -1   9   1   15.55    0.43
  -1   9   1   13.85    0.48
  -1   9   1   14.60    0.52
  -1   9   1   14.90    0.49
  -1   9   1   15.13    0.47
  -1   9   1   14.54    0.84
   0  -9  -1    0.30    0.10
   0  -9  -1    0.40    0.11
   0  -9  -1    0.51    0.11
   0   9   1    0.27    0.10
   0   9   1    0.34    0.11
   0   9   1    0.30    0.09
  -1  -9  -1    0.37    0.11
  -1  -9  -1    0.61    0.11
  -1  -9  -1    0.48    0.12
   1   9   1    0.45    0.10
   1   9   1    0.51    0.12
   1   9   1    0.49    0.12
  -2  -9  -1   -0.01    0.07
  -2  -9  -1   -0.06    0.07
  -2  -9  -1    0.01    0.06
   2   9   1   -0.02    0.08
   2   9   1    0.02    0.07
   2   9   1   -0.04    0.07
  -3  -9  -1    1.52    0.20
  -3  -9  -1    1.36    0.19
   3   9   1    1.64    0.21
   3   9   1    1.53    0.20
   3   9   1    1.75    0.20
  -4  -9  -1    1.05    0.17
  -4  -9  -1    1.07    0.18
   4   9   1    0.92    0.16
   4   9   1    1.22    0.19
   4   9   1    0.86    0.16
  -5  -9  -1    0.01    0.07
  -8  10   1    0.12    0.19
  -8  10   1    0.26    0.11
   7 -10  -1    0.11    0.10
  -7  10   1    0.24    0.20
  -7  10   1    0.29    0.11
   6 -10  -1    0.14    0.09
  -6  10   1    0.12    0.08
  -6  10   1    0.17    0.19
   5 -10  -1    4.20    0.23
   5 -10  -1    3.83    0.26
   5 -10  -1    4.33    0.24
  -5  10   1    4.29    0.23
  -5  10   1    3.86    0.24
  -5  10   1    3.97    0.28
  -5  10   1    3.98    0.45
  -5  10   1    3.96    0.22
   4 -10  -1    2.27    0.19
   4 -10  -1    2.86    0.22
   4 -10  -1    2.96    0.21
  -4  10   1    2.98    0.20
  -4  10   1    2.84    0.20
  -4  10   1    2.78    0.19
  -4  10   1    2.29    0.24
  -4  10   1    2.61    0.45
   3 -10  -1    5.41    0.29
   3 -10  -1    5.64    0.29
   3 -10  -1    5.57    0.29
  -3  10   1    5.49    0.28
  -3  10   1    4.43    0.29
  -3  10   1    4.92    0.27
  -3  10   1    5.47    0.52
  -3  10   1    5.57    0.27
   2 -10  -1    1.65    0.19
   2 -10  -1    1.69    0.19
   2 -10  -1    1.50    0.18
  -2  10   1    1.79    0.18
  -2  10   1    2.19    0.24
  -2  10   1    2.08    0.20
  -2  10   1    2.12    0.39
  -2  10   1    1.44    0.18
   1 -10  -1    0.13    0.09
   1 -10  -1    0.09    0.08
   1 -10  -1    0.17    0.09
  -1  10   1    0.04    0.06
  -1  10   1    0.12    0.10
  -1  10   1    0.17    0.09
  -1  10   1    0.06    0.09
  -1  10   1    0.25    0.19
   0 -10  -1    1.43    0.18
   0 -10  -1    1.58    0.18
   0 -10  -1    1.60    0.20
   0  10   1    1.57    0.20
   0  10   1    1.79    0.20
   0  10   1    1.75    0.34
   0  10   1    1.57    0.18
   0  10   1    1.53    0.21
  -1 -10  -1    0.71    0.15
  -1 -10  -1    1.16    0.18
  -1 -10  -1    0.93    0.14
   1  10   1    0.95    0.17
   1  10   1    0.97    0.15
   1  10   1    1.06    0.17
  -2 -10  -1    3.67    0.27
  -2 -10  -1    3.31    0.25
   2  10   1    3.40    0.26
   2  10   1    3.26    0.25
   2  10   1    2.98    0.24
  -3 -10  -1    0.49    0.14
  -3 -10  -1    0.79    0.16
   3  10   1    0.52    0.14
   6 -11  -1    0.75    0.16
  -6  11   1    0.84    0.29
   5 -11  -1   -0.05    0.08
   5 -11  -1    0.12    0.10
  -5  11   1    0.06    0.18
  -5  11   1    0.12    0.10
   4 -11  -1    3.72    0.24
   4 -11  -1    3.73    0.26
   4 -11  -1    3.31    0.23
  -4  11   1    3.38    0.22
  -4  11   1    3.19    0.23
  -4  11   1    3.55    0.45
  -4  11   1    3.66    0.24
  -4  11   1    2.86    0.25
   3 -11  -1    0.08    0.08
   3 -11  -1    0.10    0.09
   3 -11  -1    0.21    0.10
  -3  11   1    0.05    0.09
  -3  11   1    0.09    0.08
  -3  11   1    0.07    0.08
  -3  11   1    0.01    0.17
  -3  11   1    0.09    0.10
   2 -11  -1    2.21    0.22
   2 -11  -1    2.76    0.23
   2 -11  -1    1.99    0.22
  -2  11   1    2.17    0.23
  -2  11   1    1.96    0.24
  -2  11   1    2.36    0.22
  -2  11   1    2.48    0.24
  -2  11   1    2.13    0.43
   1 -11  -1    0.15    0.10
   1 -11  -1    0.24    0.10
   1 -11  -1    0.23    0.12
  -1  11   1    0.22    0.09
  -1  11   1    0.20    0.16
  -1  11   1   -0.03    0.09
  -1  11   1    0.13    0.11
  -1  11   1    0.12    0.10
   0 -11  -1    0.52    0.14
   0 -11  -1    0.30    0.12
   0  11   1    0.81    0.24
   0  11   1    0.40    0.14
   0  11   1    0.41    0.13
   0  11   1    0.43    0.13
   0  11   1    0.46    0.12
   1  11   1    0.64    0.17
   4 -12  -1    0.41    0.12
   4 -12  -1    0.48    0.14
   4 -12  -1    0.46    0.14
  -4  12   1    0.57    0.13
  -4  12   1    0.36    0.12
   3 -12  -1    2.58    0.26
   3 -12  -1    2.22    0.24
   3 -12  -1    1.88    0.22
  -3  12   1    2.24    0.24
  -3  12   1    2.20    0.24
   2 -12  -1   -0.08    0.08
  -2  12   1   -0.04    0.09
  -1  12  -2    0.05    0.09
  -1  12  -2    0.12    0.11
   1 -12   2    0.10    0.11
   1 -12   2    0.37    0.13
  -2  12  -2    0.89    0.17
  -2  12  -2    1.00    0.16
  -2  12  -2    0.65    0.15
  -2  12  -2    1.26    0.29
  -2  12  -2    0.97    0.17
   2 -12   2    0.94    0.17
   2 -12   2    0.64    0.15
  -3  12  -2    1.40    0.31
  -3  12  -2    0.83    0.15
  -3  12  -2    1.03    0.18
  -3  12  -2    0.72    0.17
  -3  12  -2    0.47    0.14
   3 -12   2    0.79    0.15
   3 -12   2    0.78    0.15
   3 -12   2    0.76    0.15
  -4  12  -2    1.12    0.20
  -4  12  -2    1.42    0.19
  -4  12  -2    1.65    0.19
  -4  12  -2    1.59    0.20
   4 -12   2    1.12    0.18
   4 -12   2    2.00    0.22
   4 -12   2    1.44    0.20
   5 -12   2    0.27    0.11
   5 -12   2    0.10    0.09
   5 -12   2    0.29    0.11
   2  11  -2    0.28    0.12
   2  11  -2    0.33    0.12
   2  11  -2    1.20    0.28
  -2 -11   2    0.36    0.13
  -2 -11   2    0.69    0.15
   1  11  -2    1.62    0.32
   1  11  -2    1.22    0.18
   1  11  -2    0.91    0.17
   1  11  -2    1.00    0.16
  -1 -11   2    0.82    0.17
  -1 -11   2    0.85    0.16
   0  11  -2    0.91    0.17
   0  11  -2    0.61    0.15
   0  11  -2    0.46    0.12
   0  11  -2    0.86    0.16
   0  11  -2    1.25    0.27
   0 -11   2    0.69    0.15
   0 -11   2    0.80    0.16
  -1  11  -2    0.13    0.08
  -1  11  -2    0.20    0.10
  -1  11  -2    0.15    0.10
  -1  11  -2    0.56    0.20
  -1  11  -2    0.20    0.11
   1 -11   2    0.19    0.10
   1 -11   2    0.27    0.11
  -2  11  -2    0.14    0.11
  -2  11  -2    0.23    0.10
  -2  11  -2    0.26    0.12
  -2  11  -2    0.69    0.21
  -2  11  -2    0.19    0.11
   2 -11   2    0.19    0.10
   2 -11   2    0.37    0.11
   2 -11   2    0.17    0.11
  -3  11  -2    3.29    0.23
  -3  11  -2    2.94    0.22
  -3  11  -2    3.06    0.22
  -3  11  -2    3.22    0.26
  -3  11  -2    3.69    0.41
   3 -11   2    3.46    0.23
   3 -11   2    3.31    0.24
   3 -11   2    3.00    0.23
  -4  11  -2    3.83    0.47
  -4  11  -2    3.77    0.28
  -4  11  -2    5.01    0.28
  -4  11  -2    4.65    0.27
  -4  11  -2    4.81    0.26
   4 -11   2    4.51    0.27
   4 -11   2    4.48    0.27
   4 -11   2    5.06    0.29
  -5  11  -2    1.87    0.21
  -5  11  -2    2.14    0.24
  -5  11  -2    1.77    0.39
  -5  11  -2    1.95    0.20
  -5  11  -2    1.88    0.19
   5 -11   2    1.99    0.22
   5 -11   2    2.18    0.21
   5 -11   2    1.94    0.20
  -6  11  -2    1.04    0.33
  -6  11  -2    1.44    0.19
   6 -11   2    1.56    0.20
  -7  11  -2    0.55    0.14
   4  10  -2    0.25    0.12
   4  10  -2    0.32    0.13
  -4 -10   2    0.27    0.12
  -4 -10   2    0.12    0.11
   3  10  -2   -0.06    0.07
   3  10  -2   -0.01    0.09
   3  10  -2   -0.05    0.08
  -3 -10   2   -0.01    0.08
  -3 -10   2    0.11    0.09
   2  10  -2   -0.06    0.07
   2  10  -2   -0.04    0.07
   2  10  -2    0.38    0.16
   2  10  -2   -0.05    0.08
  -2 -10   2   -0.04    0.08
  -2 -10   2    0.13    0.09
   1  10  -2    5.81    0.33
   1  10  -2    6.56    0.32
   1  10  -2    6.09    0.33
   1  10  -2    6.67    0.54
  -1 -10   2    6.18    0.33
  -1 -10   2    6.89    0.34
   0  10  -2    6.90    0.34
   0  10  -2    7.15    0.33
   0  10  -2    6.70    0.34
   0  10  -2    7.83    0.59
   0 -10   2    7.16    0.34
   0 -10   2    7.63    0.35
   0 -10   2    7.76    0.30
  -1  10  -2    0.89    0.14
  -1  10  -2    0.93    0.15
  -1  10  -2    0.72    0.15
  -1  10  -2    1.06    0.28
  -1  10  -2    0.83    0.14
   1 -10   2    0.68    0.13
   1 -10   2    1.05    0.13
   1 -10   2    0.54    0.13
  -2  10  -2    0.13    0.08
  -2  10  -2    0.23    0.16
  -2  10  -2   -0.01    0.07
  -2  10  -2   -0.05    0.05
  -2  10  -2    0.08    0.07
   2 -10   2    0.17    0.09
   2 -10   2   -0.04    0.06
   2 -10   2   -0.05    0.06
  -3  10  -2    0.77    0.14
  -3  10  -2    0.71    0.12
  -3  10  -2    1.15    0.28
  -3  10  -2    0.82    0.14
  -3  10  -2    0.66    0.13
  -3  10  -2    0.84    0.13
   3 -10   2    0.59    0.12
   3 -10   2    0.55    0.12
   3 -10   2    0.62    0.12
  -4  10  -2    1.31    0.16
  -4  10  -2    1.27    0.16
  -4  10  -2    1.50    0.16
  -4  10  -2    1.41    0.33
  -4  10  -2    1.14    0.15
  -4  10  -2    1.09    0.17
   4 -10   2    1.65    0.18
   4 -10   2    1.75    0.18
   4 -10   2    1.60    0.18
  -5  10  -2    0.88    0.13
  -5  10  -2    1.30    0.16
  -5  10  -2    1.19    0.18
  -5  10  -2    1.14    0.15
  -5  10  -2    1.11    0.16
  -5  10  -2    1.08    0.30
   5 -10   2    1.29    0.16
   5 -10   2    1.18    0.15
   5 -10   2    1.30    0.17
  -6  10  -2    1.81    0.39
  -6  10  -2    1.83    0.21
   6 -10   2    1.89    0.22
   6 -10   2    1.70    0.18
  -7  10  -2    2.54    0.45
  -7  10  -2    2.33    0.25
   7 -10   2    2.36    0.25
  -8  10  -2    0.25    0.12
  -8  10  -2    0.16    0.19
  -6  -9   2    0.27    0.11
   5   9  -2   -0.07    0.08
   5   9  -2    0.01    0.08
   5   9  -2   -0.02    0.09
  -5  -9   2    0.06    0.09
  -5  -9   2    0.10    0.10
   4   9  -2   -0.04    0.08
   4   9  -2   -0.05    0.06
   4   9  -2   -0.04    0.07
  -4  -9   2    0.04    0.08
  -4  -9   2    0.00    0.08
   3   9  -2    3.65    0.26
   3   9  -2    3.87    0.26
   3   9  -2    3.94    0.25
  -3  -9   2    4.43    0.27
  -3  -9   2    4.23    0.27
   2   9  -2    9.33    0.39
   2   9  -2    9.08    0.40
   2   9  -2    9.86    0.39
  -2  -9   2    9.56    0.40
  -2  -9   2    9.40    0.39
   1   9  -2    0.43    0.11
   1   9  -2    0.13    0.08
   1   9  -2    0.19    0.09
   1   9  -2    0.25    0.17
  -1  -9   2    0.25    0.07
  -1  -9   2    0.36    0.10
  -1  -9   2    0.21    0.09
   0   9  -2   -0.10    0.06
   0   9  -2   -0.05    0.05
   0   9  -2    0.21    0.14
   0   9  -2    0.02    0.07
   0  -9   2   -0.01    0.06
   0  -9   2    0.09    0.06
   0  -9   2    0.12    0.08
  -1   9  -2    2.28    0.19
  -1   9  -2    2.26    0.18
  -1   9  -2    1.76    0.17
  -1   9  -2    2.02    0.17
  -1   9  -2    1.85    0.14
  -1   9  -2    2.29    0.30
   1  -9   2    1.99    0.19
   1  -9   2    1.68    0.18
   1  -9   2    1.87    0.14
  -2   9  -2    8.75    0.35
  -2   9  -2    9.39    0.63
  -2   9  -2    9.72    0.35
  -2   9  -2    9.48    0.37
  -2   9  -2    9.55    0.33
  -2   9  -2    9.50    0.39
   2  -9   2    9.26    0.34
   2  -9   2    9.72    0.36
   2  -9   2    9.73    0.37
  -3   9  -2   11.42    0.40
  -3   9  -2   11.57    0.40
  -3   9  -2   11.40    0.44
  -3   9  -2   11.40    0.40
  -3   9  -2   11.75    0.39
  -3   9  -2   11.13    0.71
   3  -9   2   11.78    0.40
   3  -9   2   11.13    0.40
   3  -9   2   11.18    0.40
  -4   9  -2    4.92    0.23
  -4   9  -2    4.66    0.27
  -4   9  -2    4.28    0.23
  -4   9  -2    4.02    0.24
  -4   9  -2    4.27    0.43
  -4   9  -2    4.05    0.22
   4  -9   2    4.47    0.25
   4  -9   2    4.56    0.24
   4  -9   2    4.44    0.23
  -5   9  -2    0.52    0.12
  -5   9  -2    0.56    0.11
  -5   9  -2    0.57    0.10
  -5   9  -2    0.63    0.23
  -5   9  -2    0.61    0.13
  -5   9  -2    0.86    0.12
  -5   9  -2    0.63    0.13
   5  -9   2    0.65    0.11
   5  -9   2    0.56    0.12
   5  -9   2    0.58    0.10
  -6   9  -2    4.09    0.21
  -6   9  -2    3.94    0.44
  -6   9  -2    4.05    0.26
  -6   9  -2    4.06    0.21
  -6   9  -2    4.12    0.26
   6  -9   2    3.78    0.21
   6  -9   2    3.75    0.21
   6  -9   2    3.91    0.25
  -7   9  -2    0.70    0.14
  -7   9  -2    0.57    0.24
   7  -9   2    0.67    0.14
  -8   9  -2    6.21    0.36
  -8   9  -2    5.70    0.56
   7   8  -2    0.70    0.15
   7   8  -2    0.49    0.13
  -7  -8   2    0.96    0.17
   6   8  -2    0.64    0.15
   6   8  -2    0.93    0.14
   6   8  -2    0.67    0.14
  -6  -8   2    0.69    0.15
  -6  -8   2    0.93    0.16
  -6  -8   2    0.68    0.14
   5   8  -2    0.70    0.14
   5   8  -2    0.36    0.11
   5   8  -2    0.58    0.12
  -5  -8   2    0.65    0.13
  -5  -8   2    0.30    0.11
   4   8  -2    1.28    0.17
   4   8  -2    1.11    0.16
   4   8  -2    1.04    0.15
  -4  -8   2    1.28    0.17
  -4  -8   2    1.41    0.17
   3   8  -2    2.07    0.19
   3   8  -2    2.28    0.19
   3   8  -2    2.20    0.18
  -3  -8   2    2.78    0.20
  -3  -8   2    2.14    0.20
   2   8  -2    0.70    0.12
   2   8  -2    0.82    0.13
   2   8  -2    0.71    0.12
  -2  -8   2    0.94    0.10
  -2  -8   2    0.52    0.11
  -2  -8   2    0.63    0.11
   1   8  -2    5.43    0.26
   1   8  -2    5.14    0.26
   1   8  -2    5.04    0.25
  -1  -8   2    5.91    0.22
  -1  -8   2    5.08    0.26
  -1  -8   2    4.75    0.25
   0   8  -2   -0.06    0.11
   0   8  -2    0.06    0.06
   0   8  -2   -0.01    0.03
   0   8  -2    0.04    0.05
   0   8  -2    0.09    0.07
   0  -8   2    0.00    0.04
   0  -8   2    0.04    0.06
   0  -8   2   -0.02    0.06
  -1   8  -2    1.94    0.15
  -1   8  -2    1.83    0.15
  -1   8  -2    1.88    0.16
  -1   8  -2    1.97    0.32
  -1   8  -2    1.96    0.10
   1  -8   2    1.95    0.14
   1  -8   2    1.83    0.15
   1  -8   2    1.98    0.16
  -2   8  -2    2.75    0.19
  -2   8  -2    2.38    0.17
  -2   8  -2    2.41    0.12
  -2   8  -2    2.49    0.17
  -2   8  -2    2.33    0.19
  -2   8  -2    2.56    0.16
  -2   8  -2    2.55    0.30
  -2   8  -2    2.13    0.15
   2  -8   2    2.48    0.16
   2  -8   2    2.71    0.17
   2  -8   2    2.45    0.17
  -3   8  -2    4.89    0.23
  -3   8  -2    4.96    0.23
  -3   8  -2    5.17    0.27
  -3   8  -2    5.00    0.43
  -3   8  -2    5.24    0.24
  -3   8  -2    5.35    0.27
  -3   8  -2    4.89    0.18
   3  -8   2    4.87    0.24
   3  -8   2    5.09    0.24
  -4   8  -2   53.09    1.21
  -4   8  -2   52.18    1.27
  -4   8  -2   51.19    1.98
  -4   8  -2   52.07    1.12
  -4   8  -2   49.91    1.19
  -4   8  -2   50.77    1.10
  -4   8  -2   53.54    1.06
   4  -8   2   52.23    1.16
   4  -8   2   50.68    1.10
  -5   8  -2    0.91    0.11
  -5   8  -2    1.19    0.28
  -5   8  -2    0.93    0.14
  -5   8  -2    1.04    0.14
  -5   8  -2    0.85    0.14
  -5   8  -2    0.98    0.12
   5  -8   2    0.92    0.12
   5  -8   2    1.11    0.14
  -6   8  -2    3.13    0.21
  -6   8  -2    3.13    0.23
  -6   8  -2    3.30    0.18
  -6   8  -2    3.46    0.38
   6  -8   2    3.06    0.18
  -7   8  -2    0.47    0.21
  -7   8  -2    0.59    0.13
  -8   8  -2   -0.03    0.08
  -8   8  -2    0.02    0.14
  -9   8  -2    5.20    0.34
   7   7  -2    1.41    0.17
   7   7  -2    1.05    0.16
   7   7  -2    0.78    0.14
  -7  -7   2    1.26    0.18
  -7  -7   2    1.36    0.18
   6   7  -2    0.16    0.08
   6   7  -2    0.12    0.08
   6   7  -2    0.18    0.10
  -6  -7   2    0.18    0.09
  -6  -7   2    0.12    0.08
  -6  -7   2    0.22    0.10
   5   7  -2    2.69    0.20
   5   7  -2    2.49    0.19
   5   7  -2    2.42    0.19
  -5  -7   2    2.36    0.19
  -5  -7   2    2.46    0.19
   4   7  -2    1.71    0.17
   4   7  -2    1.48    0.16
   4   7  -2    1.89    0.19
  -4  -7   2    1.65    0.17
  -4  -7   2    1.52    0.17
   3   7  -2   15.72    0.47
   3   7  -2   15.41    0.50
   3   7  -2   16.43    0.50
  -3  -7   2   16.41    0.50
  -3  -7   2   16.19    0.48
  -3  -7   2   15.60    0.40
   2   7  -2   15.97    0.47
   2   7  -2   15.79    0.49
   2   7  -2   16.31    0.50
  -2  -7   2   16.99    0.49
  -2  -7   2   17.91    0.51
  -2  -7   2   16.08    0.41
   1   7  -2    4.44    0.23
   1   7  -2    4.96    0.24
   1   7  -2    4.56    0.22
  -1  -7   2    5.00    0.19
  -1  -7   2    5.43    0.24
  -1  -7   2    5.16    0.24
   0   7  -2   16.89    0.49
   0   7  -2   16.31    0.47
   0   7  -2   16.40    0.79
   0   7  -2   16.57    0.45
   0  -7   2   16.89    0.47
   0  -7   2   15.46    0.47
   0  -7   2   17.12    0.43
  -1   7  -2    7.87    0.22
  -1   7  -2    8.35    0.34
  -1   7  -2    8.30    0.30
  -1   7  -2    7.98    0.30
  -1   7  -2    7.77    0.50
   1  -7   2    7.99    0.27
   1  -7   2    7.91    0.29
  -2   7  -2   14.82    0.49
  -2   7  -2   14.51    0.74
  -2   7  -2   15.10    0.43
  -2   7  -2   14.93    0.42
  -2   7  -2   14.25    0.34
  -2   7  -2   14.33    0.45
  -2   7  -2   15.02    0.43
   2  -7   2   14.89    0.42
   2  -7   2   14.25    0.42
  -3   7  -2   31.76    0.85
  -3   7  -2   32.74    0.68
  -3   7  -2   33.33    0.75
  -3   7  -2   32.85    0.80
  -3   7  -2   30.77    1.30
  -3   7  -2   32.47    0.75
  -3   7  -2   32.06    0.74
  -3   7  -2   32.22    0.79
   3  -7   2   33.71    0.77
   3  -7   2   32.50    0.74
  -4   7  -2    0.07    0.06
  -4   7  -2    0.11    0.06
  -4   7  -2    0.10    0.05
  -4   7  -2    0.05    0.06
  -4   7  -2    0.13    0.13
  -4   7  -2    0.01    0.04
  -4   7  -2    0.09    0.06
  -4   7  -2    0.03    0.05
   4  -7   2    0.09    0.06
  -5   7  -2    0.11    0.06
  -5   7  -2    0.11    0.12
  -5   7  -2    0.17    0.06
  -5   7  -2    0.10    0.07
  -5   7  -2    0.06    0.05
  -5   7  -2    0.08    0.05
   5  -7   2    0.12    0.06
  -6   7  -2    2.75    0.33
  -6   7  -2    3.02    0.16
  -6   7  -2    2.94    0.16
  -6   7  -2    2.85    0.15
  -6   7  -2    2.84    0.19
  -6   7  -2    2.71    0.20
   6  -7   2    2.76    0.15
  -7   7  -2   11.44    0.72
  -7   7  -2   12.14    0.47
  -8   7  -2    1.33    0.19
  -8   7  -2    1.17    0.29
  -9   7  -2    1.11    0.18
  -8  -6   2    0.31    0.11
  -8  -6   2    0.30    0.10
   7   6  -2    0.76    0.12
   7   6  -2    0.72    0.13
   7   6  -2    0.85    0.14
  -7  -6   2    0.64    0.12
  -7  -6   2    0.55    0.12
   6   6  -2    2.54    0.18
   6   6  -2    2.55    0.20
   6   6  -2    2.59    0.19
  -6  -6   2    2.49    0.18
  -6  -6   2    2.72    0.20
  -6  -6   2    2.38    0.18
   5   6  -2    0.02    0.07
   5   6  -2    0.11    0.07
   5   6  -2    0.02    0.06
  -5  -6   2    0.06    0.07
  -5  -6   2    0.04    0.06
  -5  -6   2   -0.03    0.05
   4   6  -2    6.60    0.28
   4   6  -2    6.83    0.29
   4   6  -2    6.58    0.27
  -4  -6   2    7.02    0.29
  -4  -6   2    7.19    0.22
  -4  -6   2    6.92    0.23
  -4  -6   2    6.82    0.28
   3   6  -2   17.27    0.50
   3   6  -2   16.73    0.46
   3   6  -2   16.83    0.48
  -3  -6   2   17.54    0.40
  -3  -6   2   16.33    0.41
  -3  -6   2   16.68    0.47
  -3  -6   2   17.19    0.48
   2   6  -2    5.25    0.22
   2   6  -2    4.67    0.23
   2   6  -2    5.15    0.23
  -2  -6   2    5.34    0.23
  -2  -6   2    5.07    0.18
  -2  -6   2    5.39    0.23
   1   6  -2    9.82    0.31
   1   6  -2    9.45    0.32
   1   6  -2    9.45    0.33
  -1  -6   2    9.44    0.32
  -1  -6   2    9.69    0.27
  -1  -6   2    9.35    0.31
   0   6  -2    2.11    0.14
   0   6  -2    1.93    0.15
   0   6  -2    1.95    0.13
   0   6  -2    1.70    0.22
   0  -6   2    1.86    0.13
   0  -6   2    2.14    0.12
  -1   6  -2   65.46    1.28
  -1   6  -2   62.37    2.20
  -1   6  -2   60.87    1.19
  -1   6  -2   63.71    1.30
  -1   6  -2   63.98    1.45
  -1   6  -2   66.28    1.29
   1  -6   2   63.92    1.27
   1  -6   2   64.79    1.28
  -2   6  -2    8.64    0.28
  -2   6  -2    9.37    0.31
  -2   6  -2    8.29    0.49
  -2   6  -2    8.78    0.33
  -2   6  -2    8.46    0.28
  -2   6  -2    8.68    0.23
  -2   6  -2    8.88    0.29
   2  -6   2    8.62    0.28
   2  -6   2    8.35    0.28
  -3   6  -2   10.06    0.30
  -3   6  -2    9.66    0.26
  -3   6  -2    9.81    0.30
  -3   6  -2   10.02    0.33
  -3   6  -2    9.77    0.55
  -3   6  -2    9.61    0.32
  -3   6  -2    9.75    0.34
  -3   6  -2   10.40    0.31
   3  -6   2    8.85    0.29
  -4   6  -2    0.21    0.13
  -4   6  -2    0.32    0.08
  -4   6  -2    0.24    0.05
  -4   6  -2    0.31    0.07
  -4   6  -2    0.32    0.08
  -4   6  -2    0.31    0.08
  -4   6  -2    0.29    0.06
  -4   6  -2    0.27    0.06
   4  -6   2    0.27    0.06
  -5   6  -2    7.18    0.49
  -5   6  -2    7.71    0.25
  -5   6  -2    7.46    0.29
  -5   6  -2    7.61    0.25
  -5   6  -2    8.25    0.32
  -5   6  -2    7.49    0.25
   5  -6   2    7.66    0.25
  -6   6  -2    3.33    0.21
  -6   6  -2    2.64    0.31
  -6   6  -2    3.03    0.18
  -6   6  -2    3.45    0.15
  -6   6  -2    3.19    0.15
  -6   6  -2    3.07    0.14
   6  -6   2    3.57    0.16
  -7   6  -2    2.59    0.20
  -7   6  -2    2.66    0.32
  -8   6  -2    9.73    0.42
  -9   6  -2    1.79    0.22
 -10   6  -2   -0.02    0.09
  -8  -5   2    3.64    0.26
  -8  -5   2    3.49    0.23
   7   5  -2    0.44    0.10
   7   5  -2    0.59    0.10
   7   5  -2    0.23    0.09
  -7  -5   2    0.29    0.09
  -7  -5   2    0.24    0.08
   6   5  -2    1.05    0.14
   6   5  -2    0.93    0.12
   6   5  -2    1.10    0.13
  -6  -5   2    1.03    0.11
  -6  -5   2    1.23    0.14
  -6  -5   2    0.78    0.11
  -6  -5   2    1.01    0.14
   5   5  -2    1.98    0.14
   5   5  -2    2.10    0.15
   5   5  -2    1.95    0.15
  -5  -5   2    2.10    0.15
  -5  -5   2    2.02    0.12
  -5  -5   2    2.19    0.15
  -5  -5   2    2.06    0.16
   4   5  -2    2.65    0.16
   4   5  -2    2.89    0.18
   4   5  -2    2.91    0.16
  -4  -5   2    2.72    0.16
  -4  -5   2    2.94    0.13
  -4  -5   2    3.17    0.18
   3   5  -2   55.53    1.11
   3   5  -2   54.92    1.15
   3   5  -2   57.42    1.18
  -3  -5   2   56.58    1.15
  -3  -5   2   53.81    1.08
  -3  -5   2   57.52    1.14
  -3  -5   2   55.59    1.09
   2   5  -2   10.12    0.32
   2   5  -2   10.05    0.30
   2   5  -2   10.73    0.32
  -2  -5   2    9.72    0.31
  -2  -5   2   10.00    0.31
  -2  -5   2    9.81    0.26
   1   5  -2    6.87    0.25
   1   5  -2    7.01    0.24
   1   5  -2    6.95    0.23
  -1  -5   2    6.58    0.20
  -1  -5   2    7.10    0.25
   0   5  -2    0.11    0.05
   0   5  -2    0.10    0.05
   0   5  -2    0.26    0.06
   0   5  -2    0.08    0.04
   0   5  -2    0.16    0.10
   0  -5   2    0.18    0.04
   0  -5   2    0.16    0.05
  -1   5  -2    0.13    0.05
  -1   5  -2    0.11    0.05
  -1   5  -2    0.13    0.05
  -1   5  -2    0.14    0.09
  -1   5  -2    0.12    0.03
  -1   5  -2    0.08    0.04
   1  -5   2    0.16    0.05
   1  -5   2    0.19    0.05
   1  -5   2    0.13    0.05
  -2   5  -2   52.49    1.84
  -2   5  -2   54.13    1.07
  -2   5  -2   52.82    1.01
  -2   5  -2   53.08    1.21
  -2   5  -2   53.27    1.06
  -2   5  -2   53.19    1.06
  -2   5  -2   54.12    1.12
   2  -5   2   53.99    1.06
   2  -5   2   53.03    1.20
  -3   5  -2   24.92    0.53
  -3   5  -2   25.42    0.62
  -3   5  -2   24.43    1.00
  -3   5  -2   24.37    0.56
  -3   5  -2   25.54    0.60
  -3   5  -2   25.21    0.64
  -3   5  -2   25.34    0.56
  -3   5  -2   24.95    0.55
   3  -5   2   23.71    0.55
  -4   5  -2   11.80    0.32
  -4   5  -2   11.57    0.32
  -4   5  -2   12.10    0.37
  -4   5  -2   11.92    0.38
  -4   5  -2   12.25    0.36
  -4   5  -2   12.50    0.62
  -4   5  -2   12.29    0.32
   4  -5   2   12.10    0.32
  -5   5  -2    1.27    0.10
  -5   5  -2    1.44    0.10
  -5   5  -2    1.36    0.24
  -5   5  -2    1.50    0.09
  -5   5  -2    1.50    0.13
  -5   5  -2    1.20    0.11
   5  -5   2    1.71    0.10
  -6   5  -2    0.02    0.04
  -6   5  -2    0.01    0.04
  -6   5  -2    0.01    0.06
  -6   5  -2   -0.02    0.09
  -6   5  -2    0.04    0.05
   6  -5   2    0.03    0.04
  -7   5  -2    8.36    0.36
  -8   5  -2    8.37    0.38
  -9   5  -2    7.01    0.37
 -10   5  -2    0.06    0.09
  -9  -4   2    0.15    0.10
  -9  -4   2    0.16    0.08
  -8  -4   2    0.32    0.10
  -8  -4   2    0.26    0.08
   7   4  -2    2.15    0.16
   7   4  -2    2.16    0.15
   7   4  -2    2.30    0.15
  -7  -4   2    2.24    0.15
  -7  -4   2    2.13    0.15
  -7  -4   2    2.48    0.18
  -7  -4   2    2.36    0.15
  -7  -4   2    1.94    0.19
   6   4  -2    3.83    0.20
   6   4  -2    3.90    0.18
   6   4  -2    3.94    0.19
  -6  -4   2    3.45    0.17
  -6  -4   2    3.58    0.18
  -6  -4   2    3.86    0.19
  -6  -4   2    3.41    0.21
   5   4  -2    1.04    0.11
   5   4  -2    0.96    0.11
   5   4  -2    1.00    0.12
  -5  -4   2    1.06    0.10
  -5  -4   2    1.01    0.11
  -5  -4   2    0.90    0.12
  -5  -4   2    1.02    0.11
   4   4  -2   57.19    1.19
   4   4  -2   56.14    1.16
   4   4  -2   55.78    1.11
  -4  -4   2   59.54    1.15
  -4  -4   2   59.32    1.14
  -4  -4   2   59.59    1.17
   3   4  -2    3.82    0.18
   3   4  -2    3.94    0.17
   3   4  -2    4.35    0.17
   3   4  -2    4.10    0.13
  -3  -4   2    4.11    0.17
  -3  -4   2    4.22    0.17
  -3  -4   2    4.18    0.14
  -3  -4   2    4.03    0.15
   2   4  -2  126.25    2.33
   2   4  -2  124.64    2.20
   2   4  -2  122.10    2.25
   2   4  -2  123.85    2.28
  -2  -4   2  122.23    2.25
  -2  -4   2  122.34    2.28
  -2  -4   2  124.33    2.26
   1   4  -2   59.75    1.12
   1   4  -2   60.61    1.16
   1   4  -2   58.55    1.17
   1   4  -2   60.66    1.32
   1   4  -2   59.98    1.19
  -1  -4   2   59.55    1.16
  -1  -4   2   58.68    1.12
  -1  -4   2   60.05    1.31
   0   4  -2   26.33    0.58
   0   4  -2   26.60    0.58
   0   4  -2   26.93    0.59
   0   4  -2   28.15    0.99
   0   4  -2   26.71    0.66
   0  -4   2   26.22    0.55
   0  -4   2   27.53    0.58
   0  -4   2   26.76    0.66
  -1   4  -2   19.71    0.46
  -1   4  -2   21.00    0.53
  -1   4  -2   20.80    0.79
  -1   4  -2   19.97    0.40
  -1   4  -2   19.81    0.46
  -1   4  -2   19.97    0.46
   1  -4   2   20.80    0.46
   1  -4   2   20.26    0.52
  -2   4  -2    6.26    0.21
  -2   4  -2    6.05    0.35
  -2   4  -2    6.45    0.20
  -2   4  -2    6.32    0.20
  -2   4  -2    6.75    0.24
  -2   4  -2    6.42    0.17
  -2   4  -2    6.13    0.20
   2  -4   2    6.34    0.20
   2  -4   2    6.62    0.17
  -3   4  -2    3.53    0.27
  -3   4  -2    3.70    0.14
  -3   4  -2    3.83    0.17
  -3   4  -2    4.09    0.18
  -3   4  -2    3.68    0.16
  -3   4  -2    3.51    0.14
   3  -4   2    3.60    0.14
   3  -4   2    3.82    0.16
  -4   4  -2   59.79    1.15
  -4   4  -2   59.53    1.16
  -4   4  -2   61.50    1.29
  -4   4  -2   60.15    2.07
  -4   4  -2   61.22    1.32
   4  -4   2   61.01    1.15
   4  -4   2   60.16    1.23
  -5   4  -2   80.09    2.77
  -5   4  -2   83.16    1.76
  -5   4  -2   83.76    1.55
  -5   4  -2   83.51    1.74
  -5   4  -2   83.65    1.54
   5  -4   2   82.78    1.54
  -6   4  -2    0.60    0.07
  -6   4  -2    0.69    0.07
  -6   4  -2    0.76    0.09
  -6   4  -2    0.63    0.10
   6  -4   2    0.80    0.08
  -7   4  -2    0.06    0.05
  -7   4  -2    0.19    0.07
   7  -4   2    0.13    0.04
  -8   4  -2    3.66    0.24
  -9   4  -2    7.80    0.38
 -10   4  -2    0.06    0.09
  -9  -3   2   -0.03    0.07
  -9  -3   2    0.00    0.07
  -8  -3   2    2.08    0.20
  -8  -3   2    1.91    0.19
   7   3  -2    2.02    0.13
   7   3  -2    2.08    0.14
   7   3  -2    2.27    0.14
  -7  -3   2    2.18    0.16
  -7  -3   2    1.99    0.15
  -7  -3   2    2.23    0.17
  -7  -3   2    2.44    0.14
   6   3  -2   17.64    0.43
   6   3  -2   17.59    0.44
   6   3  -2   17.88    0.47
  -6  -3   2   16.90    0.46
  -6  -3   2   17.93    0.45
  -6  -3   2   17.96    0.52
  -6  -3   2   18.59    0.44
   5   3  -2   12.12    0.34
   5   3  -2   12.87    0.33
   5   3  -2   11.93    0.35
  -5  -3   2   11.86    0.38
  -5  -3   2   13.16    0.34
  -5  -3   2   13.44    0.34
  -5  -3   2   11.87    0.34
   4   3  -2   32.19    0.66
   4   3  -2   32.11    0.69
   4   3  -2   32.11    0.71
  -4  -3   2   32.08    0.69
  -4  -3   2   33.65    0.69
  -4  -3   2   32.27    0.73
  -4  -3   2   33.37    0.68
   3   3  -2    2.24    0.12
   3   3  -2    2.33    0.09
   3   3  -2    2.18    0.11
   3   3  -2    2.49    0.12
  -3  -3   2    2.60    0.12
  -3  -3   2    2.22    0.11
  -3  -3   2    2.14    0.12
  -3  -3   2    2.34    0.11
   2   3  -2    2.25    0.08
   2   3  -2    2.09    0.11
   2   3  -2    2.29    0.11
   2   3  -2    2.22    0.11
  -2  -3   2    2.27    0.08
  -2  -3   2    1.97    0.10
  -2  -3   2    2.02    0.11
  -2  -3   2    2.22    0.12
   1   3  -2  105.49    1.97
   1   3  -2  108.15    1.96
   1   3  -2  108.08    2.22
   1   3  -2  105.94    2.00
   1   3  -2  107.22    1.95
  -1  -3   2  110.10    1.96
  -1  -3   2  107.39    1.98
  -1  -3   2  109.06    2.22
   0   3  -2   24.51    0.52
   0   3  -2   24.38    0.51
   0   3  -2   24.58    0.86
   0   3  -2   24.82    0.58
   0   3  -2   24.53    0.52
   0  -3   2   23.93    0.49
   0  -3   2   24.74    0.51
   0  -3   2   24.55    0.58
  -1   3  -2   15.52    0.35
  -1   3  -2   16.16    0.61
  -1   3  -2   15.70    0.30
  -1   3  -2   15.74    0.36
  -1   3  -2   14.77    0.40
   1  -3   2   15.67    0.35
   1  -3   2   15.57    0.30
  -2   3  -2    1.28    0.14
  -2   3  -2    1.27    0.09
  -2   3  -2    1.27    0.08
  -2   3  -2    1.20    0.07
  -2   3  -2    1.42    0.08
   2  -3   2    1.35    0.08
   2  -3   2    1.17    0.08
   2  -3   2    1.31    0.06
  -3   3  -2   33.45    0.74
  -3   3  -2   33.11    0.66
  -3   3  -2   32.29    0.66
  -3   3  -2   32.19    1.18
   3  -3   2   34.10    0.66
   3  -3   2   33.25    0.70
  -4   3  -2   39.16    0.77
  -4   3  -2   40.63    0.84
  -4   3  -2   39.28    0.78
  -4   3  -2   39.49    1.42
  -4   3  -2   40.82    0.89
   4  -3   2   40.12    0.78
   4  -3   2   38.86    0.83
  -5   3  -2   12.44    0.31
  -5   3  -2   12.46    0.30
  -5   3  -2   12.67    0.33
  -5   3  -2   13.26    0.40
   5  -3   2   12.64    0.31
   5  -3   2   12.50    0.33
  -6   3  -2   15.76    0.48
  -6   3  -2   16.78    0.42
  -6   3  -2   16.31    0.38
  -6   3  -2   16.08    0.38
   6  -3   2   16.24    0.38
  -7   3  -2   14.96    0.36
  -7   3  -2   14.79    0.36
  -7   3  -2   15.22    0.49
  -7   3  -2   14.90    0.39
   7  -3   2   15.20    0.36
  -8   3  -2    0.02    0.06
  -9   3  -2    0.68    0.13
 -10   3  -2    5.61    0.33
 -10  -2   2    1.35    0.18
 -10  -2   2    1.15    0.18
  -9  -2   2    0.01    0.07
  -9  -2   2    0.07    0.07
  -8  -2   2    7.80    0.32
  -8  -2   2    7.79    0.34
   7   2  -2    9.51    0.27
   7   2  -2    9.39    0.28
   7   2  -2    9.25    0.26
  -7  -2   2    9.21    0.32
  -7  -2   2    9.29    0.27
  -7  -2   2    8.81    0.32
  -7  -2   2    9.86    0.36
   6   2  -2    0.23    0.05
   6   2  -2    0.26    0.06
   6   2  -2    0.31    0.05
  -6  -2   2    0.34    0.06
  -6  -2   2    0.29    0.05
  -6  -2   2    0.16    0.06
  -6  -2   2    0.17    0.06
  -6  -2   2    0.23    0.07
   5   2  -2   44.77    0.88
   5   2  -2   44.35    0.83
   5   2  -2   43.40    0.86
  -5  -2   2   43.79    0.84
  -5  -2   2   41.03    0.90
  -5  -2   2   43.38    0.86
  -5  -2   2   43.15    0.96
   4   2  -2   20.68    0.43
   4   2  -2   20.94    0.45
   4   2  -2   20.36    0.46
  -4  -2   2   20.28    0.50
  -4  -2   2   20.23    0.44
  -4  -2   2   20.31    0.43
  -4  -2   2   20.66    0.50
  -4  -2   2   19.77    0.47
   3   2  -2    0.08    0.02
   3   2  -2    0.11    0.03
   3   2  -2    0.15    0.03
   3   2  -2    0.05    0.03
  -3  -2   2    0.04    0.03
  -3  -2   2    0.04    0.03
  -3  -2   2    0.06    0.03
  -3  -2   2    0.00    0.02
  -3  -2   2    0.05    0.03
   2   2  -2    2.21    0.10
   2   2  -2    2.23    0.09
   2   2  -2    2.25    0.09
   2   2  -2    2.34    0.11
   2   2  -2    2.30    0.09
   2   2  -2    2.23    0.07
  -2  -2   2    2.13    0.10
  -2  -2   2    2.18    0.09
  -2  -2   2    2.16    0.10
  -2  -2   2    2.12    0.09
  -2  -2   2    1.99    0.09
  -2  -2   2    2.11    0.09
   1   2  -2   32.78    0.63
   1   2  -2   32.99    0.64
   1   2  -2   33.48    0.65
   1   2  -2   31.75    0.61
   1   2  -2   32.25    0.63
   1   2  -2   31.83    0.71
   1   2  -2   32.09    0.63
  -1  -2   2   32.40    0.63
  -1  -2   2   31.82    0.63
  -1  -2   2   32.65    0.71
  -1  -2   2   33.38    0.59
  -1  -2   2   32.41    0.63
   0   2  -2    6.67    0.18
   0   2  -2    6.30    0.19
   0   2  -2    6.56    0.17
   0   2  -2    6.79    0.28
   0   2  -2    6.95    0.17
   0  -2   2    6.68    0.17
   0  -2   2    6.62    0.17
   0  -2   2    6.45    0.17
   0  -2   2    7.05    0.28
  -1   2  -2  243.81    4.38
  -1   2  -2  250.23    4.53
  -1   2  -2  240.44    7.56
  -1   2  -2  240.35    4.68
  -1   2  -2  248.41    4.41
   1  -2   2  250.78    4.43
   1  -2   2  239.22    4.43
   1  -2   2  243.30    4.66
   1  -2   2  246.78    4.42
   1  -2   2  249.16    7.53
   1  -2   2  244.40    4.40
  -2   2  -2  223.70    6.90
  -2   2  -2  219.65    4.33
  -2   2  -2  217.99    3.94
  -2   2  -2  219.71    4.05
  -2   2  -2  225.11    3.98
   2  -2   2  220.65    4.01
   2  -2   2  227.07    4.27
   2  -2   2  227.30    4.14
   2  -2   2  226.03    3.97
   2  -2   2  213.28    3.98
   2  -2   2  222.76    4.07
  -3   2  -2   44.36    1.51
  -3   2  -2   44.19    0.84
  -3   2  -2   44.36    0.85
  -3   2  -2   45.06    0.94
  -3   2  -2   44.56    0.85
  -3   2  -2   44.33    0.91
   3  -2   2   45.88    0.85
   3  -2   2   44.75    0.85
   3  -2   2   45.02    0.84
   3  -2   2   45.62    0.91
  -4   2  -2    5.83    0.16
  -4   2  -2    5.32    0.18
  -4   2  -2    5.63    0.21
  -4   2  -2    5.07    0.17
  -4   2  -2    5.56    0.17
  -4   2  -2    5.59    0.17
   4  -2   2    5.70    0.17
   4  -2   2    5.79    0.18
  -5   2  -2   18.67    0.40
  -5   2  -2   18.06    0.40
  -5   2  -2   17.68    0.44
  -5   2  -2   17.79    0.41
  -5   2  -2   18.31    0.49
   5  -2   2   18.52    0.41
  -6   2  -2   52.57    1.09
  -6   2  -2   52.01    1.02
  -6   2  -2   52.38    1.01
  -6   2  -2   53.72    1.18
  -6   2  -2   53.29    1.02
   6  -2   2   52.27    1.02
  -7   2  -2    0.24    0.07
  -7   2  -2    0.29    0.06
  -7   2  -2    0.46    0.09
  -7   2  -2    0.29    0.06
  -7   2  -2    0.26    0.06
   7  -2   2    0.50    0.06
  -8   2  -2    2.63    0.17
  -8   2  -2    2.87    0.20
  -9   2  -2    0.04    0.06
  -9   2  -2    0.05    0.08
 -10   2  -2    1.23    0.18
 -10  -1   2    0.27    0.09
 -10  -1   2    0.26    0.10
  -9  -1   2    0.10    0.07
  -9  -1   2    0.07    0.08
  -8  -1   2    0.10    0.07
  -8  -1   2    0.12    0.07
   7   1  -2   17.20    0.38
  -7  -1   2   15.87    0.45
  -7  -1   2   15.82    0.47
  -7  -1   2   15.47    0.48
   6   1  -2   11.74    0.29
   6   1  -2   11.35    0.27
   6   1  -2   11.20    0.26
  -6  -1   2   11.69    0.35
  -6  -1   2   11.37    0.26
  -6  -1   2   10.81    0.27
  -6  -1   2   11.08    0.36
  -6  -1   2   11.26    0.34
   5   1  -2    0.39    0.05
   5   1  -2    0.41    0.05
   5   1  -2    0.44    0.05
   5   1  -2    0.41    0.04
  -5  -1   2    0.41    0.05
  -5  -1   2    0.39    0.06
  -5  -1   2    0.36    0.04
  -5  -1   2    0.36    0.06
  -5  -1   2    0.36    0.07
  -5  -1   2    0.37    0.05
   4   1  -2    2.04    0.08
   4   1  -2    2.16    0.09
   4   1  -2    2.17    0.09
   4   1  -2    2.09    0.08
  -4  -1   2    2.12    0.08
  -4  -1   2    2.18    0.09
  -4  -1   2    1.98    0.11
  -4  -1   2    2.17    0.11
  -4  -1   2    2.09    0.09
  -4  -1   2    1.99    0.11
  -4  -1   2    2.14    0.09
  -4  -1   2    1.97    0.08
  -4  -1   2    2.05    0.08
   3   1  -2  110.24    1.95
   3   1  -2  109.01    1.88
   3   1  -2  107.55    1.99
   3   1  -2  112.74    1.95
  -3  -1   2  106.16    1.92
  -3  -1   2  106.83    1.95
  -3  -1   2  110.74    1.99
  -3  -1   2  113.87    2.03
  -3  -1   2  109.91    2.02
  -3  -1   2  109.66    1.96
  -3  -1   2  113.05    2.20
  -3  -1   2  107.17    1.95
   2   1  -2   56.66    1.03
   2   1  -2   57.10    1.04
   2   1  -2   58.70    1.06
   2   1  -2   57.91    1.03
   2   1  -2   56.95    1.17
   2   1  -2   58.84    1.08
   2   1  -2   56.77    1.13
  -2  -1   2   56.14    1.04
  -2  -1   2   56.06    1.03
  -2  -1   2   56.75    1.17
  -2  -1   2   56.75    1.07
  -2  -1   2   57.31    1.03
  -2  -1   2   57.16    1.07
   1   1  -2  121.08    2.50
   1   1  -2  119.89    2.27
   1   1  -2  121.13    2.21
   1   1  -2  124.94    2.17
   1   1  -2  124.49    2.17
  -1  -1   2  127.38    2.17
  -1  -1   2  120.74    2.23
  -1  -1   2  125.85    2.23
  -1  -1   2  124.40    2.17
   0   1  -2   48.14    0.97
   0   1  -2   50.88    0.92
   0   1  -2   50.43    1.55
   0   1  -2   51.72    0.92
   0   1  -2   50.84    0.92
   0  -1   2   52.08    0.92
   0  -1   2   51.13    0.92
   0  -1   2   50.82    0.91
   0  -1   2   49.41    0.97
   0  -1   2   49.82    1.55
   0  -1   2   49.81    0.91
  -1   1  -2  122.51    3.61
  -1   1  -2  116.05    2.09
  -1   1  -2  117.41    2.14
  -1   1  -2  118.18    2.16
  -1   1  -2  117.17    2.23
   1  -1   2  117.88    2.21
   1  -1   2  123.27    3.68
   1  -1   2  120.81    2.10
   1  -1   2  115.81    2.11
   1  -1   2  118.15    2.23
   1  -1   2  117.07    2.18
  -2   1  -2  112.43    2.02
  -2   1  -2  123.57    1.98
  -2   1  -2  115.46    2.10
  -2   1  -2  117.65    2.11
  -2   1  -2  115.45    2.09
  -2   1  -2  118.12    2.24
   2  -1   2  120.84    1.97
   2  -1   2  116.95    2.10
   2  -1   2  117.91    2.08
   2  -1   2  119.98    3.63
   2  -1   2  116.75    2.12
   2  -1   2  120.72    2.24
   2  -1   2  118.35    2.10
  -3   1  -2   87.15    1.59
  -3   1  -2   86.49    1.56
  -3   1  -2   86.80    1.48
  -3   1  -2   86.25    1.50
  -3   1  -2   85.66    1.60
  -3   1  -2   85.54    1.69
  -3   1  -2   84.72    1.67
  -3   1  -2   85.74    1.57
  -3   1  -2   87.99    1.56
   3  -1   2   84.90    1.56
   3  -1   2   87.09    1.48
   3  -1   2   85.92    1.54
   3  -1   2   85.35    1.56
  -4   1  -2  112.48    1.97
  -4   1  -2  113.90    2.20
  -4   1  -2  114.51    2.06
  -4   1  -2  113.61    2.24
  -4   1  -2  114.59    2.12
  -4   1  -2  114.21    2.08
   4  -1   2  117.70    2.07
  -5   1  -2    2.31    0.11
  -5   1  -2    2.30    0.13
  -5   1  -2    2.50    0.12
  -5   1  -2    2.20    0.11
  -5   1  -2    2.35    0.14
  -5   1  -2    2.56    0.12
   5  -1   2    2.36    0.11
  -6   1  -2    0.36    0.06
  -6   1  -2    0.37    0.08
  -6   1  -2    0.41    0.06
  -6   1  -2    0.41    0.08
  -6   1  -2    0.31    0.06
  -6   1  -2    0.38    0.06
   6  -1   2    0.36    0.06
  -7   1  -2    5.00    0.21
  -7   1  -2    5.26    0.24
  -7   1  -2    4.90    0.20
  -7   1  -2    5.37    0.19
  -7   1  -2    5.49    0.19
  -7   1  -2    4.69    0.24
   7  -1   2    5.29    0.19
  -8   1  -2    0.02    0.05
  -8   1  -2    0.06    0.06
  -8   1  -2    0.00    0.06
  -9   1  -2   11.51    0.39
  -9   1  -2   12.12    0.45
  -9   1  -2   11.14    0.43
 -10   1  -2    0.06    0.08
 -10   1  -2    0.06    0.07
 -10   0   2    0.61    0.13
 -10   0   2    0.63    0.12
  -9   0   2    0.53    0.12
  -9   0   2    0.51    0.10
  -8   0   2    2.34    0.18
  -8   0   2    2.18    0.18
  -8   0   2    2.09    0.16
  -7   0   2   37.13    0.90
  -7   0   2   37.26    0.86
  -7   0   2   36.54    0.80
  -7   0   2   36.10    0.86
   6   0  -2    3.33    0.10
   6   0  -2    3.36    0.10
  -6   0   2    3.05    0.16
  -6   0   2    3.24    0.18
  -6   0   2    3.18    0.10
  -6   0   2    3.10    0.11
  -6   0   2    3.39    0.18
  -6   0   2    3.23    0.17
   5   0  -2    6.18    0.15
   5   0  -2    5.99    0.14
   5   0  -2    5.85    0.13
   5   0  -2    6.05    0.14
  -5   0   2    5.69    0.14
  -5   0   2    5.89    0.22
  -5   0   2    5.59    0.14
  -5   0   2    5.62    0.15
  -5   0   2    5.69    0.13
  -5   0   2    5.61    0.14
  -5   0   2    5.75    0.20
  -5   0   2    5.73    0.23
  -5   0   2    5.61    0.21
   4   0  -2   22.12    0.41
   4   0  -2   22.79    0.41
   4   0  -2   22.45    0.43
   4   0  -2   21.53    0.39
  -4   0   2   21.80    0.42
  -4   0   2   21.94    0.41
  -4   0   2   21.59    0.47
  -4   0   2   21.70    0.40
  -4   0   2   21.25    0.41
  -4   0   2   21.62    0.53
  -4   0   2   22.22    0.50
   3   0  -2   15.83    0.30
   3   0  -2   15.66    0.29
   3   0  -2   16.12    0.30
   3   0  -2   16.10    0.31
   3   0  -2   16.52    0.56
  -3   0   2   15.78    0.30
  -3   0   2   16.27    0.35
  -3   0   2   16.05    0.38
  -3   0   2   15.83    0.30
  -3   0   2   15.60    0.37
  -3   0   2   15.98    0.37
  -3   0   2   16.35    0.30
  -3   0   2   15.87    0.39
   2   0  -2    1.82    0.05
   2   0  -2    1.92    0.08
   2   0  -2    2.09    0.08
   2   0  -2    1.71    0.05
   2   0  -2    1.75    0.05
   2   0  -2    1.86    0.08
   2   0  -2    1.75    0.08
   2   0  -2    1.80    0.05
   2   0  -2    1.92    0.07
   2   0  -2    1.88    0.09
  -2   0   2    1.80    0.05
  -2   0   2    1.78    0.05
  -2   0   2    1.79    0.08
  -2   0   2    1.87    0.07
  -2   0   2    1.76    0.08
  -2   0   2    1.81    0.08
  -2   0   2    1.69    0.08
  -2   0   2    1.90    0.05
  -2   0   2    1.76    0.05
   1   0  -2   44.30    0.80
   1   0  -2   44.37    0.83
   1   0  -2   44.53    0.80
   1   0  -2   44.30    0.80
   1   0  -2   43.12    0.82
   1   0  -2   44.64    0.85
   1   0  -2   45.02    0.82
   1   0  -2   44.93    0.77
  -1   0   2   43.31    0.83
  -1   0   2   45.03    0.80
  -1   0   2   44.35    0.80
  -1   0   2   46.57    0.83
  -1   0   2   44.95    0.82
  -1   0   2   45.11    0.85
  -1   0   2   44.17    0.80
  -1   0   2   44.46    0.77
   0   0  -2  123.00    2.03
   0   0  -2  122.73    2.27
   0   0  -2  120.75    2.15
   0   0  -2  118.57    2.18
   0   0  -2  120.88    2.20
   0   0  -2  122.42    2.21
   0   0  -2  127.03    2.35
   0   0  -2  123.25    2.35
   0   0   2  119.53    2.26
   0   0   2  124.24    2.12
   0   0   2  120.83    2.31
   0   0   2  123.32    2.20
  -1   0  -2   15.48    0.31
  -1   0  -2   15.49    0.30
  -1   0  -2   15.64    0.32
  -1   0  -2   15.47    0.33
  -1   0  -2   15.29    0.32
  -1   0  -2   15.37    0.32
  -1   0  -2   15.18    0.32
   1   0   2   15.56    0.32
   1   0   2   15.25    0.33
   1   0   2   16.11    0.30
   1   0   2   15.43    0.31
  -2   0  -2    1.56    0.06
  -2   0  -2    1.49    0.07
  -2   0  -2    1.48    0.07
  -2   0  -2    1.40    0.07
  -2   0  -2    1.47    0.08
  -2   0  -2    1.41    0.07
  -2   0  -2    1.44    0.07
  -2   0  -2    1.44    0.07
  -2   0  -2    1.45    0.07
   2   0   2    1.38    0.07
   2   0   2    1.42    0.06
   2   0   2    1.50    0.07
   2   0   2    1.51    0.07
   2   0   2    1.56    0.08
  -3   0  -2   16.39    0.33
  -3   0  -2   16.09    0.35
  -3   0  -2   15.93    0.36
  -3   0  -2   15.99    0.36
  -3   0  -2   16.15    0.34
  -3   0  -2   16.04    0.38
   3   0   2   16.12    0.34
   3   0   2   15.95    0.36
  -4   0  -2   29.07    0.66
  -4   0  -2   28.55    0.63
  -4   0  -2   29.72    0.65
  -4   0  -2   29.59    0.58
  -4   0  -2   29.58    0.60
  -4   0  -2   28.76    0.60
   4   0   2   29.92    0.61
   4   0   2   29.77    0.58
  -5   0  -2   26.99    0.62
  -5   0  -2   27.35    0.57
  -5   0  -2   28.09    0.65
  -5   0  -2   26.99    0.58
  -5   0  -2   27.96    0.58
  -5   0  -2   27.16    0.63
   5   0   2   27.35    0.59
   5   0   2   27.25    0.56
  -6   0  -2   -0.03    0.03
  -6   0  -2    0.05    0.04
  -6   0  -2   -0.04    0.04
  -6   0  -2    0.00    0.04
  -6   0  -2    0.11    0.05
   6   0   2    0.00    0.04
  -7   0  -2    1.87    0.15
  -7   0  -2    1.75    0.13
  -7   0  -2    1.74    0.14
  -7   0  -2    1.96    0.14
  -7   0  -2    2.00    0.13
  -7   0  -2    2.09    0.13
   7   0   2    1.99    0.12
  -8   0  -2    1.75    0.14
  -8   0  -2    1.74    0.17
  -8   0  -2    2.09    0.17
  -9   0  -2    0.73    0.13
  -9   0  -2    0.56    0.12
  -9   0  -2    0.42    0.10
 -10   0  -2    0.56    0.12
 -10   0  -2    0.41    0.10
 -10   1   2    1.16    0.16
 -10   1   2    1.01    0.16
  -9   1   2    2.42    0.18
  -9   1   2    2.27    0.19
  -9   1   2    2.76    0.21
  -8   1   2    5.57    0.28
  -8   1   2    6.11    0.28
  -8   1   2    5.36    0.25
  -7   1   2    6.84    0.28
  -7   1   2    6.74    0.26
  -7   1   2    7.25    0.30
  -6   1   2  103.59    2.01
  -6   1   2  105.99    2.12
  -6   1   2  102.95    2.00
  -6   1   2   99.85    1.87
  -5   1   2   10.32    0.32
  -5   1   2   11.22    0.30
  -5   1   2   11.13    0.33
  -5   1   2   11.54    0.35
  -4   1   2    0.41    0.06
  -4   1   2    0.45    0.06
  -4   1   2    0.69    0.08
  -4   1   2    0.58    0.08
  -4   1   2    0.46    0.06
   3  -1  -2  104.51    3.15
  -3   1   2  103.04    2.01
  -3   1   2  103.01    1.89
  -3   1   2  101.15    1.92
  -3   1   2  104.51    3.15
  -3   1   2  101.25    1.90
  -3   1   2  101.83    1.77
   2  -1  -2   27.45    0.48
   2  -1  -2   28.37    0.52
   2  -1  -2   27.80    0.58
   2  -1  -2   27.72    0.50
   2  -1  -2   27.90    0.50
   2  -1  -2   27.43    0.56
   2  -1  -2   27.77    0.89
   2  -1  -2   27.62    0.55
   2  -1  -2   27.45    0.49
   2  -1  -2   27.51    0.49
   2  -1  -2   27.85    0.55
  -2   1   2   27.27    0.49
  -2   1   2   27.69    0.50
  -2   1   2   27.58    0.52
  -2   1   2   26.64    0.49
  -2   1   2   26.94    0.55
  -2   1   2   27.09    0.55
  -2   1   2   28.04    0.89
  -2   1   2   27.43    0.59
  -2   1   2   27.66    0.48
  -2   1   2   27.12    0.56
   1  -1  -2  104.44    1.84
   1  -1  -2  105.21    1.84
   1  -1  -2  104.61    1.77
   1  -1  -2  103.83    1.92
   1  -1  -2  103.04    1.94
   1  -1  -2   99.35    1.80
   1  -1  -2  103.81    1.86
   1  -1  -2   99.53    1.82
   1  -1  -2  102.04    1.94
   1  -1  -2  105.18    1.84
   1  -1  -2  102.18    1.72
  -1   1   2  104.05    1.82
  -1   1   2  102.09    1.87
  -1   1   2  102.18    1.92
  -1   1   2  102.79    1.88
  -1   1   2   96.38    1.94
  -1   1   2  101.41    1.97
  -1   1   2  103.17    1.80
  -1   1   2  104.82    1.88
  -1   1   2  101.06    1.77
  -1   1   2  103.93    1.83
   0  -1  -2  158.98    2.71
   0  -1  -2  144.12    2.75
   0  -1  -2  151.86    3.01
   0  -1  -2  154.87    2.61
   0  -1  -2  161.64    2.85
   0  -1  -2  151.53    2.68
   0   1   2  156.54    2.68
   0   1   2  150.87    2.85
   0   1   2  157.41    2.62
   0   1   2  150.33    2.76
   0   1   2  154.73    2.82
   0   1   2  155.64    2.71
  -1  -1  -2   75.95    1.39
  -1  -1  -2   78.87    1.41
  -1  -1  -2   77.49    1.45
  -1  -1  -2   77.79    1.41
  -1  -1  -2   78.85    1.44
  -1  -1  -2   78.34    1.36
   1   1   2   76.75    1.40
   1   1   2   77.63    1.39
   1   1   2   78.52    1.36
   1   1   2   77.23    1.44
   1   1   2   75.56    1.44
   1   1   2   77.58    1.41
  -2  -1  -2    1.36    0.08
  -2  -1  -2    1.41    0.08
  -2  -1  -2    1.42    0.06
  -2  -1  -2    1.36    0.08
  -2  -1  -2    1.33    0.08
  -2  -1  -2    1.43    0.07
   2   1   2    1.37    0.08
   2   1   2    1.23    0.08
   2   1   2    1.37    0.06
   2   1   2    1.49    0.08
  -3  -1  -2   63.72    1.26
  -3  -1  -2   63.47    1.23
  -3  -1  -2   62.90    1.27
  -3  -1  -2   66.98    1.23
  -3  -1  -2   63.13    1.21
   3   1   2   65.28    1.25
   3   1   2   66.25    1.18
   3   1   2   66.29    1.21
   3   1   2   65.40    1.22
  -4  -1  -2   76.95    1.53
  -4  -1  -2   76.94    1.43
  -4  -1  -2   76.49    1.45
  -4  -1  -2   76.14    1.47
  -4  -1  -2   75.06    1.36
   4   1   2   76.66    1.48
   4   1   2   77.63    1.39
   4   1   2   77.64    1.45
  -5  -1  -2   14.72    0.39
  -5  -1  -2   13.78    0.38
  -5  -1  -2   14.47    0.37
  -5  -1  -2   14.57    0.36
  -5  -1  -2   13.80    0.35
   5   1   2   13.46    0.36
   5   1   2   13.72    0.37
   5   1   2   13.93    0.35
  -6  -1  -2   12.21    0.33
  -6  -1  -2   11.39    0.36
  -6  -1  -2   11.98    0.34
  -6  -1  -2   11.75    0.36
  -6  -1  -2   11.95    0.36
  -6  -1  -2   11.69    0.33
   6   1   2   11.28    0.32
   6   1   2   11.76    0.34
  -7  -1  -2   -0.04    0.05
  -7  -1  -2    0.00    0.05
  -7  -1  -2    0.00    0.05
  -7  -1  -2    0.04    0.06
  -7  -1  -2   -0.02    0.04
  -7  -1  -2    0.00    0.05
   7   1   2   -0.04    0.05
   7   1   2    0.00    0.04
  -8  -1  -2    0.34    0.09
  -8  -1  -2    0.57    0.11
  -8  -1  -2    0.47    0.09
  -9  -1  -2    1.81    0.17
  -9  -1  -2    1.86    0.20
 -10  -1  -2    0.48    0.11
 -10  -1  -2    0.41    0.12
 -10   2   2    3.92    0.24
 -10   2   2    3.98    0.28
  -9   2   2    0.50    0.11
  -9   2   2    0.78    0.14
  -9   2   2    0.67    0.13
  -8   2   2    4.02    0.23
  -8   2   2    4.22    0.22
  -8   2   2    4.56    0.25
  -7   2   2    1.40    0.16
  -7   2   2    1.30    0.13
  -7   2   2    1.34    0.14
  -6   2   2    0.94    0.12
  -6   2   2    0.89    0.10
  -6   2   2    0.86    0.11
  -5   2   2   21.17    0.53
  -5   2   2   20.76    0.52
  -5   2   2   21.51    0.55
  -5   2   2   20.85    0.52
  -5   2   2   21.32    0.82
  -4   2   2   -0.01    0.03
  -4   2   2    0.02    0.03
  -4   2   2   -0.02    0.03
  -4   2   2   -0.01    0.03
  -4   2   2    0.02    0.05
  -4   2   2   -0.01    0.03
   3  -2  -2  200.15    3.55
   3  -2  -2  190.59    3.49
   3  -2  -2  210.71    6.19
   3  -2  -2  204.10    3.51
   3  -2  -2  196.75    3.52
   3  -2  -2  204.12    4.02
  -3   2   2  196.51    3.78
  -3   2   2  196.69    3.51
  -3   2   2  195.62    3.56
  -3   2   2  191.57    3.60
  -3   2   2  204.60    6.17
  -3   2   2  200.14    3.50
  -3   2   2  204.12    3.80
  -3   2   2  198.27    3.38
   2  -2  -2   76.15    1.38
   2  -2  -2   73.35    1.28
   2  -2  -2   75.44    1.52
   2  -2  -2   75.77    1.32
   2  -2  -2   74.86    1.46
   2  -2  -2   75.67    1.33
   2  -2  -2   75.75    1.38
   2  -2  -2   74.09    1.33
   2  -2  -2   74.65    1.36
   2  -2  -2   73.10    1.41
  -2   2   2   76.76    1.39
  -2   2   2   74.17    1.35
  -2   2   2   75.35    2.34
  -2   2   2   73.84    1.33
  -2   2   2   73.62    1.41
  -2   2   2   74.21    1.46
  -2   2   2   72.85    1.32
  -2   2   2   74.26    1.33
  -2   2   2   73.37    1.28
   1  -2  -2    7.92    0.19
   1  -2  -2    7.64    0.19
   1  -2  -2    7.81    0.18
   1  -2  -2    7.69    0.19
   1  -2  -2    7.51    0.21
   1  -2  -2    7.66    0.20
   1  -2  -2    7.61    0.18
   1  -2  -2    7.94    0.19
   1  -2  -2    7.78    0.19
  -1   2   2    7.56    0.19
  -1   2   2    7.48    0.19
  -1   2   2    7.54    0.18
  -1   2   2    7.34    0.19
  -1   2   2    7.54    0.18
  -1   2   2    7.70    0.21
  -1   2   2    7.85    0.19
  -1   2   2    7.88    0.19
  -1   2   2    7.56    0.21
   0  -2  -2    0.25    0.04
   0  -2  -2    0.22    0.04
   0  -2  -2    0.21    0.04
   0  -2  -2    0.18    0.04
   0  -2  -2    0.24    0.04
   0  -2  -2    0.25    0.04
   0  -2  -2    0.26    0.02
   0   2   2    0.33    0.04
   0   2   2    0.26    0.04
   0   2   2    0.19    0.04
   0   2   2    0.25    0.04
   0   2   2    0.22    0.02
   0   2   2    0.25    0.04
   0   2   2    0.15    0.03
  -1  -2  -2   95.84    1.78
  -1  -2  -2   94.71    1.72
  -1  -2  -2   92.96    1.74
   1   2   2   94.42    1.74
   1   2   2   98.37    1.68
   1   2   2   96.37    1.78
  -2  -2  -2  246.69    4.68
  -2  -2  -2  255.43    4.85
  -2  -2  -2  259.72    4.90
  -2  -2  -2  266.88    4.63
   2   2   2  269.24    4.74
   2   2   2  266.43    4.73
   2   2   2  267.65    4.63
   2   2   2  264.74    4.47
  -3  -2  -2    2.50    0.10
  -3  -2  -2    2.44    0.12
  -3  -2  -2    2.51    0.12
  -3  -2  -2    2.52    0.12
  -3  -2  -2    2.67    0.13
   3   2   2    2.33    0.12
   3   2   2    2.56    0.09
   3   2   2    2.67    0.13
   3   2   2    2.63    0.13
  -4  -2  -2   13.14    0.33
  -4  -2  -2   12.96    0.34
  -4  -2  -2   12.47    0.34
  -4  -2  -2   13.59    0.35
  -4  -2  -2   12.77    0.36
   4   2   2   12.43    0.35
   4   2   2   12.46    0.35
   4   2   2   12.85    0.33
  -5  -2  -2    4.78    0.20
  -5  -2  -2    4.77    0.18
  -5  -2  -2    5.03    0.20
  -5  -2  -2    5.22    0.20
   5   2   2    4.71    0.20
   5   2   2    4.75    0.19
   5   2   2    4.80    0.21
  -6  -2  -2    0.23    0.06
  -6  -2  -2    0.24    0.07
  -6  -2  -2    0.19    0.06
  -6  -2  -2    0.18    0.06
  -6  -2  -2    0.18    0.06
   6   2   2    0.18    0.07
   6   2   2    0.17    0.06
   6   2   2    0.17    0.06
  -7  -2  -2    2.67    0.16
  -7  -2  -2    2.50    0.18
  -7  -2  -2    2.86    0.16
  -7  -2  -2    2.74    0.16
  -7  -2  -2    2.49    0.16
   7   2   2    2.39    0.15
   7   2   2    2.51    0.16
  -8  -2  -2    4.25    0.22
  -8  -2  -2    4.14    0.24
  -9  -2  -2    2.00    0.20
  -9  -2  -2    1.69    0.17
 -10   3   2    0.33    0.12
  -9   3   2    6.99    0.34
  -8   3   2    0.03    0.06
  -7   3   2   34.68    0.88
  -6   3   2    4.63    0.22
  -6   3   2    4.44    0.32
  -6   3   2    4.60    0.23
  -5   3   2    0.32    0.07
  -5   3   2    0.19    0.06
  -5   3   2    0.29    0.10
   4  -3  -2   13.11    0.27
   4  -3  -2   13.05    0.27
   4  -3  -2   13.11    0.27
   4  -3  -2   13.31    0.27
   4  -3  -2   13.41    0.32
   4  -3  -2   13.49    0.29
  -4   3   2   12.65    0.37
  -4   3   2   12.82    0.26
  -4   3   2   13.16    0.56
  -4   3   2   13.75    0.27
  -4   3   2   12.97    0.26
  -4   3   2   12.59    0.26
  -4   3   2   13.39    0.36
   3  -3  -2   18.74    0.38
   3  -3  -2   18.26    0.38
   3  -3  -2   18.53    0.45
   3  -3  -2   18.21    0.38
   3  -3  -2   18.36    0.37
   3  -3  -2   18.15    0.37
   3  -3  -2   18.62    0.44
  -3   3   2   18.20    0.38
  -3   3   2   18.20    0.45
  -3   3   2   18.17    0.36
  -3   3   2   18.87    0.37
  -3   3   2   18.07    0.44
  -3   3   2   18.33    0.38
  -3   3   2   18.93    0.72
   2  -3  -2  320.44    5.64
   2  -3  -2  322.55    5.69
   2  -3  -2  306.91    5.82
   2  -3  -2  320.99    5.64
   2  -3  -2  316.33    5.61
   2  -3  -2  324.21    6.35
   2  -3  -2  314.59    5.59
  -2   3   2  308.98    6.02
  -2   3   2  316.00    5.46
  -2   3   2  305.69    6.14
  -2   3   2  307.99    5.69
  -2   3   2  306.03    5.96
  -2   3   2  315.27    5.69
  -2   3   2  311.97    5.66
  -2   3   2  316.78   10.01
   1  -3  -2   32.89    0.65
   1  -3  -2   33.61    0.63
   1  -3  -2   32.02    0.68
   1  -3  -2   32.58    0.65
   1  -3  -2   32.82    0.66
  -1   3   2   32.44    0.65
  -1   3   2   32.80    0.63
  -1   3   2   33.12    0.66
  -1   3   2   31.66    0.69
  -1   3   2   32.24    0.66
   0  -3  -2    8.52    0.17
   0  -3  -2    8.75    0.24
   0  -3  -2    8.41    0.23
   0  -3  -2    8.59    0.24
   0   3   2    8.55    0.24
   0   3   2    8.45    0.23
   0   3   2    8.41    0.18
   0   3   2    8.13    0.24
  -1  -3  -2   13.79    0.34
  -1  -3  -2   14.01    0.34
  -1  -3  -2   13.49    0.34
   1   3   2   13.74    0.35
   1   3   2   13.10    0.33
   1   3   2   13.46    0.34
  -2  -3  -2    0.03    0.04
  -2  -3  -2    0.08    0.04
  -2  -3  -2    0.04    0.03
   2   3   2    0.04    0.04
   2   3   2    0.11    0.04
   2   3   2   -0.02    0.03
  -3  -3  -2   38.02    0.80
  -3  -3  -2   36.85    0.78
  -3  -3  -2   36.50    0.79
   3   3   2   36.54    0.76
   3   3   2   36.43    0.79
   3   3   2   37.29    0.81
  -4  -3  -2   24.11    0.57
  -4  -3  -2   24.91    0.58
  -4  -3  -2   24.52    0.59
  -4  -3  -2   24.62    0.57
   4   3   2   24.00    0.56
   4   3   2   23.95    0.58
   4   3   2   24.19    0.59
  -5  -3  -2    0.46    0.08
  -5  -3  -2    0.50    0.08
  -5  -3  -2    0.73    0.10
   5   3   2    0.39    0.07
   5   3   2    0.51    0.09
   5   3   2    0.66    0.10
  -6  -3  -2    0.72    0.11
  -6  -3  -2    0.73    0.11
  -6  -3  -2    0.62    0.10
   6   3   2    0.75    0.11
   6   3   2    0.73    0.10
   6   3   2    0.62    0.10
  -7  -3  -2   -0.01    0.05
  -7  -3  -2   -0.01    0.06
  -7  -3  -2    0.00    0.06
  -7  -3  -2    0.07    0.06
   7   3   2    0.02    0.06
   7   3   2   -0.06    0.04
   7   3   2   -0.04    0.06
  -8  -3  -2    1.80    0.17
  -8  -3  -2    1.90    0.19
  -9  -3  -2    2.35    0.19
  -9  -3  -2    2.51    0.21
 -10   4   2   -0.04    0.07
  -9   4   2    1.55    0.20
  -8   4   2    9.48    0.40
  -7   4   2    0.72    0.12
  -7   4   2    0.62    0.11
  -7   4   2    0.96    0.20
  -6   4   2   28.05    0.72
  -6   4   2   26.74    1.08
  -6   4   2   27.42    0.69
   5  -4  -2    0.07    0.03
   5  -4  -2    0.14    0.03
   5  -4  -2    0.14    0.03
   5  -4  -2    0.12    0.03
   5  -4  -2    0.09    0.03
  -5   4   2    0.06    0.02
  -5   4   2    0.13    0.05
  -5   4   2    0.10    0.02
  -5   4   2    0.08    0.02
  -5   4   2    0.10    0.05
  -5   4   2    0.04    0.08
  -5   4   2    0.13    0.03
   4  -4  -2    5.55    0.16
   4  -4  -2    5.35    0.16
   4  -4  -2    5.41    0.16
   4  -4  -2    5.30    0.16
   4  -4  -2    5.37    0.22
   4  -4  -2    5.57    0.19
  -4   4   2    5.29    0.34
  -4   4   2    5.55    0.22
  -4   4   2    5.32    0.22
  -4   4   2    5.36    0.15
  -4   4   2    5.47    0.15
  -4   4   2    5.30    0.15
  -4   4   2    5.23    0.16
   3  -4  -2    3.25    0.12
   3  -4  -2    3.01    0.15
   3  -4  -2    3.18    0.15
   3  -4  -2    3.17    0.12
  -3   4   2    3.38    0.15
  -3   4   2    3.16    0.25
  -3   4   2    2.93    0.14
  -3   4   2    3.30    0.16
  -3   4   2    3.19    0.12
  -3   4   2    3.10    0.12
  -3   4   2    3.18    0.12
   2  -4  -2    8.66    0.24
   2  -4  -2    8.74    0.28
   2  -4  -2    8.86    0.28
   2  -4  -2    8.83    0.24
  -2   4   2    9.22    0.28
  -2   4   2    9.13    0.25
  -2   4   2    9.12    0.26
  -2   4   2    9.30    0.25
  -2   4   2    9.19    0.24
  -2   4   2    8.48    0.24
  -2   4   2    8.92    0.45
   1  -4  -2   26.31    0.57
   1  -4  -2   26.74    0.53
   1  -4  -2   27.07    0.58
   1  -4  -2   26.95    0.66
   1  -4  -2   26.60    0.60
  -1   4   2   26.56    0.58
  -1   4   2   26.38    0.57
  -1   4   2   26.79    0.56
  -1   4   2   27.31    0.56
  -1   4   2   26.74    0.62
   0  -4  -2    0.05    0.04
   0  -4  -2    0.10    0.04
   0  -4  -2    0.14    0.02
   0  -4  -2    0.13    0.04
   0   4   2    0.11    0.02
   0   4   2    0.13    0.04
   0   4   2    0.11    0.04
   0   4   2    0.15    0.05
  -1  -4  -2   59.34    1.16
  -1  -4  -2   57.92    1.15
  -1  -4  -2   57.50    1.17
   1   4   2   58.06    1.18
   1   4   2   60.99    1.17
   1   4   2   57.88    1.12
  -2  -4  -2   13.52    0.37
  -2  -4  -2   13.91    0.38
  -2  -4  -2   13.74    0.38
   2   4   2   13.40    0.37
   2   4   2   14.80    0.40
   2   4   2   13.76    0.38
  -3  -4  -2   13.63    0.38
  -3  -4  -2   13.32    0.38
  -3  -4  -2   13.67    0.38
   3   4   2   12.17    0.39
   3   4   2   13.02    0.37
   3   4   2   13.18    0.38
  -4  -4  -2    6.98    0.27
  -4  -4  -2    7.50    0.28
  -4  -4  -2    7.14    0.27
  -4  -4  -2    7.06    0.26
   4   4   2    7.34    0.28
   4   4   2    7.34    0.26
   4   4   2    7.10    0.28
  -5  -4  -2    2.32    0.16
  -5  -4  -2    2.77    0.17
  -5  -4  -2    2.51    0.16
  -5  -4  -2    2.64    0.17
   5   4   2    2.37    0.17
   5   4   2    2.56    0.16
   5   4   2    2.53    0.17
  -6  -4  -2    3.48    0.20
  -6  -4  -2    3.34    0.20
  -6  -4  -2    3.21    0.19
   6   4   2    3.21    0.19
   6   4   2    3.59    0.21
   6   4   2    3.58    0.21
  -7  -4  -2    5.64    0.26
  -7  -4  -2    5.23    0.27
  -7  -4  -2    5.94    0.28
  -7  -4  -2    5.94    0.27
   7   4   2    5.59    0.26
   7   4   2    6.32    0.29
   7   4   2    5.41    0.27
  -8  -4  -2    0.14    0.08
  -8  -4  -2    0.06    0.07
  -9  -4  -2    0.01    0.06
  -9  -4  -2    0.02    0.08
 -10   5   2    2.65    0.24
  -9   5   2    0.03    0.07
  -8   5   2    2.12    0.19
  -8   5   2    1.79    0.26
  -7   5   2    3.67    0.23
  -7   5   2    4.03    0.23
  -7   5   2    4.02    0.35
   6  -5  -2    0.57    0.06
  -6   5   2    0.60    0.10
  -6   5   2    0.62    0.17
  -6   5   2    0.53    0.10
   5  -5  -2    2.90    0.13
   5  -5  -2    2.71    0.17
   5  -5  -2    2.90    0.12
   5  -5  -2    2.93    0.12
  -5   5   2    2.98    0.11
  -5   5   2    3.10    0.18
  -5   5   2    2.74    0.11
  -5   5   2    2.84    0.17
  -5   5   2    2.82    0.11
  -5   5   2    2.76    0.27
   4  -5  -2   25.70    0.64
   4  -5  -2   25.86    0.64
   4  -5  -2   25.72    0.54
   4  -5  -2   26.80    0.55
  -4   5   2   24.56    1.02
  -4   5   2   25.23    0.54
  -4   5   2   25.51    0.54
  -4   5   2   27.01    0.62
  -4   5   2   23.77    0.62
  -4   5   2   25.06    0.52
   3  -5  -2   15.57    0.38
   3  -5  -2   15.60    0.44
   3  -5  -2   15.08    0.38
   3  -5  -2   15.60    0.44
  -3   5   2   15.55    0.38
  -3   5   2   15.89    0.72
  -3   5   2   16.22    0.37
  -3   5   2   16.37    0.45
  -3   5   2   15.24    0.41
  -3   5   2   16.22    0.38
  -3   5   2   16.04    0.42
   2  -5  -2   15.44    0.43
   2  -5  -2   16.68    0.40
   2  -5  -2   16.06    0.40
  -2   5   2   16.08    0.41
  -2   5   2   15.81    0.72
  -2   5   2   15.97    0.40
  -2   5   2   16.11    0.45
  -2   5   2   16.33    0.39
  -2   5   2   16.06    0.40
  -2   5   2   16.32    0.40
   1  -5  -2   17.57    0.44
   1  -5  -2   18.09    0.38
   1  -5  -2   17.00    0.43
   1  -5  -2   18.46    0.47
  -1   5   2   17.48    0.40
  -1   5   2   17.68    0.43
  -1   5   2   17.23    0.44
  -1   5   2   18.13    0.44
  -1   5   2   18.36    0.48
   0  -5  -2    5.71    0.22
   0  -5  -2    5.72    0.22
   0  -5  -2    5.92    0.22
   0  -5  -2    5.87    0.13
   0   5   2    5.96    0.14
   0   5   2    5.98    0.22
   0   5   2    5.86    0.22
   0   5   2    5.65    0.22
  -1  -5  -2   13.72    0.39
  -1  -5  -2   14.29    0.39
  -1  -5  -2   13.84    0.39
   1   5   2   14.22    0.40
   1   5   2   12.70    0.39
   1   5   2   13.37    0.37
  -2  -5  -2    6.87    0.25
  -2  -5  -2    6.59    0.26
  -2  -5  -2    7.50    0.27
   2   5   2    6.89    0.26
   2   5   2    6.98    0.27
   2   5   2    6.88    0.26
  -3  -5  -2    4.05    0.20
  -3  -5  -2    3.68    0.19
  -3  -5  -2    3.64    0.20
   3   5   2    3.59    0.19
   3   5   2    3.65    0.20
   3   5   2    3.83    0.20
  -4  -5  -2    1.14    0.13
  -4  -5  -2    1.30    0.13
  -4  -5  -2    1.40    0.15
  -4  -5  -2    1.48    0.13
   4   5   2    1.27    0.14
   4   5   2    1.05    0.13
   4   5   2    1.13    0.14
  -5  -5  -2    1.84    0.15
  -5  -5  -2    1.84    0.17
  -5  -5  -2    1.56    0.16
  -5  -5  -2    1.69    0.15
   5   5   2    1.83    0.17
   5   5   2    1.84    0.18
   5   5   2    1.64    0.17
  -6  -5  -2    2.94    0.20
  -6  -5  -2    3.18    0.21
  -6  -5  -2    3.49    0.21
   6   5   2    3.40    0.20
   6   5   2    3.38    0.22
   6   5   2    3.64    0.22
  -7  -5  -2    0.22    0.08
  -7  -5  -2    0.22    0.09
  -7  -5  -2    0.15    0.08
   7   5   2    0.05    0.08
   7   5   2    0.29    0.09
   7   5   2    0.11    0.08
  -8  -5  -2    0.06    0.08
  -8  -5  -2    0.16    0.08
   8   5   2    0.21    0.10
  10  -6  -2    2.91    0.24
 -10   6   2    2.84    0.25
  -9   6   2    2.88    0.24
   8  -6  -2    4.01    0.26
  -8   6   2    3.86    0.38
  -8   6   2    4.12    0.27
   7  -6  -2    0.29    0.09
  -7   6   2    0.16    0.07
  -7   6   2    0.28    0.15
  -7   6   2    0.17    0.08
   6  -6  -2    0.15    0.07
   6  -6  -2    0.32    0.06
  -6   6   2    0.32    0.08
  -6   6   2    0.24    0.08
  -6   6   2    0.26    0.13
   5  -6  -2    0.18    0.05
   5  -6  -2    0.08    0.06
   5  -6  -2    0.11    0.05
  -5   6   2    0.11    0.06
  -5   6   2    0.24    0.05
  -5   6   2    0.12    0.04
  -5   6   2    0.22    0.07
  -5   6   2    0.16    0.04
  -5   6   2    0.16    0.13
   4  -6  -2   10.01    0.29
   4  -6  -2   10.04    0.36
   4  -6  -2   10.26    0.29
  -4   6   2    9.90    0.36
  -4   6   2   10.16    0.34
  -4   6   2   10.52    0.28
  -4   6   2    9.83    0.57
  -4   6   2   10.10    0.33
  -4   6   2   10.07    0.29
  -4   6   2   10.38    0.29
   3  -6  -2   34.21    0.75
   3  -6  -2   34.65    0.74
   3  -6  -2   34.64    0.82
  -3   6   2   34.02    0.79
  -3   6   2   35.12    0.78
  -3   6   2   34.97    0.75
  -3   6   2   33.45    1.35
  -3   6   2   34.32    0.83
  -3   6   2   35.79    0.76
  -3   6   2   36.22    0.73
   2  -6  -2    5.94    0.23
   2  -6  -2    6.21    0.23
  -2   6   2    6.50    0.21
  -2   6   2    6.35    0.26
  -2   6   2    6.64    0.24
  -2   6   2    6.31    0.23
  -2   6   2    6.31    0.23
  -2   6   2    6.60    0.23
  -2   6   2    6.53    0.43
   1  -6  -2    6.94    0.25
   1  -6  -2    7.43    0.19
   1  -6  -2    6.96    0.26
   1  -6  -2    6.77    0.25
  -1   6   2    6.80    0.25
  -1   6   2    6.71    0.28
  -1   6   2    6.64    0.25
  -1   6   2    7.15    0.20
  -1   6   2    7.41    0.27
   0  -6  -2    0.51    0.09
   0  -6  -2    0.48    0.08
   0  -6  -2    0.50    0.09
   0   6   2    0.39    0.08
   0   6   2    0.50    0.08
   0   6   2    0.36    0.08
  -1  -6  -2   12.50    0.39
  -1  -6  -2   12.99    0.40
  -1  -6  -2   12.87    0.39
   1   6   2   13.38    0.41
   1   6   2   12.65    0.40
   1   6   2   12.91    0.39
  -2  -6  -2   23.92    0.61
  -2  -6  -2   23.93    0.63
  -2  -6  -2   23.78    0.62
   2   6   2   23.47    0.64
   2   6   2   24.00    0.60
   2   6   2   23.85    0.62
  -3  -6  -2    0.58    0.10
  -3  -6  -2    0.50    0.10
  -3  -6  -2    0.47    0.10
   3   6   2    0.43    0.10
   3   6   2    0.43    0.09
   3   6   2    0.49    0.11
  -4  -6  -2    3.82    0.21
  -4  -6  -2    3.59    0.22
  -4  -6  -2    3.86    0.22
   4   6   2    4.01    0.22
   4   6   2    3.76    0.23
   4   6   2    3.69    0.22
  -5  -6  -2    0.08    0.06
  -5  -6  -2    0.13    0.07
  -5  -6  -2    0.06    0.08
  -5  -6  -2   -0.02    0.07
   5   6   2    0.19    0.09
   5   6   2    0.18    0.08
   5   6   2    0.03    0.08
  -6  -6  -2    0.48    0.12
  -6  -6  -2    0.37    0.10
  -6  -6  -2    0.38    0.11
   6   6   2    0.57    0.11
   6   6   2    0.39    0.11
   6   6   2    0.34    0.11
  -7  -6  -2    0.64    0.12
  -7  -6  -2    0.71    0.14
  -7  -6  -2    0.57    0.13
   7   6   2    0.76    0.13
   7   6   2    0.61    0.14
   7   6   2    0.47    0.12
   9  -7  -2    0.80    0.15
  -9   7   2    0.61    0.22
  -9   7   2    0.51    0.13
   8  -7  -2    0.61    0.13
  -8   7   2    0.57    0.21
  -8   7   2    0.70    0.14
  -8   7   2    0.46    0.11
   7  -7  -2   13.13    0.48
  -7   7   2   13.67    0.48
  -7   7   2   12.56    0.44
  -7   7   2   12.28    0.73
   6  -7  -2    4.11    0.17
   6  -7  -2    3.42    0.23
  -6   7   2    3.67    0.22
  -6   7   2    3.68    0.37
  -6   7   2    3.78    0.22
   5  -7  -2    9.38    0.29
   5  -7  -2    9.84    0.30
   5  -7  -2   10.25    0.38
  -5   7   2    8.76    0.34
  -5   7   2    9.50    0.34
  -5   7   2    9.21    0.28
  -5   7   2    9.39    0.28
  -5   7   2    9.26    0.59
  -5   7   2    9.62    0.29
   4  -7  -2    3.17    0.17
   4  -7  -2    3.01    0.16
   4  -7  -2    3.05    0.20
  -4   7   2    3.03    0.20
  -4   7   2    3.64    0.19
  -4   7   2    3.33    0.16
  -4   7   2    3.12    0.33
  -4   7   2    3.05    0.16
  -4   7   2    3.29    0.17
  -4   7   2    3.11    0.18
   3  -7  -2    0.38    0.08
   3  -7  -2    0.36    0.09
   3  -7  -2    0.38    0.08
  -3   7   2    0.30    0.07
  -3   7   2    0.24    0.06
  -3   7   2    0.30    0.07
  -3   7   2    0.33    0.09
  -3   7   2    0.42    0.17
  -3   7   2    0.30    0.07
  -3   7   2    0.31    0.07
   2  -7  -2    7.34    0.30
   2  -7  -2    6.97    0.27
   2  -7  -2    7.55    0.28
  -2   7   2    7.93    0.28
  -2   7   2    7.74    0.28
  -2   7   2    7.82    0.29
  -2   7   2    7.51    0.32
  -2   7   2    8.19    0.24
  -2   7   2    7.11    0.50
  -2   7   2    6.94    0.27
   1  -7  -2    9.17    0.33
   1  -7  -2    9.24    0.33
   1  -7  -2    9.12    0.33
  -1   7   2    9.00    0.35
  -1   7   2    9.45    0.25
  -1   7   2    9.01    0.33
  -1   7   2    9.01    0.32
  -1   7   2    8.95    0.31
   0  -7  -2   14.66    0.45
   0  -7  -2   14.74    0.45
   0  -7  -2   14.20    0.44
   0   7   2   15.27    0.46
   0   7   2   14.47    0.43
  -1  -7  -2    7.75    0.30
  -1  -7  -2    7.77    0.31
  -1  -7  -2    7.39    0.31
   1   7   2    7.99    0.32
   1   7   2    7.69    0.30
   1   7   2    7.72    0.32
  -2  -7  -2    0.10    0.07
  -2  -7  -2    0.39    0.09
  -2  -7  -2    0.05    0.06
   2   7   2    0.17    0.07
   2   7   2    0.30    0.10
   2   7   2    0.28    0.09
  -3  -7  -2    1.49    0.17
  -3  -7  -2    1.54    0.18
  -3  -7  -2    1.66    0.14
   3   7   2    1.62    0.18
   3   7   2    1.24    0.15
   3   7   2    1.51    0.18
  -4  -7  -2   -0.04    0.05
  -4  -7  -2    0.01    0.07
  -4  -7  -2    0.15    0.08
   4   7   2    0.01    0.06
   4   7   2   -0.02    0.07
   4   7   2    0.08    0.08
  -5  -7  -2    2.07    0.18
  -5  -7  -2    2.04    0.21
  -5  -7  -2    2.39    0.23
   5   7   2    1.93    0.20
   5   7   2    1.97    0.22
   5   7   2    1.89    0.20
  -6  -7  -2    0.19    0.10
  -6  -7  -2    0.22    0.10
  -6  -7  -2    0.21    0.11
   6   7   2    0.16    0.09
   6   7   2    0.27    0.11
   6   7   2    0.30    0.11
  -7  -7  -2    0.16    0.11
   9  -8  -2   -0.01    0.08
  -9   8   2   -0.02    0.14
  -9   8   2   -0.06    0.08
   8  -8  -2    0.27    0.10
  -8   8   2    0.35    0.19
  -8   8   2    0.31    0.11
  -8   8   2    0.39    0.12
   7  -8  -2    0.22    0.10
  -7   8   2    0.27    0.09
  -7   8   2    0.40    0.19
  -7   8   2    0.40    0.11
   6  -8  -2   13.43    0.49
  -6   8   2   13.21    0.47
  -6   8   2   13.56    0.45
  -6   8   2   12.87    0.78
   5  -8  -2    5.62    0.29
   5  -8  -2    5.78    0.24
   5  -8  -2    5.33    0.23
  -5   8   2    5.71    0.30
  -5   8   2    5.68    0.26
  -5   8   2    5.56    0.23
  -5   8   2    5.58    0.27
  -5   8   2    5.34    0.47
  -5   8   2    5.54    0.23
  -5   8   2    5.80    0.23
   4  -8  -2    8.99    0.32
   4  -8  -2    9.80    0.38
   4  -8  -2    8.92    0.32
  -4   8   2    9.20    0.32
  -4   8   2    9.59    0.39
  -4   8   2    9.20    0.61
  -4   8   2    9.59    0.34
  -4   8   2    9.45    0.32
  -4   8   2    9.14    0.33
  -4   8   2    9.78    0.32
   3  -8  -2   -0.05    0.05
   3  -8  -2    0.05    0.06
   3  -8  -2    0.03    0.06
  -3   8   2    0.08    0.05
  -3   8   2    0.11    0.06
  -3   8   2    0.00    0.06
  -3   8   2    0.04    0.06
  -3   8   2    0.04    0.05
  -3   8   2    0.14    0.15
  -3   8   2   -0.03    0.06
   2  -8  -2    0.32    0.09
   2  -8  -2    0.47    0.10
   2  -8  -2    0.35    0.09
  -2   8   2    0.45    0.09
  -2   8   2    0.39    0.19
  -2   8   2    0.23    0.08
  -2   8   2    0.29    0.09
  -2   8   2    0.50    0.06
  -2   8   2    0.34    0.08
  -2   8   2    0.29    0.09
   1  -8  -2   12.13    0.41
   1  -8  -2   11.87    0.42
   1  -8  -2   12.44    0.42
  -1   8   2   12.34    0.42
  -1   8   2   12.79    0.46
  -1   8   2   12.51    0.42
  -1   8   2   12.86    0.39
  -1   8   2   12.84    0.41
   0  -8  -2    0.49    0.11
   0  -8  -2    0.50    0.10
   0  -8  -2    0.44    0.10
   0   8   2    0.50    0.11
   0   8   2    0.40    0.09
   0   8   2    0.63    0.12
  -1  -8  -2   15.17    0.50
  -1  -8  -2   14.42    0.48
  -1  -8  -2   14.06    0.46
   1   8   2   14.65    0.47
   1   8   2   15.14    0.51
   1   8   2   15.12    0.50
  -2  -8  -2    1.75    0.19
  -2  -8  -2    1.31    0.17
  -2  -8  -2    1.31    0.15
   2   8   2    1.94    0.19
   2   8   2    1.40    0.17
   2   8   2    1.22    0.17
  -3  -8  -2    0.07    0.07
  -3  -8  -2    0.05    0.08
  -3  -8  -2   -0.04    0.07
   3   8   2   -0.02    0.07
   3   8   2    0.03    0.08
   3   8   2    0.00    0.06
  -4  -8  -2    0.14    0.09
  -4  -8  -2    0.31    0.11
   4   8   2    0.30    0.11
   4   8   2    0.38    0.12
   4   8   2    0.23    0.10
  -5  -8  -2   -0.07    0.09
  -5  -8  -2    0.04    0.08
  -5  -8  -2    0.01    0.07
   5   8   2    0.00    0.08
   5   8   2    0.07    0.08
   5   8   2   -0.02    0.09
  -9   9   2    0.07    0.16
   8  -9  -2    1.89    0.23
  -8   9   2    1.21    0.32
  -8   9   2    1.47    0.19
  -8   9   2    1.52    0.20
   7  -9  -2    0.07    0.08
  -7   9   2    0.17    0.17
  -7   9   2    0.11    0.08
  -7   9   2    0.05    0.07
   6  -9  -2    0.68    0.14
  -6   9   2    0.60    0.12
  -6   9   2    0.86    0.13
  -6   9   2    0.65    0.24
   5  -9  -2    4.12    0.22
   5  -9  -2    5.06    0.29
   5  -9  -2    3.88    0.21
  -5   9   2    4.20    0.23
  -5   9   2    4.18    0.43
  -5   9   2    3.99    0.27
  -5   9   2    4.73    0.22
  -5   9   2    4.63    0.22
  -5   9   2    4.21    0.24
   4  -9  -2    0.36    0.09
   4  -9  -2    0.17    0.09
   4  -9  -2    0.47    0.10
  -4   9   2    0.43    0.09
  -4   9   2    0.34    0.11
  -4   9   2    0.28    0.08
  -4   9   2    0.44    0.09
  -4   9   2    0.36    0.09
  -4   9   2    0.33    0.09
  -4   9   2    0.46    0.21
   3  -9  -2    6.95    0.30
   3  -9  -2    7.13    0.31
   3  -9  -2    6.93    0.33
  -3   9   2    6.60    0.30
  -3   9   2    6.32    0.29
  -3   9   2    7.32    0.29
  -3   9   2    7.47    0.36
  -3   9   2    6.81    0.28
  -3   9   2    6.73    0.55
   2  -9  -2    0.04    0.07
   2  -9  -2    0.18    0.08
   2  -9  -2    0.14    0.08
  -2   9   2    0.15    0.07
  -2   9   2    0.13    0.08
  -2   9   2    0.16    0.16
  -2   9   2    0.09    0.07
  -2   9   2    0.02    0.07
  -2   9   2    0.10    0.06
   1  -9  -2    1.24    0.16
   1  -9  -2    1.12    0.15
   1  -9  -2    1.07    0.15
  -1   9   2    1.08    0.15
  -1   9   2    1.16    0.16
  -1   9   2    1.18    0.15
  -1   9   2    1.47    0.32
  -1   9   2    1.15    0.13
  -1   9   2    1.02    0.16
   0  -9  -2    9.34    0.39
   0  -9  -2    8.51    0.36
   0  -9  -2   10.05    0.40
   0   9   2    9.10    0.38
   0   9   2    9.14    0.41
   0   9   2    9.25    0.39
  -1  -9  -2    0.67    0.13
  -1  -9  -2    0.76    0.13
  -1  -9  -2    0.72    0.13
   1   9   2    0.49    0.12
   1   9   2    0.57    0.12
   1   9   2    0.73    0.14
  -2  -9  -2    1.12    0.17
  -2  -9  -2    1.48    0.17
  -2  -9  -2    1.20    0.17
   2   9   2    0.91    0.15
   2   9   2    1.24    0.18
   2   9   2    1.08    0.17
  -3  -9  -2   -0.03    0.08
  -3  -9  -2    0.10    0.09
   3   9   2    0.11    0.09
   3   9   2    0.06    0.09
   3   9   2    0.03    0.07
  -4  -9  -2    1.02    0.18
  -4  -9  -2    1.09    0.18
   4   9   2    1.49    0.21
   4   9   2    1.16    0.19
  -8  10   2    1.62    0.21
  -8  10   2    1.64    0.38
   7 -10  -2    1.60    0.22
  -7  10   2    2.19    0.43
  -7  10   2    1.65    0.20
   6 -10  -2    0.19    0.11
  -6  10   2    0.04    0.17
  -6  10   2    0.13    0.09
   5 -10  -2    0.00    0.07
   5 -10  -2    0.00    0.07
   5 -10  -2    0.18    0.09
  -5  10   2    0.06    0.09
  -5  10   2    0.10    0.17
   4 -10  -2    4.77    0.30
   4 -10  -2    5.37    0.28
   4 -10  -2    5.19    0.27
  -4  10   2    4.85    0.25
  -4  10   2    5.39    0.27
  -4  10   2    5.65    0.33
  -4  10   2    5.01    0.26
  -4  10   2    5.10    0.51
   3 -10  -2    0.46    0.12
   3 -10  -2    0.68    0.13
   3 -10  -2    0.74    0.13
  -3  10   2    0.81    0.14
  -3  10   2    0.57    0.12
  -3  10   2    0.66    0.12
  -3  10   2    0.52    0.14
  -3  10   2    0.68    0.26
   2 -10  -2    6.04    0.31
   2 -10  -2    6.01    0.31
   2 -10  -2    6.20    0.32
  -2  10   2    6.08    0.31
  -2  10   2    6.72    0.36
  -2  10   2    6.46    0.32
  -2  10   2    6.46    0.31
  -2  10   2    5.58    0.53
   1 -10  -2    0.08    0.10
   1 -10  -2    0.16    0.09
   1 -10  -2    0.21    0.10
  -1  10   2    0.31    0.12
  -1  10   2    0.14    0.09
  -1  10   2    0.25    0.09
  -1  10   2    0.20    0.19
  -1  10   2    0.25    0.10
   0 -10  -2    0.07    0.08
   0 -10  -2    0.02    0.08
   0 -10  -2   -0.05    0.08
   0  10   2    0.08    0.10
   0  10   2    0.07    0.08
   0  10   2    0.17    0.10
   0  10   2    0.19    0.09
  -1 -10  -2    0.47    0.13
  -1 -10  -2    0.56    0.12
  -1 -10  -2    0.61    0.14
   1  10   2    0.50    0.14
   1  10   2    0.28    0.11
   1  10   2    0.48    0.13
  -2 -10  -2    0.05    0.09
  -2 -10  -2    0.04    0.09
   2  10   2    0.00    0.09
   2  10   2   -0.05    0.08
   5 -11  -2    0.18    0.10
   5 -11  -2    0.19    0.10
  -5  11   2    0.35    0.23
  -5  11   2    0.17    0.12
   4 -11  -2    0.07    0.08
   4 -11  -2    0.11    0.10
   4 -11  -2   -0.07    0.08
  -4  11   2    0.23    0.10
  -4  11   2    0.19    0.10
  -4  11   2    0.08    0.19
  -4  11   2    0.16    0.08
  -4  11   2    0.04    0.09
   3 -11  -2    0.91    0.16
   3 -11  -2    1.03    0.17
   3 -11  -2    1.17    0.17
  -3  11   2    0.92    0.15
  -3  11   2    1.19    0.33
  -3  11   2    1.15    0.17
  -3  11   2    1.09    0.19
  -3  11   2    0.99    0.16
   2 -11  -2    0.01    0.09
   2 -11  -2    0.02    0.08
   2 -11  -2    0.02    0.08
  -2  11   2    0.11    0.08
  -2  11   2   -0.02    0.16
  -2  11   2    0.04    0.10
  -2  11   2    0.17    0.11
  -2  11   2    0.05    0.09
   1 -11  -2    2.42    0.25
   1 -11  -2    2.65    0.26
   1 -11  -2    2.27    0.23
  -1  11   2    2.31    0.44
  -1  11   2    2.10    0.25
  -1  11   2    2.45    0.24
  -1  11   2    2.38    0.25
  -1  11   2    2.43    0.25
   0 -11  -2    0.48    0.14
   0 -11  -2    0.25    0.12
   0 -11  -2    0.08    0.09
   0  11   2    0.12    0.11
   0  11   2    0.02    0.10
   0  11   2    0.07    0.10
   4 -12  -2    0.17    0.11
   4 -12  -2    0.06    0.09
  -3  12   2   -0.02    0.10
   2 -12  -2    0.66    0.15
   0  12  -3    0.73    0.21
  -1  12  -3    1.30    0.20
  -1  12  -3    0.73    0.16
  -1  12  -3    0.83    0.18
  -1  12  -3    1.63    0.34
   1 -12   3    0.99    0.17
   1 -12   3    0.84    0.17
  -2  12  -3    0.32    0.14
  -2  12  -3    0.00    0.09
  -2  12  -3    0.04    0.10
  -2  12  -3    0.01    0.08
  -2  12  -3    0.03    0.09
   2 -12   3   -0.01    0.09
   2 -12   3    0.07    0.10
  -3  12  -3    0.27    0.11
  -3  12  -3    0.52    0.19
  -3  12  -3    0.48    0.14
  -3  12  -3    0.11    0.10
  -3  12  -3    0.33    0.11
   3 -12   3    0.10    0.10
   3 -12   3    0.38    0.13
  -4  12  -3   -0.11    0.08
  -4  12  -3    0.00    0.09
  -4  12  -3    0.10    0.10
  -4  12  -3    0.04    0.08
   4 -12   3    0.02    0.09
   4 -12   3    0.08    0.10
   4 -12   3   -0.05    0.08
  -5  12  -3    0.40    0.11
  -5  12  -3    0.29    0.11
   5 -12   3    0.46    0.12
   5 -12   3    0.55    0.13
   5 -12   3    0.41    0.13
  -6  12  -3    2.39    0.25
   3  11  -3    2.81    0.35
   2  11  -3    0.79    0.23
   2  11  -3    0.05    0.09
   2  11  -3    0.05    0.09
  -2 -11   3    0.02    0.09
  -2 -11   3    0.08    0.10
   1  11  -3    0.02    0.09
   1  11  -3    0.40    0.17
   1  11  -3    0.03    0.08
   1  11  -3    0.00    0.10
  -1 -11   3   -0.03    0.08
  -1 -11   3    0.03    0.09
   0  11  -3    1.10    0.18
   0  11  -3    1.67    0.33
   0  11  -3    1.02    0.17
   0  11  -3    1.02    0.16
   0 -11   3    0.88    0.16
   0 -11   3    0.81    0.15
  -1  11  -3    2.33    0.23
  -1  11  -3    2.53    0.26
  -1  11  -3    2.58    0.22
  -1  11  -3    2.59    0.34
  -1  11  -3    1.96    0.22
   1 -11   3    2.36    0.24
   1 -11   3    2.51    0.24
  -2  11  -3    4.83    0.29
  -2  11  -3    4.73    0.27
  -2  11  -3    5.37    0.50
  -2  11  -3    5.12    0.31
  -2  11  -3    4.77    0.29
   2 -11   3    5.14    0.27
   2 -11   3    4.95    0.29
   2 -11   3    4.53    0.28
  -3  11  -3    3.56    0.27
  -3  11  -3    3.88    0.43
  -3  11  -3    3.14    0.24
  -3  11  -3    3.65    0.25
  -3  11  -3    3.75    0.24
   3 -11   3    3.62    0.25
   3 -11   3    3.39    0.24
   3 -11   3    3.95    0.24
  -4  11  -3    0.31    0.11
  -4  11  -3    0.25    0.10
  -4  11  -3    0.23    0.09
  -4  11  -3    0.39    0.11
  -4  11  -3    0.82    0.24
  -4  11  -3    0.38    0.12
   4 -11   3    0.25    0.10
   4 -11   3    0.40    0.12
   4 -11   3    0.37    0.12
  -5  11  -3    0.04    0.08
  -5  11  -3    0.08    0.07
  -5  11  -3    0.17    0.09
  -5  11  -3    0.13    0.09
  -5  11  -3    0.10    0.19
  -5  11  -3    0.20    0.10
   5 -11   3    0.04    0.08
   5 -11   3    0.17    0.09
   5 -11   3    0.13    0.09
  -6  11  -3    0.18    0.19
  -6  11  -3    0.11    0.09
   6 -11   3    0.17    0.09
   6 -11   3    0.19    0.10
  -7  11  -3    4.37    0.30
   7 -11   3    4.50    0.31
   4  10  -3    0.65    0.14
   4  10  -3    0.48    0.14
  -4 -10   3    0.58    0.15
  -4 -10   3    0.76    0.15
   3  10  -3    0.69    0.15
   3  10  -3    0.60    0.14
   3  10  -3    0.75    0.16
   3  10  -3    1.03    0.26
  -3 -10   3    0.55    0.13
  -3 -10   3    0.78    0.16
   2  10  -3    1.00    0.17
   2  10  -3    0.98    0.16
   2  10  -3    1.17    0.17
   2  10  -3    1.69    0.32
  -2 -10   3    0.96    0.15
  -2 -10   3    1.17    0.17
   1  10  -3    0.42    0.12
   1  10  -3    0.43    0.12
   1  10  -3    0.27    0.11
   1  10  -3    0.67    0.21
  -1 -10   3    0.45    0.12
  -1 -10   3    0.55    0.13
   0  10  -3    3.89    0.41
   0  10  -3    3.53    0.24
   0  10  -3    3.73    0.26
   0  10  -3    3.48    0.23
   0 -10   3    2.93    0.23
   0 -10   3    3.75    0.25
  -1  10  -3    6.60    0.34
  -1  10  -3    6.50    0.31
  -1  10  -3    6.49    0.32
  -1  10  -3    6.95    0.33
  -1  10  -3    6.60    0.54
   1 -10   3    5.92    0.31
   1 -10   3    7.23    0.33
   1 -10   3    6.95    0.28
  -2  10  -3    0.16    0.15
  -2  10  -3   -0.02    0.07
  -2  10  -3    0.06    0.07
  -2  10  -3   -0.03    0.07
  -2  10  -3    0.01    0.05
  -2  10  -3    0.05    0.08
   2 -10   3   -0.04    0.05
   2 -10   3    0.06    0.08
   2 -10   3   -0.02    0.07
  -3  10  -3    6.82    0.32
  -3  10  -3    7.17    0.57
  -3  10  -3    6.70    0.30
  -3  10  -3    6.85    0.31
  -3  10  -3    6.02    0.33
  -3  10  -3    7.07    0.32
   3 -10   3    7.41    0.33
   3 -10   3    6.95    0.31
   3 -10   3    6.86    0.32
  -4  10  -3   -0.01    0.05
  -4  10  -3    0.15    0.14
  -4  10  -3   -0.02    0.06
  -4  10  -3   -0.06    0.07
  -4  10  -3    0.02    0.08
  -4  10  -3   -0.01    0.07
   4 -10   3    0.02    0.07
   4 -10   3   -0.08    0.06
   4 -10   3   -0.03    0.06
  -5  10  -3    3.14    0.25
  -5  10  -3    3.46    0.21
  -5  10  -3    3.45    0.22
  -5  10  -3    3.56    0.25
  -5  10  -3    2.77    0.20
  -5  10  -3    3.03    0.39
  -5  10  -3    3.11    0.24
   5 -10   3    3.27    0.21
   5 -10   3    3.22    0.21
   5 -10   3    3.42    0.24
  -6  10  -3    2.35    0.24
  -6  10  -3    2.42    0.22
  -6  10  -3    2.13    0.41
   6 -10   3    2.31    0.23
   6 -10   3    2.51    0.19
   6 -10   3    2.07    0.17
  -7  10  -3    0.00    0.08
  -7  10  -3    0.05    0.16
   7 -10   3    0.03    0.08
  -8  10  -3    3.86    0.30
   6   9  -3    0.91    0.16
  -6  -9   3    0.60    0.15
  -6  -9   3    0.53    0.14
   5   9  -3    0.07    0.09
   5   9  -3    0.12    0.10
   5   9  -3    0.04    0.08
  -5  -9   3    0.13    0.10
  -5  -9   3    0.00    0.09
   4   9  -3    0.80    0.15
   4   9  -3    1.00    0.15
   4   9  -3    1.10    0.18
  -4  -9   3    0.89    0.15
  -4  -9   3    1.09    0.17
   3   9  -3    9.08    0.41
   3   9  -3    9.40    0.38
   3   9  -3    9.25    0.40
  -3  -9   3    9.33    0.40
  -3  -9   3    8.93    0.40
   2   9  -3    0.36    0.17
   2   9  -3    0.16    0.08
   2   9  -3    0.27    0.10
   2   9  -3    0.18    0.10
  -2  -9   3    0.21    0.09
  -2  -9   3    0.28    0.10
   1   9  -3    7.81    0.33
   1   9  -3    7.26    0.34
   1   9  -3    7.42    0.35
   1   9  -3    8.01    0.56
  -1  -9   3    7.80    0.35
  -1  -9   3    8.07    0.34
   0   9  -3    0.03    0.12
   0   9  -3    0.03    0.07
   0   9  -3   -0.01    0.07
   0   9  -3    0.03    0.06
   0  -9   3   -0.03    0.06
   0  -9   3   -0.01    0.06
   0  -9   3   -0.01    0.04
  -1   9  -3    2.54    0.19
  -1   9  -3    2.68    0.32
  -1   9  -3    2.78    0.19
  -1   9  -3    2.77    0.20
   1  -9   3    2.31    0.18
   1  -9   3    2.68    0.17
   1  -9   3    2.53    0.19
  -2   9  -3    0.96    0.14
  -2   9  -3    1.05    0.16
  -2   9  -3    1.19    0.27
  -2   9  -3    1.20    0.14
  -2   9  -3    1.02    0.13
  -2   9  -3    0.99    0.14
  -2   9  -3    0.99    0.14
   2  -9   3    0.94    0.13
   2  -9   3    0.89    0.12
   2  -9   3    0.90    0.13
  -3   9  -3    0.27    0.09
  -3   9  -3    0.37    0.17
  -3   9  -3    0.27    0.08
  -3   9  -3    0.08    0.07
  -3   9  -3    0.11    0.08
  -3   9  -3    0.17    0.09
   3  -9   3    0.14    0.07
   3  -9   3    0.05    0.07
  -4   9  -3    1.19    0.14
  -4   9  -3    1.24    0.16
  -4   9  -3    1.24    0.17
  -4   9  -3    1.18    0.15
  -4   9  -3    1.17    0.28
  -4   9  -3    1.18    0.15
   4  -9   3    1.13    0.15
   4  -9   3    1.20    0.15
  -5   9  -3    0.65    0.13
  -5   9  -3    0.58    0.11
  -5   9  -3    0.58    0.11
  -5   9  -3    0.74    0.24
  -5   9  -3    0.65    0.13
  -5   9  -3    0.56    0.12
   5  -9   3    0.54    0.12
   5  -9   3    0.68    0.12
  -6   9  -3   15.63    0.47
  -6   9  -3   15.35    0.54
  -6   9  -3   15.12    0.91
  -6   9  -3   15.39    0.56
   6  -9   3   16.27    0.48
  -7   9  -3    0.55    0.13
  -7   9  -3    0.83    0.28
  -8   9  -3    1.74    0.39
  -8   9  -3    1.88    0.23
   7   8  -3    0.10    0.09
   7   8  -3    0.08    0.10
   6   8  -3    0.15    0.10
   6   8  -3   -0.03    0.08
   6   8  -3    0.03    0.08
  -6  -8   3    0.05    0.08
  -6  -8   3    0.01    0.08
  -6  -8   3    0.15    0.10
   5   8  -3    6.44    0.31
   5   8  -3    6.44    0.34
   5   8  -3    6.85    0.33
  -5  -8   3    6.97    0.33
  -5  -8   3    6.92    0.33
   4   8  -3   -0.14    0.06
   4   8  -3   -0.03    0.07
   4   8  -3   -0.04    0.08
  -4  -8   3    0.08    0.08
  -4  -8   3    0.20    0.09
   3   8  -3    2.53    0.21
   3   8  -3    2.45    0.19
   3   8  -3    2.68    0.20
  -3  -8   3    2.47    0.19
  -3  -8   3    2.81    0.20
   2   8  -3    0.74    0.12
   2   8  -3    0.71    0.13
   2   8  -3    0.80    0.13
  -2  -8   3    0.85    0.13
  -2  -8   3    0.84    0.13
   1   8  -3    2.20    0.17
   1   8  -3    2.48    0.18
   1   8  -3    2.14    0.16
   1   8  -3    2.41    0.29
  -1  -8   3    2.48    0.18
  -1  -8   3    2.28    0.17
  -1  -8   3    2.38    0.13
   0   8  -3    8.79    0.32
   0   8  -3    8.84    0.35
   0   8  -3    8.32    0.55
   0   8  -3    8.93    0.34
   0  -8   3    9.30    0.35
   0  -8   3    8.56    0.34
   0  -8   3    8.73    0.28
  -1   8  -3    8.00    0.32
  -1   8  -3    8.04    0.36
  -1   8  -3    8.23    0.54
  -1   8  -3    7.88    0.32
   1  -8   3    7.79    0.28
   1  -8   3    8.06    0.32
  -2   8  -3    3.17    0.20
  -2   8  -3    3.10    0.33
  -2   8  -3    3.56    0.20
  -2   8  -3    3.30    0.20
  -2   8  -3    3.03    0.21
  -2   8  -3    3.12    0.19
   2  -8   3    3.26    0.20
   2  -8   3    3.27    0.18
  -3   8  -3    0.55    0.11
  -3   8  -3    0.70    0.11
  -3   8  -3    0.77    0.07
  -3   8  -3    0.61    0.11
  -3   8  -3    0.84    0.23
  -3   8  -3    0.73    0.13
  -3   8  -3    0.62    0.11
  -3   8  -3    0.56    0.10
   3  -8   3    0.75    0.11
   3  -8   3    0.65    0.11
  -4   8  -3    0.88    0.24
  -4   8  -3    0.86    0.13
  -4   8  -3    0.86    0.14
  -4   8  -3    0.79    0.12
  -4   8  -3    0.90    0.12
  -4   8  -3    0.84    0.12
  -4   8  -3    0.84    0.12
   4  -8   3    0.89    0.13
   4  -8   3    0.75    0.11
  -5   8  -3    7.70    0.29
  -5   8  -3    8.15    0.35
  -5   8  -3    7.56    0.57
  -5   8  -3    8.52    0.36
  -5   8  -3    8.02    0.30
  -5   8  -3    8.65    0.31
  -5   8  -3    8.40    0.35
   5  -8   3    8.38    0.31
  -6   8  -3    4.61    0.44
  -6   8  -3    4.76    0.26
  -6   8  -3    4.70    0.28
  -6   8  -3    4.55    0.22
  -6   8  -3    4.72    0.22
  -6   8  -3    4.60    0.22
   6  -8   3    4.62    0.22
  -7   8  -3    4.50    0.46
  -7   8  -3    4.39    0.28
  -8   8  -3    1.73    0.36
  -8   8  -3    1.73    0.22
  -9   8  -3    0.06    0.10
   7   7  -3    1.14    0.15
   7   7  -3    0.83    0.15
  -7  -7   3    1.45    0.19
  -7  -7   3    1.10    0.16
   6   7  -3    2.56    0.20
   6   7  -3    2.23    0.22
   6   7  -3    2.32    0.18
  -6  -7   3    2.03    0.21
  -6  -7   3    2.58    0.20
  -6  -7   3    2.67    0.20
   5   7  -3    1.76    0.17
   5   7  -3    2.03    0.20
   5   7  -3    1.60    0.18
  -5  -7   3    1.38    0.16
  -5  -7   3    1.82    0.19
   4   7  -3    4.39    0.23
   4   7  -3    4.54    0.25
   4   7  -3    4.65    0.26
  -4  -7   3    4.56    0.25
  -4  -7   3    4.48    0.24
   3   7  -3    1.20    0.14
   3   7  -3    1.35    0.16
   3   7  -3    1.26    0.15
  -3  -7   3    1.53    0.16
  -3  -7   3    1.31    0.10
  -3  -7   3    1.32    0.15
   2   7  -3    0.98    0.12
   2   7  -3    0.75    0.12
   2   7  -3    0.78    0.12
  -2  -7   3    0.87    0.13
  -2  -7   3    0.52    0.10
  -2  -7   3    0.77    0.08
   1   7  -3    1.05    0.22
   1   7  -3    0.81    0.12
   1   7  -3    0.97    0.12
   1   7  -3    0.96    0.12
  -1  -7   3    0.93    0.12
  -1  -7   3    0.85    0.12
  -1  -7   3    0.94    0.09
   0   7  -3    1.31    0.07
   0   7  -3    1.49    0.26
   0   7  -3    1.18    0.13
   0   7  -3    1.34    0.15
   0   7  -3    1.24    0.14
   0  -7   3    1.21    0.10
   0  -7   3    1.12    0.13
  -1   7  -3   10.09    0.39
  -1   7  -3   10.71    0.24
  -1   7  -3   10.90    0.36
  -1   7  -3   10.82    0.60
  -1   7  -3   11.01    0.36
   1  -7   3   10.24    0.35
   1  -7   3   11.47    0.33
  -2   7  -3   21.89    0.98
  -2   7  -3   21.70    0.64
  -2   7  -3   22.03    0.59
  -2   7  -3   21.57    0.57
  -2   7  -3   21.76    0.56
  -2   7  -3   21.91    0.57
  -2   7  -3   21.92    0.45
   2  -7   3   22.13    0.57
   2  -7   3   22.72    0.55
  -3   7  -3   44.79    0.96
  -3   7  -3   44.13    1.08
  -3   7  -3   43.38    0.94
  -3   7  -3   44.66    1.01
  -3   7  -3   42.72    1.00
  -3   7  -3   44.27    0.86
  -3   7  -3   43.16    0.94
  -3   7  -3   41.55    1.65
   3  -7   3   42.17    0.94
  -4   7  -3    5.24    0.23
  -4   7  -3    5.49    0.26
  -4   7  -3    6.06    0.24
  -4   7  -3    5.78    0.23
  -4   7  -3    5.55    0.25
  -4   7  -3    5.38    0.26
  -4   7  -3    5.23    0.43
   4  -7   3    5.09    0.22
  -5   7  -3    0.44    0.10
  -5   7  -3    0.45    0.08
  -5   7  -3    0.54    0.19
  -5   7  -3    0.22    0.08
  -5   7  -3    0.40    0.08
  -5   7  -3    0.55    0.09
   5  -7   3    0.35    0.08
  -6   7  -3    0.38    0.08
  -6   7  -3    0.29    0.09
  -6   7  -3    0.43    0.18
  -6   7  -3    0.24    0.07
  -6   7  -3    0.38    0.09
  -6   7  -3    0.35    0.07
   6  -7   3    0.43    0.08
  -7   7  -3    4.96    0.46
  -7   7  -3    5.77    0.31
  -8   7  -3    3.89    0.43
  -8   7  -3    3.96    0.28
  -9   7  -3    0.85    0.16
  -8  -6   3    1.99    0.21
  -8  -6   3    1.71    0.21
   7   6  -3   -0.03    0.07
   7   6  -3    0.09    0.07
   7   6  -3    0.06    0.07
  -7  -6   3    0.08    0.07
  -7  -6   3    0.08    0.08
   6   6  -3    0.46    0.11
   6   6  -3    0.64    0.12
   6   6  -3    0.66    0.11
  -6  -6   3    0.62    0.12
  -6  -6   3    0.50    0.10
  -6  -6   3    0.40    0.10
   5   6  -3    4.47    0.24
   5   6  -3    4.27    0.23
   5   6  -3    4.49    0.22
  -5  -6   3    4.51    0.19
  -5  -6   3    4.54    0.23
  -5  -6   3    4.58    0.24
   4   6  -3    0.68    0.11
   4   6  -3    0.86    0.12
   4   6  -3    0.86    0.11
  -4  -6   3    0.87    0.12
  -4  -6   3    0.81    0.09
  -4  -6   3    0.66    0.11
   3   6  -3    1.86    0.15
   3   6  -3    1.82    0.14
   3   6  -3    1.78    0.14
  -3  -6   3    1.94    0.15
  -3  -6   3    1.99    0.15
  -3  -6   3    1.83    0.11
  -3  -6   3    1.95    0.10
   2   6  -3   44.79    0.93
   2   6  -3   44.83    1.00
   2   6  -3   44.01    0.97
  -2  -6   3   42.94    0.88
  -2  -6   3   44.82    0.97
  -2  -6   3   45.39    0.96
   1   6  -3   24.81    0.60
   1   6  -3   24.17    0.68
   1   6  -3   23.76    0.61
  -1  -6   3   24.15    0.53
  -1  -6   3   24.74    0.60
   0   6  -3    8.01    0.19
   0   6  -3    8.58    0.33
   0   6  -3    8.05    0.29
   0   6  -3    7.74    0.46
   0   6  -3    7.86    0.29
   0   6  -3    8.33    0.29
   0  -6   3    8.35    0.29
   0  -6   3    8.01    0.24
  -1   6  -3    2.79    0.16
  -1   6  -3    2.63    0.26
  -1   6  -3    2.83    0.18
  -1   6  -3    2.74    0.16
  -1   6  -3    2.58    0.09
  -1   6  -3    2.73    0.16
   1  -6   3    2.98    0.16
   1  -6   3    2.82    0.14
  -2   6  -3   10.55    0.32
  -2   6  -3   10.04    0.56
  -2   6  -3   10.46    0.34
  -2   6  -3   11.26    0.33
  -2   6  -3   10.70    0.32
  -2   6  -3   10.62    0.24
  -2   6  -3    9.95    0.36
   2  -6   3   10.91    0.33
  -3   6  -3   13.55    0.40
  -3   6  -3   12.86    0.43
  -3   6  -3   13.37    0.38
  -3   6  -3   14.26    0.38
  -3   6  -3   13.42    0.37
  -3   6  -3   13.31    0.41
  -3   6  -3   13.70    0.68
   3  -6   3   12.61    0.37
  -4   6  -3   24.21    0.65
  -4   6  -3   24.85    0.58
  -4   6  -3   23.74    0.66
  -4   6  -3   24.67    0.58
  -4   6  -3   25.78    0.58
  -4   6  -3   25.06    0.63
  -4   6  -3   22.41    1.04
   4  -6   3   24.54    0.58
  -5   6  -3    0.69    0.11
  -5   6  -3    0.81    0.11
  -5   6  -3    0.86    0.22
  -5   6  -3    0.69    0.09
  -5   6  -3    0.73    0.09
  -5   6  -3    0.79    0.09
   5  -6   3    0.83    0.10
  -6   6  -3    2.18    0.16
  -6   6  -3    1.87    0.27
  -6   6  -3    2.47    0.19
  -6   6  -3    2.44    0.14
  -6   6  -3    2.49    0.14
  -6   6  -3    2.28    0.14
   6  -6   3    2.11    0.13
  -7   6  -3    1.51    0.18
  -7   6  -3    1.60    0.14
  -7   6  -3    1.47    0.30
   7  -6   3    1.54    0.12
  -8   6  -3   10.80    0.45
  -9   6  -3    0.00    0.08
 -10   6  -3    2.39    0.27
  -8  -5   3    0.28    0.10
  -8  -5   3    0.35    0.11
   7   5  -3    2.87    0.18
   7   5  -3    2.68    0.19
   7   5  -3    2.89    0.18
  -7  -5   3    2.83    0.21
  -7  -5   3    3.03    0.18
   6   5  -3    5.27    0.23
   6   5  -3    4.93    0.23
   6   5  -3    4.78    0.24
  -6  -5   3    4.99    0.23
  -6  -5   3    5.05    0.27
  -6  -5   3    4.98    0.22
  -6  -5   3    4.96    0.24
   5   5  -3    0.03    0.05
   5   5  -3   -0.03    0.05
   5   5  -3    0.00    0.05
  -5  -5   3    0.05    0.04
  -5  -5   3   -0.02    0.05
  -5  -5   3   -0.02    0.05
  -5  -5   3   -0.06    0.05
   4   5  -3    0.14    0.06
   4   5  -3    0.16    0.07
   4   5  -3    0.19    0.06
  -4  -5   3    0.22    0.06
  -4  -5   3    0.17    0.06
  -4  -5   3    0.33    0.07
   3   5  -3    1.23    0.13
   3   5  -3    1.39    0.14
   3   5  -3    1.40    0.13
  -3  -5   3    1.22    0.12
  -3  -5   3    1.52    0.10
  -3  -5   3    1.63    0.13
  -3  -5   3    1.40    0.08
   2   5  -3  116.99    2.20
   2   5  -3  116.19    2.12
   2   5  -3  118.70    2.25
  -2  -5   3  121.22    2.20
  -2  -5   3  112.89    2.14
  -2  -5   3  116.17    2.17
   1   5  -3   38.83    0.84
   1   5  -3   39.35    0.83
   1   5  -3   38.50    0.94
   1   5  -3   39.24    0.85
  -1  -5   3   40.00    0.84
  -1  -5   3   37.84    0.76
   0   5  -3    0.34    0.06
   0   5  -3    0.31    0.11
   0   5  -3    0.29    0.03
   0   5  -3    0.41    0.08
   0   5  -3    0.26    0.06
   0   5  -3    0.24    0.06
   0  -5   3    0.26    0.06
   0  -5   3    0.34    0.05
  -1   5  -3    0.53    0.03
  -1   5  -3    0.50    0.07
  -1   5  -3    0.50    0.08
  -1   5  -3    0.61    0.08
  -1   5  -3    0.51    0.13
  -1   5  -3    0.49    0.08
   1  -5   3    0.52    0.08
  -2   5  -3    1.42    0.11
  -2   5  -3    1.46    0.11
  -2   5  -3    1.43    0.10
  -2   5  -3    1.56    0.19
  -2   5  -3    1.41    0.12
  -2   5  -3    1.53    0.11
   2  -5   3    1.39    0.10
   2  -5   3    1.72    0.07
  -3   5  -3    1.17    0.10
  -3   5  -3    1.39    0.10
  -3   5  -3    1.29    0.18
  -3   5  -3    1.29    0.10
  -3   5  -3    1.23    0.11
   3  -5   3    1.12    0.10
  -4   5  -3   55.93    1.24
  -4   5  -3   54.46    1.27
  -4   5  -3   58.61    1.11
  -4   5  -3   57.70    1.12
  -4   5  -3   55.24    1.98
   4  -5   3   55.31    1.11
  -5   5  -3    0.75    0.09
  -5   5  -3    0.87    0.09
   5  -5   3    0.98    0.10
  -6   5  -3   27.69    0.61
  -6   5  -3   26.78    0.73
  -6   5  -3   25.15    1.15
  -6   5  -3   26.95    0.69
  -6   5  -3   27.11    0.60
   6  -5   3   26.50    0.60
  -7   5  -3    2.98    0.15
  -7   5  -3    3.18    0.15
  -7   5  -3    3.24    0.18
  -7   5  -3    2.71    0.20
   7  -5   3    3.19    0.15
  -8   5  -3    2.22    0.20
  -9   5  -3    7.47    0.38
 -10   5  -3    0.05    0.09
  -9  -4   3    2.51    0.23
  -9  -4   3    2.39    0.24
  -8  -4   3    3.73    0.22
  -8  -4   3    4.10    0.24
  -8  -4   3    3.81    0.25
   7   4  -3    0.88    0.12
   7   4  -3    0.74    0.10
   7   4  -3    0.74    0.09
  -7  -4   3    0.90    0.12
  -7  -4   3    0.55    0.11
  -7  -4   3    1.07    0.12
  -7  -4   3    0.74    0.12
   6   4  -3    0.36    0.08
   6   4  -3    0.24    0.06
   6   4  -3    0.21    0.07
  -6  -4   3    0.31    0.08
  -6  -4   3    0.40    0.08
  -6  -4   3    0.32    0.07
  -6  -4   3    0.23    0.07
   5   4  -3   10.63    0.31
   5   4  -3   10.59    0.32
   5   4  -3   11.02    0.34
  -5  -4   3   10.57    0.32
  -5  -4   3   10.18    0.36
  -5  -4   3   10.96    0.32
  -5  -4   3   10.69    0.33
   4   4  -3   16.63    0.35
   4   4  -3   15.46    0.43
   4   4  -3   15.86    0.40
   4   4  -3   15.79    0.42
  -4  -4   3   16.52    0.42
  -4  -4   3   17.07    0.42
  -4  -4   3   15.50    0.41
   3   4  -3   25.81    0.57
   3   4  -3   26.65    0.60
   3   4  -3   25.49    0.61
   3   4  -3   25.97    0.52
  -3  -4   3   27.33    0.67
  -3  -4   3   26.65    0.59
  -3  -4   3   25.43    0.57
  -3  -4   3   26.86    0.60
   2   4  -3    7.88    0.18
   2   4  -3    8.39    0.26
   2   4  -3    7.95    0.28
   2   4  -3    7.70    0.25
  -2  -4   3    7.59    0.25
  -2  -4   3    7.85    0.28
  -2  -4   3    7.57    0.18
   1   4  -3    0.86    0.09
   1   4  -3    0.74    0.08
   1   4  -3    0.81    0.09
   1   4  -3    0.80    0.10
  -1  -4   3    0.83    0.09
  -1  -4   3    0.78    0.08
  -1  -4   3    0.74    0.05
   0   4  -3   20.47    0.78
   0   4  -3   20.85    0.47
   0   4  -3   20.81    0.48
   0   4  -3   20.26    0.53
   0   4  -3   20.51    0.47
   0  -4   3   20.68    0.53
   0  -4   3   19.58    0.47
   0  -4   3   19.98    0.43
  -1   4  -3   36.92    0.84
  -1   4  -3   36.69    0.74
  -1   4  -3   35.15    1.26
  -1   4  -3   35.76    0.74
   1  -4   3   34.75    0.73
  -2   4  -3   87.63    1.68
  -2   4  -3   91.73    1.91
  -2   4  -3   91.17    1.76
  -2   4  -3   88.36    1.69
  -2   4  -3   92.33    2.91
   2  -4   3   90.82    1.65
   2  -4   3   90.77    1.68
  -3   4  -3   66.11    1.26
  -3   4  -3   65.33    2.19
  -3   4  -3   65.49    1.25
  -3   4  -3   64.41    1.31
  -3   4  -3   66.90    1.43
   3  -4   3   63.73    1.24
  -4   4  -3   18.29    0.42
  -4   4  -3   18.20    0.49
  -4   4  -3   18.52    0.50
  -4   4  -3   16.93    0.42
  -4   4  -3   17.10    0.77
   4  -4   3   17.43    0.42
  -5   4  -3   24.55    0.65
  -5   4  -3   23.36    1.02
  -5   4  -3   24.93    0.55
  -5   4  -3   24.48    0.54
   5  -4   3   24.76    0.54
  -6   4  -3    4.77    0.18
  -6   4  -3    4.71    0.18
  -6   4  -3    4.45    0.24
   6  -4   3    4.71    0.18
  -7   4  -3   11.24    0.36
  -7   4  -3   10.69    0.41
  -7   4  -3   10.88    0.31
  -7   4  -3   10.92    0.31
   7  -4   3   10.94    0.31
  -8   4  -3    0.02    0.07
  -9   4  -3    0.24    0.10
 -10   4  -3    0.52    0.14
  -9  -3   3    0.37    0.11
  -9  -3   3    0.17    0.09
  -8  -3   3    4.85    0.25
  -8  -3   3    4.82    0.26
  -8  -3   3    5.49    0.29
   7   3  -3    3.89    0.17
   7   3  -3    3.68    0.18
  -7  -3   3    3.71    0.20
  -7  -3   3    3.79    0.21
  -7  -3   3    3.49    0.22
   6   3  -3    3.18    0.16
   6   3  -3    3.21    0.15
   6   3  -3    3.58    0.16
  -6  -3   3    3.38    0.16
  -6  -3   3    3.18    0.18
  -6  -3   3    3.17    0.15
  -6  -3   3    3.48    0.18
  -6  -3   3    2.96    0.18
   5   3  -3    3.55    0.16
   5   3  -3    3.61    0.15
   5   3  -3    3.30    0.15
  -5  -3   3    3.60    0.16
  -5  -3   3    3.62    0.15
  -5  -3   3    3.82    0.19
  -5  -3   3    3.32    0.16
   4   3  -3   14.18    0.32
   4   3  -3   14.90    0.35
   4   3  -3   14.11    0.36
   4   3  -3   14.22    0.37
  -4  -3   3   14.51    0.40
  -4  -3   3   14.16    0.37
  -4  -3   3   14.78    0.41
  -4  -3   3   14.62    0.36
  -4  -3   3   15.11    0.37
   3   3  -3   22.67    0.43
   3   3  -3   22.53    0.47
   3   3  -3   21.84    0.50
   3   3  -3   21.77    0.49
  -3  -3   3   22.84    0.55
  -3  -3   3   21.10    0.49
  -3  -3   3   22.04    0.49
  -3  -3   3   21.32    0.48
   2   3  -3   86.88    1.66
   2   3  -3   86.87    1.84
   2   3  -3   88.60    1.64
   2   3  -3   88.43    1.62
   2   3  -3   88.69    1.63
  -2  -3   3   87.97    1.63
  -2  -3   3   88.34    1.84
   1   3  -3   50.11    0.93
   1   3  -3   49.09    1.10
   1   3  -3   49.79    1.00
   1   3  -3   51.67    0.99
   1   3  -3   51.64    0.98
  -1  -3   3   50.53    1.10
  -1  -3   3   50.76    0.92
  -1  -3   3   51.15    0.98
   0   3  -3    6.78    0.20
   0   3  -3    6.77    0.20
   0   3  -3    7.03    0.23
   0   3  -3    6.66    0.32
   0  -3   3    6.91    0.20
  -1   3  -3    9.67    0.44
  -1   3  -3   10.34    0.26
  -1   3  -3   10.08    0.30
  -1   3  -3   10.30    0.26
   1  -3   3   10.00    0.26
   1  -3   3   10.31    0.20
   1  -3   3   10.54    0.28
  -2   3  -3   18.17    0.41
  -2   3  -3   19.16    0.41
  -2   3  -3   18.53    0.72
  -2   3  -3   17.83    0.41
   2  -3   3   18.70    0.44
   2  -3   3   18.92    0.41
   2  -3   3   18.59    0.39
  -3   3  -3  366.35    6.58
  -3   3  -3  361.14    6.67
  -3   3  -3  376.79    6.96
  -3   3  -3  365.42   11.39
   3  -3   3  368.28    6.95
   3  -3   3  371.92    6.53
  -4   3  -3   24.27    0.97
  -4   3  -3   25.44    0.57
  -4   3  -3   24.06    0.52
  -4   3  -3   24.84    0.61
  -4   3  -3   23.27    0.52
   4  -3   3   24.82    0.53
  -5   3  -3    0.18    0.05
  -5   3  -3    0.11    0.04
  -5   3  -3    0.19    0.05
  -5   3  -3    0.17    0.06
   5  -3   3    0.06    0.04
  -6   3  -3    9.61    0.27
  -6   3  -3    9.71    0.30
  -6   3  -3    9.32    0.27
  -6   3  -3   10.29    0.36
   6  -3   3   10.10    0.28
  -7   3  -3   -0.04    0.04
  -7   3  -3    0.07    0.06
  -7   3  -3    0.00    0.04
  -7   3  -3   -0.03    0.04
   7  -3   3   -0.01    0.04
  -8   3  -3   12.36    0.45
  -9   3  -3    3.88    0.26
 -10   3  -3   -0.03    0.08
 -10  -2   3    0.06    0.08
 -10  -2   3   -0.01    0.08
  -9  -2   3    0.97    0.16
  -9  -2   3    0.88    0.13
  -8  -2   3   17.19    0.51
  -8  -2   3   17.29    0.52
  -8  -2   3   17.54    0.56
   7   2  -3    0.34    0.06
  -7  -2   3    0.32    0.08
  -7  -2   3    0.17    0.07
  -7  -2   3    0.20    0.07
   6   2  -3    2.70    0.12
   6   2  -3    3.21    0.14
   6   2  -3    3.01    0.13
  -6  -2   3    3.17    0.17
  -6  -2   3    2.99    0.12
  -6  -2   3    3.33    0.19
  -6  -2   3    2.83    0.16
  -6  -2   3    2.93    0.13
   5   2  -3    7.02    0.20
   5   2  -3    7.15    0.21
   5   2  -3    6.95    0.21
  -5  -2   3    6.94    0.22
  -5  -2   3    7.16    0.20
  -5  -2   3    7.24    0.21
  -5  -2   3    7.18    0.26
  -5  -2   3    6.76    0.24
  -5  -2   3    6.22    0.24
   4   2  -3   42.84    0.79
   4   2  -3   41.45    0.84
   4   2  -3   42.12    0.82
   4   2  -3   42.20    0.82
  -4  -2   3   42.44    0.87
  -4  -2   3   42.28    0.81
  -4  -2   3   43.27    0.92
  -4  -2   3   42.07    0.89
  -4  -2   3   42.01    0.82
   3   2  -3   19.52    0.48
   3   2  -3   20.44    0.40
   3   2  -3   20.93    0.44
   3   2  -3   20.91    0.45
  -3  -2   3   20.38    0.46
  -3  -2   3   20.04    0.42
  -3  -2   3   20.90    0.49
  -3  -2   3   19.43    0.43
   2   2  -3   80.82    1.50
   2   2  -3   82.79    1.66
   2   2  -3   80.16    1.48
   2   2  -3   81.67    1.49
   2   2  -3   79.80    1.47
   2   2  -3   82.04    1.47
  -2  -2   3   81.19    1.47
  -2  -2   3   77.75    1.46
  -2  -2   3   78.07    1.66
   1   2  -3  105.68    1.93
   1   2  -3  105.04    3.24
   1   2  -3  107.80    1.91
   1   2  -3  104.27    1.91
   1   2  -3  107.94    2.17
   1   2  -3  107.18    1.91
  -1  -2   3  107.76    1.92
  -1  -2   3  105.92    1.91
  -1  -2   3  106.51    1.91
  -1  -2   3  108.18    1.93
   0   2  -3   59.88    1.87
   0   2  -3   59.13    1.11
   0   2  -3   60.90    1.11
   0   2  -3   57.93    1.12
   0  -2   3   59.67    1.18
   0  -2   3   58.84    1.07
   0  -2   3   61.75    1.12
   0  -2   3   60.39    1.11
   0  -2   3   60.19    1.11
   0  -2   3   61.18    1.87
  -1   2  -3   25.88    0.53
  -1   2  -3   26.61    0.53
  -1   2  -3   26.40    0.53
  -1   2  -3   26.07    0.56
  -1   2  -3   26.31    0.52
  -1   2  -3   26.40    0.90
   1  -2   3   26.74    0.90
   1  -2   3   26.69    0.56
   1  -2   3   26.03    0.53
   1  -2   3   25.64    0.53
   1  -2   3   26.05    0.53
  -2   2  -3    8.68    0.24
  -2   2  -3    8.52    0.22
  -2   2  -3    9.02    0.40
  -2   2  -3    8.60    0.22
   2  -2   3    8.78    0.19
   2  -2   3    8.88    0.21
   2  -2   3    8.51    0.22
   2  -2   3    8.92    0.24
  -3   2  -3    3.62    0.15
  -3   2  -3    3.55    0.14
  -3   2  -3    3.35    0.13
  -3   2  -3    3.33    0.13
   3  -2   3    3.37    0.13
   3  -2   3    3.55    0.11
   3  -2   3    3.80    0.15
  -4   2  -3    2.84    0.15
  -4   2  -3    2.71    0.12
  -4   2  -3    2.47    0.13
  -4   2  -3    2.64    0.12
   4  -2   3    2.90    0.12
  -5   2  -3    0.29    0.05
  -5   2  -3    0.34    0.06
  -5   2  -3    0.35    0.07
  -5   2  -3    0.42    0.06
  -5   2  -3    0.38    0.06
   5  -2   3    0.28    0.05
  -6   2  -3    7.60    0.24
  -6   2  -3    8.22    0.24
  -6   2  -3    7.44    0.24
  -6   2  -3    7.96    0.27
  -6   2  -3    7.68    0.30
   6  -2   3    7.75    0.24
  -7   2  -3   10.85    0.31
  -7   2  -3   11.41    0.31
  -7   2  -3   10.63    0.32
  -7   2  -3   10.78    0.34
  -7   2  -3   10.91    0.39
   7  -2   3   10.70    0.31
  -8   2  -3    1.51    0.17
  -8   2  -3    1.39    0.13
  -9   2  -3    1.42    0.18
 -10   2  -3    0.36    0.12
 -10  -1   3    1.79    0.21
 -10  -1   3    1.93    0.20
  -9  -1   3    0.52    0.12
  -9  -1   3    0.41    0.10
  -8  -1   3    2.28    0.16
  -8  -1   3    2.11    0.17
  -8  -1   3    2.18    0.17
  -7  -1   3   21.49    0.58
  -7  -1   3   23.06    0.61
  -7  -1   3   22.05    0.56
   6   1  -3    0.04    0.03
   6   1  -3    0.04    0.03
  -6  -1   3    0.06    0.05
  -6  -1   3    0.05    0.05
  -6  -1   3    0.11    0.03
  -6  -1   3    0.05    0.02
  -6  -1   3    0.04    0.03
  -6  -1   3   -0.03    0.03
   5   1  -3    3.46    0.11
   5   1  -3    3.69    0.12
   5   1  -3    3.50    0.12
   5   1  -3    3.72    0.12
  -5  -1   3    3.32    0.12
  -5  -1   3    3.48    0.12
  -5  -1   3    3.58    0.17
  -5  -1   3    3.38    0.11
  -5  -1   3    3.55    0.16
  -5  -1   3    3.70    0.18
  -5  -1   3    3.53    0.11
   4   1  -3    0.37    0.04
   4   1  -3    0.38    0.04
   4   1  -3    0.29    0.04
   4   1  -3    0.43    0.05
  -4  -1   3    0.40    0.04
  -4  -1   3    0.34    0.04
  -4  -1   3    0.40    0.04
  -4  -1   3    0.35    0.06
  -4  -1   3    0.37    0.04
  -4  -1   3    0.38    0.04
  -4  -1   3    0.34    0.06
  -4  -1   3    0.36    0.06
   3   1  -3    1.44    0.07
   3   1  -3    1.39    0.07
   3   1  -3    1.39    0.07
   3   1  -3    1.44    0.07
   3   1  -3    1.48    0.07
  -3  -1   3    1.44    0.08
  -3  -1   3    1.35    0.08
  -3  -1   3    1.36    0.07
  -3  -1   3    1.37    0.07
  -3  -1   3    1.20    0.08
  -3  -1   3    1.44    0.07
  -3  -1   3    1.30    0.08
   2   1  -3   12.02    0.25
   2   1  -3   11.80    0.25
   2   1  -3   11.27    0.27
   2   1  -3   11.83    0.25
   2   1  -3   11.22    0.23
   2   1  -3   11.38    0.28
  -2  -1   3   11.30    0.25
  -2  -1   3   11.45    0.25
  -2  -1   3   11.47    0.27
  -2  -1   3   11.44    0.27
  -2  -1   3   11.48    0.25
  -2  -1   3   11.40    0.26
  -2  -1   3   11.48    0.28
   1   1  -3   70.25    2.11
   1   1  -3   70.76    1.27
   1   1  -3   71.17    1.28
   1   1  -3   72.59    1.27
   1   1  -3   71.59    1.28
   1   1  -3   70.26    1.28
   1   1  -3   71.41    1.35
  -1  -1   3   67.22    1.26
  -1  -1   3   72.03    1.27
  -1  -1   3   67.47    1.27
  -1  -1   3   70.20    1.35
  -1  -1   3   70.77    1.29
  -1  -1   3   66.98    1.28
   0   1  -3  145.17    2.53
   0   1  -3  145.75    2.56
   0   1  -3  141.04    2.58
   0   1  -3  147.25    2.70
   0   1  -3  145.20    4.39
   0   1  -3  137.80    2.63
   0  -1   3  142.50    2.68
   0  -1   3  144.88    4.44
   0  -1   3  143.09    2.53
   0  -1   3  139.30    2.70
   0  -1   3  144.15    2.55
   0  -1   3  145.78    2.59
  -1   1  -3   21.33    0.43
  -1   1  -3   20.44    0.46
  -1   1  -3   21.47    0.43
  -1   1  -3   21.45    0.44
  -1   1  -3   21.17    0.44
   1  -1   3   21.12    0.43
   1  -1   3   21.01    0.43
   1  -1   3   21.10    0.44
   1  -1   3   21.15    0.46
   1  -1   3   21.73    0.44
   1  -1   3   21.97    0.74
  -2   1  -3   83.49    1.70
  -2   1  -3   89.48    1.48
  -2   1  -3   86.80    1.61
  -2   1  -3   87.60    1.60
   2  -1   3   90.65    1.60
   2  -1   3   88.48    1.48
   2  -1   3   87.86    1.60
   2  -1   3   89.42    1.71
  -3   1  -3   75.54    1.51
  -3   1  -3   75.93    1.41
  -3   1  -3   77.20    1.31
  -3   1  -3   75.84    1.50
  -3   1  -3   74.75    1.42
  -3   1  -3   76.65    1.42
   3  -1   3   76.73    1.41
  -4   1  -3   71.81    1.27
  -4   1  -3   71.20    1.36
  -4   1  -3   70.13    1.46
  -4   1  -3   71.46    1.35
  -4   1  -3   74.12    1.45
  -4   1  -3   71.26    1.37
   4  -1   3   72.45    1.35
  -5   1  -3   19.21    0.44
  -5   1  -3   18.72    0.47
  -5   1  -3   18.95    0.48
  -5   1  -3   19.11    0.42
  -5   1  -3   19.31    0.50
  -5   1  -3   18.66    0.44
   5  -1   3   18.68    0.44
  -6   1  -3   14.26    0.40
  -6   1  -3   14.36    0.43
  -6   1  -3   14.94    0.38
  -6   1  -3   14.67    0.37
  -6   1  -3   13.96    0.41
  -6   1  -3   14.40    0.37
   6  -1   3   13.96    0.37
  -7   1  -3    2.48    0.14
  -7   1  -3    2.32    0.14
  -7   1  -3    2.33    0.13
  -7   1  -3    2.20    0.16
  -7   1  -3    2.25    0.15
  -7   1  -3    2.42    0.16
   7  -1   3    2.51    0.14
  -8   1  -3    1.68    0.13
  -8   1  -3    1.75    0.16
  -8   1  -3    1.74    0.17
  -9   1  -3    0.11    0.07
  -9   1  -3    0.02    0.07
 -10   1  -3   -0.01    0.07
 -10   0   3    0.11    0.07
 -10   0   3    0.00    0.07
  -9   0   3    4.07    0.23
  -9   0   3    3.81    0.24
  -8   0   3    0.27    0.08
  -8   0   3    0.17    0.08
  -7   0   3    0.24    0.07
  -7   0   3    0.23    0.07
  -7   0   3    0.05    0.05
   6   0  -3    6.07    0.14
  -6   0   3    5.52    0.24
  -6   0   3    5.88    0.23
  -6   0   3    6.04    0.26
  -6   0   3    6.02    0.25
   5   0  -3   22.42    0.43
  -5   0   3   22.18    0.50
  -5   0   3   22.06    0.54
  -5   0   3   21.46    0.56
  -5   0   3   21.66    0.53
   4   0  -3  165.04    4.84
   4   0  -3  160.36    2.77
   4   0  -3  160.08    2.84
  -4   0   3  162.68    2.93
  -4   0   3  162.05    2.80
  -4   0   3  152.77    2.77
  -4   0   3  153.76    2.94
  -4   0   3  158.77    2.73
  -4   0   3  161.82    2.77
  -4   0   3  159.52    2.92
  -4   0   3  155.81    3.09
   3   0  -3   52.55    0.95
   3   0  -3   51.65    0.97
   3   0  -3   52.98    0.94
   3   0  -3   53.63    1.64
   3   0  -3   53.34    1.06
   3   0  -3   54.16    0.94
  -3   0   3   51.60    0.95
  -3   0   3   53.77    1.03
  -3   0   3   52.46    0.94
  -3   0   3   54.79    0.97
  -3   0   3   52.34    0.94
  -3   0   3   53.32    1.00
  -3   0   3   52.56    1.04
  -3   0   3   52.96    1.02
   2   0  -3   14.88    0.29
   2   0  -3   14.52    0.31
   2   0  -3   14.89    0.31
   2   0  -3   14.66    0.29
   2   0  -3   14.95    0.34
   2   0  -3   15.16    0.29
   2   0  -3   14.95    0.32
   2   0  -3   15.01    0.31
  -2   0   3   14.58    0.29
  -2   0   3   14.63    0.29
  -2   0   3   14.94    0.29
  -2   0   3   14.76    0.33
  -2   0   3   14.64    0.31
  -2   0   3   14.92    0.32
  -2   0   3   14.64    0.33
  -2   0   3   14.61    0.30
   1   0  -3   55.73    0.99
   1   0  -3   53.66    1.02
   1   0  -3   53.29    0.99
   1   0  -3   55.37    0.94
   1   0  -3   56.00    1.06
   1   0  -3   52.64    1.00
  -1   0   3   55.96    1.00
  -1   0   3   55.50    1.00
  -1   0   3   55.77    0.99
  -1   0   3   56.04    1.06
  -1   0   3   53.25    1.03
  -1   0   3   56.20    1.03
  -1   0   3   55.19    0.94
  -1   0   3   55.04    0.98
   0   0  -3    1.97    0.08
   0   0  -3    1.96    0.08
   0   0  -3    1.91    0.05
   0   0  -3    1.90    0.06
   0   0  -3    1.92    0.08
   0   0  -3    1.87    0.08
   0   0  -3    1.93    0.08
   0   0  -3    2.00    0.09
   0   0   3    1.86    0.08
   0   0   3    1.79    0.08
   0   0   3    1.91    0.08
   0   0   3    1.80    0.08
  -1   0  -3  490.93    8.54
  -1   0  -3  477.71    8.57
  -1   0  -3  460.76    8.84
  -1   0  -3  472.15    8.71
  -1   0  -3  508.73    8.64
  -1   0  -3  488.84    9.26
  -1   0  -3  486.82    8.62
  -1   0  -3  486.77    8.30
   1   0   3  470.03    8.82
   1   0   3  488.09    8.34
   1   0   3  471.84    8.65
   1   0   3  480.00    8.53
   1   0   3  490.16    8.59
   1   0   3  474.78    8.51
  -2   0  -3   50.69    0.92
  -2   0  -3   48.54    0.97
  -2   0  -3   50.08    0.94
  -2   0  -3   49.30    0.94
  -2   0  -3   50.42    0.85
   2   0   3   50.62    0.92
   2   0   3   49.79    0.91
   2   0   3   47.59    0.94
  -3   0  -3    0.01    0.02
  -3   0  -3    0.05    0.02
  -3   0  -3    0.03    0.03
  -3   0  -3   -0.05    0.03
  -3   0  -3    0.03    0.03
  -3   0  -3    0.06    0.04
   3   0   3    0.06    0.03
   3   0   3    0.03    0.03
  -4   0  -3   27.04    0.61
  -4   0  -3   26.42    0.52
  -4   0  -3   26.01    0.60
  -4   0  -3   25.76    0.57
  -4   0  -3   26.22    0.57
  -4   0  -3   25.67    0.56
   4   0   3   26.00    0.55
   4   0   3   26.28    0.57
  -5   0  -3    0.07    0.04
  -5   0  -3    0.07    0.04
  -5   0  -3    0.02    0.04
  -5   0  -3    0.08    0.04
  -5   0  -3    0.00    0.03
  -5   0  -3    0.04    0.04
   5   0   3    0.05    0.04
  -6   0  -3    4.62    0.21
  -6   0  -3    4.09    0.18
  -6   0  -3    4.95    0.21
  -6   0  -3    4.23    0.20
  -6   0  -3    4.76    0.19
   6   0   3    4.42    0.19
  -7   0  -3   11.29    0.33
  -7   0  -3   10.13    0.35
  -7   0  -3   11.12    0.33
  -7   0  -3   10.76    0.37
  -7   0  -3   10.50    0.32
  -7   0  -3   10.75    0.36
   7   0   3   10.91    0.33
  -8   0  -3    4.40    0.21
  -8   0  -3    4.15    0.23
  -8   0  -3    3.96    0.23
  -9   0  -3    0.32    0.10
  -9   0  -3    0.31    0.09
  -9   0  -3    0.27    0.10
 -10   0  -3    0.34    0.10
 -10   1   3    4.21    0.25
 -10   1   3    4.48    0.28
  -9   1   3    0.57    0.11
  -9   1   3    0.58    0.12
  -8   1   3   12.03    0.43
  -8   1   3   12.86    0.41
  -8   1   3   12.85    0.46
  -7   1   3    5.62    0.26
  -7   1   3    6.01    0.26
  -7   1   3    6.31    0.28
  -7   1   3    5.88    0.24
  -6   1   3    0.96    0.11
  -6   1   3    0.79    0.11
  -6   1   3    0.96    0.11
  -6   1   3    0.83    0.10
  -5   1   3   21.25    0.52
  -5   1   3   21.43    0.54
  -5   1   3   20.94    0.49
  -5   1   3   21.23    0.55
   4  -1  -3    0.05    0.05
  -4   1   3   -0.02    0.04
  -4   1   3   -0.03    0.03
  -4   1   3   -0.04    0.03
  -4   1   3    0.04    0.04
  -4   1   3    0.00    0.03
   3  -1  -3  155.28    4.69
   3  -1  -3  150.07    2.80
  -3   1   3  153.95    2.94
  -3   1   3  153.21    4.62
  -3   1   3  153.08    2.78
  -3   1   3  153.99    2.81
  -3   1   3  150.67    2.59
  -3   1   3  150.70    2.76
   2  -1  -3   17.04    0.34
   2  -1  -3   16.23    0.32
   2  -1  -3   16.55    0.34
   2  -1  -3   16.51    0.33
   2  -1  -3   16.80    0.35
   2  -1  -3   16.47    0.32
   2  -1  -3   16.51    0.32
   2  -1  -3   16.60    0.37
   2  -1  -3   16.40    0.31
  -2   1   3   15.95    0.31
  -2   1   3   16.51    0.32
  -2   1   3   16.26    0.32
  -2   1   3   17.25    0.56
  -2   1   3   16.73    0.38
  -2   1   3   16.24    0.36
  -2   1   3   16.11    0.32
  -2   1   3   16.22    0.35
  -2   1   3   16.41    0.34
   1  -1  -3  226.18    3.98
   1  -1  -3  226.01    3.89
   1  -1  -3  225.32    3.76
   1  -1  -3  215.38    3.89
   1  -1  -3  217.00    4.19
   1  -1  -3  216.85    3.97
   1  -1  -3  224.61    4.02
   1  -1  -3  226.05    3.76
   1  -1  -3  228.15    4.15
   1  -1  -3  209.73    4.22
  -1   1   3  221.09    3.96
  -1   1   3  220.81    4.09
  -1   1   3  220.43    3.86
  -1   1   3  229.11    4.17
  -1   1   3  218.33    3.89
  -1   1   3  210.92    3.85
   0  -1  -3  121.17    2.14
   0  -1  -3  119.68    2.12
   0  -1  -3  120.33    2.18
   0  -1  -3  118.03    2.20
   0  -1  -3  121.57    2.06
   0  -1  -3  119.70    2.13
   0   1   3  120.66    2.13
   0   1   3  116.87    2.18
   0   1   3  118.90    2.30
   0   1   3  120.47    2.11
   0   1   3  119.47    2.06
  -1  -1  -3  160.97    2.79
  -1  -1  -3  162.94    2.87
  -1  -1  -3  164.14    2.98
  -1  -1  -3  164.63    2.92
  -1  -1  -3  159.10    2.89
   1   1   3  160.38    2.95
   1   1   3  165.92    2.79
   1   1   3  163.29    2.89
  -2  -1  -3   19.82    0.43
  -2  -1  -3   19.46    0.44
  -2  -1  -3   19.90    0.46
  -2  -1  -3   20.71    0.41
  -2  -1  -3   19.77    0.45
   2   1   3   20.31    0.43
   2   1   3   20.63    0.46
   2   1   3   20.96    0.45
  -3  -1  -3   75.58    1.48
  -3  -1  -3   77.49    1.42
  -3  -1  -3   75.60    1.43
  -3  -1  -3   74.55    1.41
  -3  -1  -3   76.53    1.48
   3   1   3   74.45    1.38
   3   1   3   76.96    1.43
   3   1   3   77.19    1.40
   3   1   3   74.63    1.46
  -4  -1  -3   27.02    0.58
  -4  -1  -3   25.84    0.53
  -4  -1  -3   26.27    0.59
  -4  -1  -3   26.19    0.58
  -4  -1  -3   26.25    0.57
   4   1   3   25.66    0.59
   4   1   3   25.46    0.56
   4   1   3   25.63    0.58
  -5  -1  -3    1.05    0.09
  -5  -1  -3    1.17    0.11
  -5  -1  -3    1.12    0.11
  -5  -1  -3    1.32    0.09
  -5  -1  -3    1.30    0.10
   5   1   3    1.19    0.10
   5   1   3    1.14    0.10
  -6  -1  -3    1.61    0.12
  -6  -1  -3    1.84    0.13
  -6  -1  -3    1.67    0.12
  -6  -1  -3    1.59    0.12
  -6  -1  -3    1.50    0.11
  -6  -1  -3    1.26    0.13
   6   1   3    1.40    0.11
   6   1   3    1.53    0.12
  -7  -1  -3    0.25    0.07
  -7  -1  -3    0.23    0.07
  -7  -1  -3    0.24    0.08
  -7  -1  -3    0.21    0.06
  -7  -1  -3    0.10    0.06
  -7  -1  -3    0.24    0.07
   7   1   3    0.13    0.06
  -8  -1  -3    3.64    0.22
  -8  -1  -3    3.99    0.22
  -8  -1  -3    4.45    0.21
  -9  -1  -3    0.34    0.09
  -9  -1  -3    0.39    0.11
 -10  -1  -3    1.42    0.19
 -10   2   3    1.48    0.20
 -10   2   3    1.46    0.17
  -9   2   3    6.43    0.33
  -9   2   3    7.31    0.31
  -9   2   3    6.69    0.32
  -8   2   3    1.85    0.20
  -8   2   3    2.11    0.16
  -8   2   3    1.92    0.19
  -7   2   3    6.98    0.27
  -7   2   3    6.90    0.30
  -7   2   3    7.29    0.29
  -6   2   3    2.55    0.15
  -6   2   3    2.63    0.15
  -6   2   3    2.50    0.15
  -6   2   3    2.49    0.16
  -6   2   3    2.67    0.17
  -5   2   3   11.71    0.35
  -5   2   3   11.44    0.33
  -5   2   3   10.68    0.31
  -5   2   3   11.40    0.36
  -5   2   3   11.16    0.49
  -5   2   3   11.55    0.34
  -4   2   3    0.72    0.08
  -4   2   3    0.62    0.07
  -4   2   3    0.73    0.09
  -4   2   3    0.78    0.09
  -4   2   3    0.74    0.11
  -4   2   3    0.70    0.08
   3  -2  -3    1.63    0.06
   3  -2  -3    1.59    0.06
   3  -2  -3    1.61    0.06
   3  -2  -3    1.65    0.07
   3  -2  -3    1.75    0.10
   3  -2  -3    1.58    0.06
   3  -2  -3    1.79    0.06
  -3   2   3    1.42    0.09
  -3   2   3    1.58    0.10
  -3   2   3    1.61    0.06
  -3   2   3    1.59    0.06
  -3   2   3    1.55    0.06
  -3   2   3    1.59    0.14
  -3   2   3    1.50    0.10
   2  -2  -3  106.88    1.94
   2  -2  -3  107.57    1.90
   2  -2  -3  107.98    1.84
   2  -2  -3  106.80    1.95
   2  -2  -3  107.21    1.89
   2  -2  -3  110.21    1.91
   2  -2  -3  108.71    2.01
  -2   2   3  108.17    1.96
  -2   2   3  107.34    1.91
  -2   2   3  108.25    3.31
  -2   2   3  105.24    1.90
  -2   2   3  106.89    1.84
  -2   2   3  103.94    1.99
  -2   2   3  110.05    2.07
  -2   2   3  102.93    1.94
  -2   2   3  107.87    1.89
   1  -2  -3   38.37    0.73
   1  -2  -3   37.99    0.76
   1  -2  -3   37.73    0.71
   1  -2  -3   37.33    0.70
   1  -2  -3   37.41    0.69
   1  -2  -3   37.48    0.71
   1  -2  -3   37.12    0.76
   1  -2  -3   37.28    0.74
   1  -2  -3   37.94    0.71
  -1   2   3   36.17    0.69
  -1   2   3   36.86    0.73
  -1   2   3   36.57    0.70
  -1   2   3   37.08    0.71
  -1   2   3   34.63    0.71
  -1   2   3   36.55    0.76
  -1   2   3   37.05    0.71
   0  -2  -3   63.10    1.20
   0  -2  -3   66.04    1.23
   0  -2  -3   65.63    1.25
   0  -2  -3   65.74    1.21
   0   2   3   64.05    1.17
   0   2   3   64.89    1.17
   0   2   3   65.45    1.21
   0   2   3   64.74    1.23
  -1  -2  -3   68.97    1.32
  -1  -2  -3   71.63    1.36
  -1  -2  -3   70.65    1.31
   1   2   3   69.03    1.28
   1   2   3   70.99    1.33
   1   2   3   71.14    1.35
  -2  -2  -3   23.02    0.47
  -2  -2  -3   22.93    0.52
  -2  -2  -3   23.90    0.48
  -2  -2  -3   23.52    0.53
  -2  -2  -3   22.66    0.51
   2   2   3   23.15    0.44
   2   2   3   23.24    0.52
   2   2   3   24.05    0.54
   2   2   3   23.55    0.50
  -3  -2  -3    8.92    0.22
  -3  -2  -3    9.24    0.27
  -3  -2  -3    8.66    0.27
  -3  -2  -3    9.65    0.29
  -3  -2  -3    8.74    0.25
   3   2   3    8.88    0.26
   3   2   3    9.06    0.21
   3   2   3    8.61    0.27
   3   2   3    8.78    0.27
  -4  -2  -3    8.63    0.24
  -4  -2  -3    9.09    0.29
  -4  -2  -3    8.92    0.28
  -4  -2  -3    8.32    0.26
  -4  -2  -3    8.84    0.28
   4   2   3    8.58    0.28
   4   2   3    8.71    0.29
   4   2   3    8.16    0.26
  -5  -2  -3    4.14    0.17
  -5  -2  -3    4.40    0.19
  -5  -2  -3    3.97    0.18
  -5  -2  -3    4.56    0.19
   5   2   3    3.90    0.19
   5   2   3    4.41    0.19
   5   2   3    3.90    0.19
  -6  -2  -3   10.72    0.32
  -6  -2  -3   10.89    0.35
  -6  -2  -3   10.10    0.34
  -6  -2  -3   10.89    0.34
  -6  -2  -3   11.38    0.33
   6   2   3   10.94    0.34
   6   2   3   10.63    0.35
  -7  -2  -3    0.35    0.08
  -7  -2  -3    0.66    0.10
  -7  -2  -3    0.43    0.10
  -7  -2  -3    0.30    0.08
  -7  -2  -3    0.55    0.10
   7   2   3    0.42    0.09
   7   2   3    0.43    0.09
  -8  -2  -3    0.07    0.07
  -8  -2  -3    0.12    0.06
   8   2   3    0.16    0.07
  -9  -2  -3    2.62    0.20
 -10   3   3    0.63    0.14
  -9   3   3    0.52    0.13
  -8   3   3    0.08    0.07
  -7   3   3    0.18    0.08
  -7   3   3    0.13    0.07
  -6   3   3   13.97    0.45
  -6   3   3   14.38    0.44
  -6   3   3   14.33    0.64
  -5   3   3   47.13    1.07
  -5   3   3   48.75    1.63
  -5   3   3   46.79    1.03
  -5   3   3   48.40    1.02
   4  -3  -3   20.37    0.46
   4  -3  -3   20.50    0.50
   4  -3  -3   20.43    0.39
   4  -3  -3   20.47    0.40
   4  -3  -3   20.24    0.39
   4  -3  -3   20.63    0.40
  -4   3   3   20.51    0.49
  -4   3   3   19.23    0.39
  -4   3   3   20.12    0.38
  -4   3   3   20.18    0.78
  -4   3   3   20.55    0.40
  -4   3   3   19.06    0.39
  -4   3   3   20.14    0.52
  -4   3   3   20.36    0.51
   3  -3  -3    7.32    0.18
   3  -3  -3    7.39    0.24
   3  -3  -3    7.45    0.19
   3  -3  -3    7.22    0.22
   3  -3  -3    7.70    0.19
   3  -3  -3    7.12    0.19
  -3   3   3    7.19    0.18
  -3   3   3    7.40    0.18
  -3   3   3    7.61    0.24
  -3   3   3    7.12    0.24
  -3   3   3    7.45    0.37
  -3   3   3    7.29    0.18
  -3   3   3    7.53    0.22
  -3   3   3    7.35    0.18
   2  -3  -3   18.38    0.39
   2  -3  -3   18.16    0.38
   2  -3  -3   18.48    0.39
  -2   3   3   18.39    0.39
  -2   3   3   18.43    0.40
  -2   3   3   18.71    0.43
  -2   3   3   17.95    0.38
  -2   3   3   18.38    0.44
  -2   3   3   18.06    0.44
  -2   3   3   17.48    0.40
   1  -3  -3   40.77    0.84
   1  -3  -3   41.38    0.80
   1  -3  -3   40.10    0.79
   1  -3  -3   40.72    0.76
   1  -3  -3   40.06    0.80
  -1   3   3   40.59    0.84
  -1   3   3   39.52    0.76
  -1   3   3   40.38    0.77
  -1   3   3   40.42    0.81
  -1   3   3   39.76    0.80
  -1   3   3   40.16    0.80
   0  -3  -3   94.00    1.76
   0  -3  -3   96.74    1.80
   0  -3  -3   96.63    1.83
   0  -3  -3   97.85    1.78
   0   3   3   96.15    1.72
   0   3   3   95.41    1.81
   0   3   3   96.97    1.78
  -1  -3  -3    0.18    0.05
  -1  -3  -3    0.11    0.04
  -1  -3  -3    0.06    0.04
   1   3   3    0.09    0.04
   1   3   3    0.10    0.04
   1   3   3    0.11    0.04
  -2  -3  -3    0.10    0.04
  -2  -3  -3    0.15    0.05
  -2  -3  -3    0.11    0.05
   2   3   3    0.15    0.05
   2   3   3    0.05    0.03
   2   3   3    0.06    0.04
  -3  -3  -3    0.30    0.05
  -3  -3  -3    0.28    0.07
  -3  -3  -3    0.25    0.06
  -3  -3  -3    0.32    0.07
   3   3   3    0.26    0.06
   3   3   3    0.25    0.06
   3   3   3    0.25    0.03
   3   3   3    0.23    0.06
  -4  -3  -3    7.25    0.27
  -4  -3  -3    7.76    0.27
  -4  -3  -3    7.74    0.28
  -4  -3  -3    7.31    0.25
   4   3   3    7.61    0.27
   4   3   3    8.01    0.28
   4   3   3    7.24    0.26
  -5  -3  -3   10.75    0.35
  -5  -3  -3   11.04    0.35
  -5  -3  -3   11.06    0.34
   5   3   3   10.80    0.36
   5   3   3   10.95    0.37
   5   3   3   10.86    0.34
  -6  -3  -3    0.11    0.06
  -6  -3  -3   -0.03    0.05
  -6  -3  -3    0.02    0.05
  -6  -3  -3    0.00    0.05
   6   3   3    0.05    0.06
   6   3   3   -0.01    0.06
   6   3   3   -0.03    0.05
  -7  -3  -3    1.85    0.16
  -7  -3  -3    1.69    0.17
  -7  -3  -3    1.96    0.16
  -7  -3  -3    2.10    0.15
   7   3   3    1.87    0.17
   7   3   3    2.13    0.17
  -8  -3  -3    0.17    0.08
  -8  -3  -3    0.20    0.07
   8   3   3    0.17    0.08
  -9  -3  -3    1.53    0.18
 -10   4   3    0.15    0.09
  -9   4   3    4.01    0.27
  -8   4   3    2.22    0.19
  -7   4   3    5.51    0.28
  -7   4   3    5.52    0.38
  -7   4   3    6.08    0.28
   6  -4  -3    0.76    0.11
  -6   4   3    0.64    0.16
  -6   4   3    0.55    0.10
  -6   4   3    0.62    0.11
   5  -4  -3    1.36    0.07
   5  -4  -3    1.45    0.08
   5  -4  -3    1.47    0.07
   5  -4  -3    1.37    0.07
   5  -4  -3    1.25    0.13
   5  -4  -3    1.38    0.06
   5  -4  -3    1.45    0.09
  -5   4   3    1.39    0.07
  -5   4   3    1.50    0.13
  -5   4   3    1.57    0.18
  -5   4   3    1.38    0.06
  -5   4   3    1.39    0.06
  -5   4   3    1.32    0.13
  -5   4   3    1.36    0.06
   4  -4  -3   31.40    0.65
   4  -4  -3   34.18    0.65
   4  -4  -3   34.18    0.76
   4  -4  -3   33.44    0.77
   4  -4  -3   33.16    0.65
   4  -4  -3   32.36    0.65
   4  -4  -3   32.76    0.65
  -4   4   3   34.37    0.76
  -4   4   3   32.81    0.63
  -4   4   3   32.41    0.65
  -4   4   3   33.30    0.77
  -4   4   3   32.93    0.65
  -4   4   3   33.67    1.22
   3  -4  -3   20.51    0.51
   3  -4  -3   20.19    0.51
   3  -4  -3   19.94    0.44
   3  -4  -3   20.12    0.44
  -3   4   3   19.76    0.49
  -3   4   3   20.12    0.50
  -3   4   3   19.92    0.44
  -3   4   3   19.65    0.81
  -3   4   3   19.96    0.44
  -3   4   3   20.69    0.52
  -3   4   3   20.01    0.42
   2  -4  -3   57.88    1.13
   2  -4  -3   59.01    1.28
   2  -4  -3   57.90    1.20
   2  -4  -3   59.37    1.12
  -2   4   3   60.99    1.22
  -2   4   3   59.55    1.18
  -2   4   3   56.71    1.14
  -2   4   3   58.66    1.13
  -2   4   3   58.21    1.09
  -2   4   3   59.25    1.19
   1  -4  -3   13.44    0.29
   1  -4  -3   13.94    0.35
   1  -4  -3   13.52    0.31
   1  -4  -3   14.05    0.35
   1  -4  -3   13.63    0.37
  -1   4   3   14.04    0.38
  -1   4   3   13.39    0.34
  -1   4   3   13.53    0.35
  -1   4   3   13.90    0.32
  -1   4   3   13.25    0.35
   0  -4  -3    1.45    0.10
   0  -4  -3    1.46    0.10
   0  -4  -3    1.36    0.11
   0   4   3    1.45    0.10
   0   4   3    1.38    0.10
   0   4   3    1.39    0.11
  -1  -4  -3   24.72    0.57
  -1  -4  -3   25.96    0.59
  -1  -4  -3   24.35    0.58
   1   4   3   25.52    0.60
   1   4   3   23.10    0.57
   1   4   3   25.00    0.56
  -2  -4  -3    0.03    0.04
  -2  -4  -3   -0.02    0.04
  -2  -4  -3    0.04    0.04
   2   4   3    0.04    0.04
   2   4   3    0.01    0.05
   2   4   3   -0.02    0.04
  -3  -4  -3   13.07    0.39
  -3  -4  -3   13.48    0.40
  -3  -4  -3   14.07    0.41
   3   4   3   13.86    0.41
   3   4   3   13.48    0.40
   3   4   3   13.91    0.39
  -4  -4  -3    0.42    0.09
  -4  -4  -3    0.33    0.07
  -4  -4  -3    0.31    0.08
  -4  -4  -3    0.35    0.08
   4   4   3    0.20    0.07
   4   4   3    0.38    0.08
   4   4   3    0.26    0.08
  -5  -4  -3    1.11    0.14
  -5  -4  -3    1.05    0.12
  -5  -4  -3    1.02    0.13
  -5  -4  -3    1.34    0.14
   5   4   3    0.82    0.11
   5   4   3    1.24    0.15
   5   4   3    1.13    0.14
  -6  -4  -3    3.71    0.22
  -6  -4  -3    3.59    0.20
  -6  -4  -3    3.72    0.21
   6   4   3    3.46    0.21
   6   4   3    3.92    0.23
   6   4   3    3.57    0.20
  -7  -4  -3    0.09    0.07
  -7  -4  -3    0.18    0.07
  -7  -4  -3    0.05    0.07
  -7  -4  -3    0.07    0.08
   7   4   3    0.10    0.08
   7   4   3    0.01    0.06
   7   4   3    0.04    0.07
  -8  -4  -3    1.06    0.14
  -8  -4  -3    0.95    0.15
   8   4   3    0.98    0.14
  10  -5  -3    0.66    0.14
 -10   5   3    0.65    0.15
   9  -5  -3    1.05    0.16
  -9   5   3    0.99    0.16
   8  -5  -3   13.70    0.49
  -8   5   3   14.31    0.50
  -8   5   3   13.53    0.50
  -8   5   3   13.77    0.73
   7  -5  -3    7.21    0.32
  -7   5   3    7.17    0.47
  -7   5   3    7.84    0.33
  -7   5   3    6.95    0.32
   6  -5  -3    5.34    0.26
  -6   5   3    5.36    0.38
  -6   5   3    5.17    0.25
  -6   5   3    5.74    0.26
   5  -5  -3    5.89    0.22
   5  -5  -3    6.60    0.19
   5  -5  -3    6.09    0.27
   5  -5  -3    6.32    0.18
  -5   5   3    6.23    0.18
  -5   5   3    6.29    0.41
  -5   5   3    6.13    0.26
  -5   5   3    6.50    0.18
  -5   5   3    6.66    0.27
  -5   5   3    6.01    0.18
   4  -5  -3    2.05    0.11
   4  -5  -3    2.19    0.14
   4  -5  -3    2.53    0.12
   4  -5  -3    2.02    0.14
  -4   5   3    2.23    0.11
  -4   5   3    2.25    0.11
  -4   5   3    2.51    0.15
  -4   5   3    2.23    0.14
  -4   5   3    2.35    0.24
  -4   5   3    2.22    0.11
   3  -5  -3   20.35    0.47
   3  -5  -3   20.93    0.54
   3  -5  -3   20.63    0.47
   3  -5  -3   20.55    0.55
  -3   5   3   19.63    0.86
  -3   5   3   20.27    0.47
  -3   5   3   20.50    0.52
  -3   5   3   20.58    0.54
  -3   5   3   21.01    0.46
  -3   5   3   20.32    0.48
  -3   5   3   20.18    0.51
   2  -5  -3    0.60    0.08
   2  -5  -3    0.47    0.07
   2  -5  -3    0.52    0.08
  -2   5   3    0.41    0.07
  -2   5   3    0.53    0.06
  -2   5   3    0.55    0.08
  -2   5   3    0.41    0.06
  -2   5   3    0.43    0.08
  -2   5   3    0.42    0.07
   1  -5  -3   61.79    1.20
   1  -5  -3   62.80    1.27
   1  -5  -3   60.72    1.21
   1  -5  -3   58.42    1.13
  -1   5   3   61.38    1.23
  -1   5   3   60.36    1.21
  -1   5   3   59.62    1.19
  -1   5   3   60.89    1.29
  -1   5   3   62.48    1.17
   0  -5  -3   12.75    0.37
   0  -5  -3   12.58    0.38
   0  -5  -3   12.11    0.36
   0   5   3   12.68    0.35
   0   5   3   12.70    0.37
   0   5   3   12.79    0.38
  -1  -5  -3    0.72    0.10
  -1  -5  -3    0.69    0.10
  -1  -5  -3    0.74    0.10
   1   5   3    0.71    0.09
   1   5   3    0.75    0.10
   1   5   3    0.91    0.11
  -2  -5  -3    0.26    0.07
  -2  -5  -3    0.13    0.06
  -2  -5  -3    0.12    0.06
   2   5   3    0.12    0.06
   2   5   3    0.23    0.06
   2   5   3    0.18    0.06
  -3  -5  -3   -0.09    0.05
  -3  -5  -3    0.02    0.05
  -3  -5  -3    0.02    0.05
   3   5   3   -0.01    0.06
   3   5   3   -0.02    0.05
   3   5   3   -0.02    0.04
  -4  -5  -3   17.01    0.50
  -4  -5  -3   16.75    0.49
  -4  -5  -3   15.94    0.46
  -4  -5  -3   15.61    0.48
   4   5   3   16.06    0.47
   4   5   3   16.24    0.50
   4   5   3   16.88    0.51
  -5  -5  -3    3.25    0.19
  -5  -5  -3    3.03    0.20
  -5  -5  -3    3.02    0.20
  -5  -5  -3    2.83    0.19
   5   5   3    2.88    0.20
   5   5   3    3.01    0.19
   5   5   3    2.75    0.20
  -6  -5  -3    0.21    0.09
  -6  -5  -3    0.20    0.09
  -6  -5  -3    0.32    0.09
   6   5   3    0.28    0.10
   6   5   3    0.09    0.07
   6   5   3    0.29    0.10
  -7  -5  -3    0.44    0.10
  -7  -5  -3    0.52    0.12
  -7  -5  -3    0.30    0.11
  -7  -5  -3    0.43    0.10
   7   5   3    0.18    0.09
   7   5   3    0.33    0.11
   7   5   3    0.24    0.10
  10  -6  -3    0.06    0.09
 -10   6   3    0.03    0.08
   9  -6  -3    0.44    0.12
  -9   6   3    0.41    0.12
   8  -6  -3    0.83    0.14
  -8   6   3    0.90    0.15
  -8   6   3    0.72    0.14
  -8   6   3    0.63    0.20
   7  -6  -3   12.39    0.46
  -7   6   3   13.31    0.46
  -7   6   3   13.08    0.70
  -7   6   3   12.27    0.46
   6  -6  -3    1.14    0.15
  -6   6   3    1.09    0.23
  -6   6   3    0.89    0.13
  -6   6   3    1.02    0.14
   5  -6  -3   23.72    0.53
   5  -6  -3   23.71    0.65
   5  -6  -3   24.21    0.53
  -5   6   3   24.18    0.63
  -5   6   3   23.74    0.53
  -5   6   3   22.66    1.02
  -5   6   3   22.83    0.63
  -5   6   3   25.36    0.52
  -5   6   3   23.37    0.52
   4  -6  -3    0.08    0.05
   4  -6  -3    0.03    0.06
   4  -6  -3    0.06    0.05
  -4   6   3    0.07    0.05
  -4   6   3   -0.03    0.04
  -4   6   3    0.13    0.06
  -4   6   3    0.07    0.06
  -4   6   3    0.09    0.05
  -4   6   3    0.02    0.03
  -4   6   3    0.18    0.12
   3  -6  -3    1.79    0.14
   3  -6  -3    1.71    0.12
   3  -6  -3    2.01    0.13
  -3   6   3    1.67    0.23
  -3   6   3    1.59    0.12
  -3   6   3    1.88    0.12
  -3   6   3    1.66    0.14
  -3   6   3    1.85    0.12
  -3   6   3    2.12    0.14
  -3   6   3    1.98    0.13
   2  -6  -3   44.56    0.96
   2  -6  -3   45.65    1.02
   2  -6  -3   43.16    0.95
  -2   6   3   47.57    0.98
  -2   6   3   45.10    0.95
  -2   6   3   46.11    0.98
  -2   6   3   45.19    1.04
  -2   6   3   46.12    0.96
  -2   6   3   45.79    0.93
   1  -6  -3    7.05    0.28
   1  -6  -3    6.95    0.26
   1  -6  -3    7.36    0.27
  -1   6   3    6.90    0.25
  -1   6   3    6.96    0.28
  -1   6   3    6.83    0.19
  -1   6   3    7.02    0.26
  -1   6   3    6.98    0.27
   0  -6  -3    9.11    0.32
   0  -6  -3    8.15    0.30
   0  -6  -3    8.22    0.31
   0   6   3    9.06    0.30
   0   6   3    8.89    0.31
   0   6   3    8.15    0.31
  -1  -6  -3    0.14    0.06
  -1  -6  -3    0.13    0.07
  -1  -6  -3    0.14    0.06
   1   6   3    0.16    0.07
   1   6   3    0.14    0.06
   1   6   3    0.19    0.08
  -2  -6  -3    2.12    0.16
  -2  -6  -3    2.09    0.16
  -2  -6  -3    2.41    0.17
   2   6   3    2.15    0.16
   2   6   3    2.30    0.17
   2   6   3    2.30    0.17
  -3  -6  -3   11.73    0.40
  -3  -6  -3   12.60    0.42
  -3  -6  -3   12.09    0.42
   3   6   3   12.33    0.41
   3   6   3   12.02    0.43
   3   6   3   12.61    0.43
  -4  -6  -3    2.65    0.17
  -4  -6  -3    2.92    0.19
  -4  -6  -3    2.89    0.21
  -4  -6  -3    2.72    0.20
   4   6   3    2.97    0.21
   4   6   3    2.64    0.20
   4   6   3    2.66    0.19
  -5  -6  -3    2.02    0.20
  -5  -6  -3    1.74    0.17
  -5  -6  -3    2.26    0.22
  -5  -6  -3    2.10    0.18
   5   6   3    1.65    0.18
   5   6   3    1.97    0.21
   5   6   3    1.67    0.19
  -6  -6  -3    1.16    0.16
  -6  -6  -3    1.30    0.17
  -6  -6  -3    0.82    0.13
   6   6   3    1.20    0.17
   6   6   3    0.87    0.15
   6   6   3    0.80    0.14
  -7  -6  -3    0.21    0.10
  -7  -6  -3    0.18    0.10
   7   6   3    0.31    0.11
   7   6   3    0.22    0.09
   7   6   3    0.24    0.11
   9  -7  -3    1.21    0.18
  -9   7   3    1.40    0.20
  -9   7   3    1.44    0.30
   8  -7  -3    0.00    0.07
  -8   7   3    0.05    0.12
  -8   7   3   -0.02    0.07
  -8   7   3   -0.10    0.06
   7  -7  -3    0.43    0.11
  -7   7   3    0.17    0.09
  -7   7   3    0.14    0.08
  -7   7   3    0.26    0.17
   6  -7  -3   20.55    0.62
  -6   7   3   19.20    0.59
  -6   7   3   19.58    0.96
  -6   7   3   19.92    0.58
   5  -7  -3    0.77    0.10
   5  -7  -3    0.74    0.13
   5  -7  -3    0.71    0.09
  -5   7   3    0.69    0.11
  -5   7   3    0.67    0.20
  -5   7   3    0.92    0.13
  -5   7   3    0.68    0.09
  -5   7   3    0.72    0.09
  -5   7   3    0.63    0.08
   4  -7  -3   25.40    0.60
   4  -7  -3   25.12    0.60
   4  -7  -3   25.26    0.69
  -4   7   3   24.84    0.65
  -4   7   3   23.37    1.10
  -4   7   3   25.18    0.60
  -4   7   3   25.96    0.58
  -4   7   3   25.50    0.60
  -4   7   3   25.58    0.70
  -4   7   3   26.33    0.66
   3  -7  -3    0.79    0.10
   3  -7  -3    0.77    0.11
   3  -7  -3    0.69    0.11
  -3   7   3    0.97    0.11
  -3   7   3    0.87    0.10
  -3   7   3    0.97    0.13
  -3   7   3    0.88    0.11
  -3   7   3    0.99    0.12
  -3   7   3    1.01    0.24
  -3   7   3    0.81    0.10
   2  -7  -3    0.04    0.06
   2  -7  -3    0.07    0.06
   2  -7  -3    0.04    0.06
  -2   7   3    0.00    0.06
  -2   7   3    0.07    0.05
  -2   7   3    0.05    0.11
  -2   7   3   -0.07    0.05
  -2   7   3    0.02    0.05
  -2   7   3   -0.03    0.04
   1  -7  -3    7.95    0.31
   1  -7  -3    7.88    0.30
   1  -7  -3    7.54    0.30
  -1   7   3    7.73    0.33
  -1   7   3    8.01    0.31
  -1   7   3    7.51    0.29
  -1   7   3    8.11    0.31
   0  -7  -3    1.67    0.14
   0  -7  -3    1.67    0.16
   0  -7  -3    1.80    0.15
   0   7   3    1.55    0.15
   0   7   3    1.52    0.16
   0   7   3    1.59    0.17
  -1  -7  -3   12.38    0.42
  -1  -7  -3   12.19    0.41
  -1  -7  -3   12.15    0.42
   1   7   3   12.65    0.41
   1   7   3   12.11    0.42
   1   7   3   11.90    0.43
  -2  -7  -3    3.51    0.21
  -2  -7  -3    3.59    0.22
  -2  -7  -3    4.07    0.23
   2   7   3    4.07    0.23
   2   7   3    3.22    0.22
   2   7   3    3.58    0.22
  -3  -7  -3    4.94    0.27
  -3  -7  -3    4.37    0.24
  -3  -7  -3    4.34    0.25
   3   7   3    4.45    0.25
   3   7   3    4.57    0.27
   3   7   3    5.09    0.27
  -4  -7  -3    1.48    0.17
  -4  -7  -3    1.87    0.20
  -4  -7  -3    1.88    0.20
  -4  -7  -3    1.81    0.17
   4   7   3    1.59    0.19
   4   7   3    1.82    0.19
   4   7   3    1.52    0.18
  -5  -7  -3    0.50    0.11
  -5  -7  -3    0.51    0.12
  -5  -7  -3    0.73    0.13
  -5  -7  -3    0.80    0.15
   5   7   3    0.83    0.14
   5   7   3    0.55    0.13
   5   7   3    0.51    0.13
  -6  -7  -3    0.28    0.11
  -6  -7  -3    0.16    0.10
   6   7   3    0.28    0.11
   6   7   3    0.27    0.10
   6   7   3    0.08    0.09
   9  -8  -3   -0.02    0.07
  -9   8   3   -0.05    0.08
   8  -8  -3    9.91    0.45
  -8   8   3    9.89    0.44
  -8   8   3   10.13    0.43
  -8   8   3   10.41    0.70
   7  -8  -3    2.78    0.23
  -7   8   3    2.55    0.21
  -7   8   3    2.67    0.35
  -7   8   3    2.70    0.21
   6  -8  -3    0.67    0.13
  -6   8   3    0.62    0.12
  -6   8   3    0.53    0.21
  -6   8   3    0.49    0.11
   5  -8  -3    1.14    0.16
   5  -8  -3    1.21    0.13
   5  -8  -3    1.02    0.12
  -5   8   3    1.45    0.16
  -5   8   3    1.32    0.29
  -5   8   3    1.33    0.13
  -5   8   3    1.49    0.13
  -5   8   3    1.25    0.15
   4  -8  -3    0.61    0.10
   4  -8  -3    0.48    0.09
   4  -8  -3    0.59    0.12
  -4   8   3    0.44    0.08
  -4   8   3    0.44    0.10
  -4   8   3    0.55    0.09
  -4   8   3    0.59    0.10
  -4   8   3    0.49    0.12
  -4   8   3    0.72    0.11
  -4   8   3    0.84    0.24
   3  -8  -3   13.19    0.41
   3  -8  -3   12.46    0.41
   3  -8  -3   12.82    0.46
  -3   8   3   13.24    0.42
  -3   8   3   12.89    0.41
  -3   8   3   13.95    0.39
  -3   8   3   13.18    0.77
  -3   8   3   13.88    0.43
  -3   8   3   13.47    0.40
   2  -8  -3    3.28    0.20
   2  -8  -3    3.16    0.19
   2  -8  -3    3.34    0.21
  -2   8   3    3.10    0.35
  -2   8   3    3.76    0.24
  -2   8   3    3.40    0.20
  -2   8   3    3.05    0.19
  -2   8   3    3.44    0.20
  -2   8   3    3.33    0.19
   1  -8  -3    0.08    0.07
   1  -8  -3    0.03    0.06
   1  -8  -3    0.07    0.07
  -1   8   3   -0.03    0.06
  -1   8   3    0.04    0.06
  -1   8   3   -0.06    0.05
  -1   8   3    0.05    0.06
  -1   8   3   -0.01    0.07
   0  -8  -3    3.79    0.23
   0  -8  -3    3.61    0.23
   0  -8  -3    4.51    0.24
   0   8   3    3.85    0.24
   0   8   3    4.10    0.25
   0   8   3    3.86    0.23
   0   8   3    3.79    0.22
  -1  -8  -3    0.10    0.08
  -1  -8  -3   -0.01    0.07
  -1  -8  -3    0.12    0.07
   1   8   3    0.06    0.08
   1   8   3    0.29    0.09
   1   8   3    0.15    0.09
  -2  -8  -3    1.97    0.20
  -2  -8  -3    1.97    0.20
  -2  -8  -3    1.72    0.18
   2   8   3    2.10    0.20
   2   8   3    2.16    0.21
   2   8   3    1.80    0.20
  -3  -8  -3    1.54    0.19
  -3  -8  -3    1.64    0.18
  -3  -8  -3    1.13    0.17
   3   8   3    1.68    0.19
   3   8   3    1.68    0.20
   3   8   3    1.53    0.19
  -4  -8  -3    0.48    0.13
  -4  -8  -3    0.42    0.11
  -4  -8  -3    0.35    0.12
   4   8   3    0.28    0.11
   4   8   3    0.31    0.12
   4   8   3    0.25    0.11
  -5  -8  -3   -0.02    0.08
  -5  -8  -3    0.09    0.10
   5   8   3   -0.06    0.08
   5   8   3   -0.02    0.08
  -9   9   3    0.44    0.13
   8  -9  -3    0.65    0.15
  -8   9   3    0.50    0.13
  -8   9   3    0.65    0.26
  -8   9   3    0.85    0.16
   7  -9  -3    6.02    0.35
  -7   9   3    5.93    0.31
  -7   9   3    5.80    0.53
  -7   9   3    5.63    0.31
   6  -9  -3    1.22    0.18
  -6   9   3    1.09    0.16
  -6   9   3    0.85    0.14
  -6   9   3    1.37    0.33
   5  -9  -3    0.42    0.10
   5  -9  -3    0.39    0.09
   5  -9  -3    0.51    0.13
  -5   9   3    0.33    0.08
  -5   9   3    0.44    0.10
  -5   9   3    0.40    0.12
  -5   9   3    0.40    0.22
  -5   9   3    0.37    0.10
   4  -9  -3    6.49    0.29
   4  -9  -3    6.36    0.29
   4  -9  -3    6.51    0.33
  -4   9   3    6.43    0.28
  -4   9   3    6.75    0.29
  -4   9   3    6.36    0.54
  -4   9   3    7.03    0.28
  -4   9   3    6.36    0.34
  -4   9   3    6.14    0.29
   3  -9  -3    0.48    0.11
   3  -9  -3    0.46    0.11
   3  -9  -3    0.42    0.11
  -3   9   3    0.54    0.10
  -3   9   3    0.44    0.10
  -3   9   3    0.37    0.10
  -3   9   3    0.55    0.22
  -3   9   3    0.39    0.10
  -3   9   3    0.48    0.12
   2  -9  -3    1.84    0.18
   2  -9  -3    1.94    0.19
   2  -9  -3    1.79    0.19
  -2   9   3    1.68    0.17
  -2   9   3    1.66    0.18
  -2   9   3    1.97    0.19
  -2   9   3    2.36    0.21
  -2   9   3    2.07    0.38
  -2   9   3    2.06    0.17
   1  -9  -3    2.96    0.22
   1  -9  -3    3.63    0.24
   1  -9  -3    2.82    0.21
  -1   9   3    3.24    0.22
  -1   9   3    3.21    0.20
  -1   9   3    3.18    0.24
  -1   9   3    3.32    0.23
  -1   9   3    3.63    0.22
   0  -9  -3    1.26    0.17
   0  -9  -3    1.31    0.17
   0  -9  -3    1.26    0.17
   0   9   3    1.03    0.15
   0   9   3    1.50    0.20
   0   9   3    1.19    0.17
   0   9   3    1.28    0.18
  -1  -9  -3    1.64    0.20
  -1  -9  -3    1.68    0.19
  -1  -9  -3    1.55    0.19
   1   9   3    1.72    0.20
   1   9   3    1.30    0.17
   1   9   3    1.45    0.18
  -2  -9  -3    0.46    0.13
  -2  -9  -3    0.49    0.11
  -2  -9  -3    0.40    0.11
   2   9   3    0.41    0.11
   2   9   3    0.37    0.12
   2   9   3    0.60    0.13
  -3  -9  -3    0.00    0.09
  -3  -9  -3    0.00    0.08
   3   9   3   -0.02    0.09
   3   9   3   -0.04    0.08
   3   9   3    0.04    0.09
  -8  10   3    0.06    0.09
  -7  10   3    1.27    0.18
  -7  10   3    1.56    0.37
   6 -10  -3    0.34    0.12
  -6  10   3    0.44    0.24
   5 -10  -3    3.77    0.27
   5 -10  -3    3.74    0.23
  -5  10   3    4.08    0.29
  -5  10   3    3.84    0.24
  -5  10   3    4.02    0.46
   4 -10  -3    0.16    0.10
   4 -10  -3    0.12    0.09
   4 -10  -3    0.17    0.09
  -4  10   3    0.02    0.16
  -4  10   3    0.22    0.10
  -4  10   3    0.15    0.08
  -4  10   3    0.14    0.10
  -4  10   3    0.11    0.07
  -4  10   3    0.13    0.08
   3 -10  -3    2.18    0.23
   3 -10  -3    2.21    0.21
   3 -10  -3    2.35    0.22
  -3  10   3    2.25    0.22
  -3  10   3    2.38    0.20
  -3  10   3    2.30    0.25
  -3  10   3    2.55    0.19
  -3  10   3    2.85    0.20
  -3  10   3    2.68    0.45
   2 -10  -3    1.08    0.17
   2 -10  -3    1.06    0.16
   2 -10  -3    0.94    0.16
  -2  10   3    1.14    0.16
  -2  10   3    1.12    0.18
  -2  10   3    0.88    0.15
  -2  10   3    1.44    0.35
  -2  10   3    1.15    0.16
   1 -10  -3    0.15    0.10
   1 -10  -3    0.07    0.09
   1 -10  -3    0.29    0.11
  -1  10   3    0.21    0.20
  -1  10   3    0.10    0.08
  -1  10   3    0.04    0.07
  -1  10   3    0.02    0.09
  -1  10   3    0.13    0.10
   0 -10  -3    0.94    0.16
   0 -10  -3    0.82    0.16
   0 -10  -3    1.01    0.16
   0  10   3    0.87    0.16
   0  10   3    0.97    0.16
   0  10   3    0.98    0.17
   0  10   3    1.29    0.17
  -1 -10  -3    0.32    0.12
  -1 -10  -3    0.42    0.13
  -1 -10  -3    0.52    0.13
   1  10   3    0.39    0.14
   1  10   3    0.29    0.12
   1  10   3    0.40    0.11
   1  10   3    0.30    0.11
   5 -11  -3    1.82    0.23
  -5  11   3    2.32    0.45
   4 -11  -3    5.22    0.29
   4 -11  -3    5.05    0.32
   4 -11  -3    4.46    0.27
  -4  11   3    4.78    0.33
  -4  11   3    4.89    0.27
  -4  11   3    4.48    0.27
  -4  11   3    4.49    0.51
   3 -11  -3   -0.06    0.07
   3 -11  -3    0.06    0.09
   3 -11  -3    0.06    0.09
  -3  11   3    0.02    0.07
  -3  11   3    0.02    0.08
  -3  11   3    0.05    0.09
  -3  11   3    0.09    0.10
  -3  11   3    0.06    0.17
   2 -11  -3    0.40    0.13
   2 -11  -3    0.41    0.12
   2 -11  -3    0.49    0.13
  -2  11   3    0.51    0.13
  -2  11   3    0.71    0.14
  -2  11   3    0.35    0.12
  -2  11   3    0.48    0.27
  -2  11   3    0.52    0.15
   1 -11  -3    0.04    0.10
   1 -11  -3    0.01    0.09
   1 -11  -3    0.36    0.12
  -1  11   3    0.04    0.10
  -1  11   3    0.08    0.10
  -1  11   3    0.12    0.11
   0 -11  -3    0.04    0.09
   0  12  -4    3.20    0.38
  -1  12  -4    0.14    0.11
  -1  12  -4    0.02    0.10
  -1  12  -4    0.46    0.16
  -1  12  -4   -0.05    0.09
   1 -12   4    0.14    0.11
   1 -12   4    0.03    0.10
  -2  12  -4    2.15    0.24
  -2  12  -4    3.15    0.38
  -2  12  -4    2.31    0.26
  -2  12  -4    2.34    0.25
  -2  12  -4    2.15    0.22
   2 -12   4    2.26    0.25
   2 -12   4    2.22    0.24
  -3  12  -4    0.70    0.14
  -3  12  -4    0.57    0.15
  -3  12  -4    0.42    0.13
  -3  12  -4    0.65    0.22
  -3  12  -4    0.45    0.13
   3 -12   4    0.53    0.14
   3 -12   4    0.83    0.16
  -4  12  -4    2.04    0.25
  -4  12  -4    2.11    0.23
  -4  12  -4    1.42    0.19
  -4  12  -4    1.95    0.22
   4 -12   4    1.66    0.20
   4 -12   4    1.41    0.19
   4 -12   4    1.69    0.21
  -5  12  -4    0.86    0.16
  -5  12  -4    1.00    0.15
  -5  12  -4    0.72    0.15
  -5  12  -4    1.33    0.21
   5 -12   4    1.44    0.19
   5 -12   4    0.95    0.16
   5 -12   4    1.32    0.19
  -6  12  -4    0.06    0.09
   3  11  -4    0.61    0.17
   2  11  -4    2.50    0.33
   2  11  -4    1.68    0.22
   2  11  -4    1.35    0.20
  -2 -11   4    1.53    0.20
  -2 -11   4    1.43    0.20
   1  11  -4    2.94    0.35
   1  11  -4    2.51    0.26
   1  11  -4    2.38    0.25
   1  11  -4    2.47    0.24
  -1 -11   4    2.28    0.24
  -1 -11   4    2.27    0.24
   0  11  -4    1.02    0.18
   0  11  -4    1.08    0.17
   0  11  -4    1.77    0.33
   0  11  -4    1.19    0.17
   0 -11   4    1.15    0.17
   0 -11   4    0.97    0.17
  -1  11  -4    0.17    0.10
  -1  11  -4    0.10    0.09
  -1  11  -4    0.22    0.15
  -1  11  -4    0.02    0.09
  -1  11  -4    0.12    0.08
   1 -11   4    0.03    0.09
   1 -11   4    0.17    0.09
  -2  11  -4    0.50    0.12
  -2  11  -4    0.42    0.12
  -2  11  -4    0.62    0.22
  -2  11  -4    0.37    0.12
  -2  11  -4    0.57    0.14
   2 -11   4    0.24    0.11
   2 -11   4    0.38    0.12
  -3  11  -4    2.82    0.22
  -3  11  -4    3.46    0.26
  -3  11  -4    3.68    0.41
  -3  11  -4    3.06    0.21
  -3  11  -4    3.14    0.23
  -3  11  -4    2.54    0.21
   3 -11   4    2.73    0.21
   3 -11   4    3.24    0.24
   3 -11   4    2.97    0.23
  -4  11  -4    1.28    0.17
  -4  11  -4    1.61    0.34
  -4  11  -4    1.65    0.20
  -4  11  -4    1.30    0.19
  -4  11  -4    1.08    0.15
  -4  11  -4    1.64    0.19
   4 -11   4    1.20    0.16
   4 -11   4    1.24    0.17
   4 -11   4    1.45    0.18
  -5  11  -4    2.22    0.22
  -5  11  -4    3.01    0.38
  -5  11  -4    2.14    0.21
  -5  11  -4    2.03    0.22
  -5  11  -4    2.39    0.19
  -5  11  -4    2.45    0.25
   5 -11   4    2.16    0.22
   5 -11   4    2.33    0.22
   5 -11   4    2.76    0.22
  -6  11  -4    0.05    0.18
  -6  11  -4   -0.01    0.09
   6 -11   4    0.09    0.10
   6 -11   4    0.11    0.08
  -7  11  -4    0.69    0.16
   7 -11   4    0.57    0.15
   4  10  -4    0.92    0.16
   4  10  -4    1.82    0.32
   4  10  -4    1.06    0.18
   4  10  -4    0.99    0.19
  -4 -10   4    1.08    0.18
  -4 -10   4    0.88    0.16
   3  10  -4    1.71    0.20
   3  10  -4    1.75    0.22
   3  10  -4    2.44    0.31
   3  10  -4    1.91    0.22
  -3 -10   4    1.89    0.22
  -3 -10   4    1.65    0.20
   2  10  -4    0.26    0.15
   2  10  -4    0.02    0.08
   2  10  -4    0.02    0.08
   2  10  -4    0.02    0.09
  -2 -10   4    0.01    0.08
  -2 -10   4    0.06    0.08
   1  10  -4    3.59    0.26
   1  10  -4    3.62    0.25
   1  10  -4    3.80    0.24
   1  10  -4    3.55    0.38
  -1 -10   4    3.03    0.23
  -1 -10   4    3.49    0.25
   0  10  -4    1.31    0.18
   0  10  -4    2.00    0.35
   0  10  -4    1.40    0.18
   0  10  -4    1.11    0.15
   0 -10   4    1.30    0.18
   0 -10   4    1.41    0.18
  -1  10  -4    3.49    0.24
  -1  10  -4    4.13    0.27
  -1  10  -4    3.99    0.24
  -1  10  -4    4.35    0.43
  -1  10  -4    3.43    0.24
   1 -10   4    4.04    0.26
   1 -10   4    4.25    0.26
   1 -10   4    4.03    0.21
  -2  10  -4    0.46    0.12
  -2  10  -4    0.45    0.12
  -2  10  -4    0.39    0.10
  -2  10  -4    0.65    0.14
  -2  10  -4    0.77    0.23
  -2  10  -4    0.45    0.10
  -2  10  -4    0.50    0.13
   2 -10   4    0.48    0.11
   2 -10   4    0.42    0.10
   2 -10   4    0.52    0.12
  -3  10  -4    1.58    0.18
  -3  10  -4    1.71    0.18
  -3  10  -4    1.71    0.19
  -3  10  -4    1.89    0.21
  -3  10  -4    1.97    0.37
  -3  10  -4    1.63    0.21
   3 -10   4    1.58    0.17
   3 -10   4    1.89    0.20
  -4  10  -4    0.08    0.08
  -4  10  -4    0.02    0.07
  -4  10  -4   -0.06    0.06
  -4  10  -4    0.10    0.12
  -4  10  -4    0.11    0.08
  -4  10  -4    0.00    0.07
   4 -10   4    0.08    0.08
   4 -10   4    0.02    0.08
  -5  10  -4    3.13    0.40
  -5  10  -4    2.80    0.20
  -5  10  -4    2.85    0.23
  -5  10  -4    2.95    0.23
  -5  10  -4    3.11    0.24
  -5  10  -4    3.28    0.22
   5 -10   4    3.19    0.23
   5 -10   4    3.21    0.22
  -6  10  -4    4.57    0.25
  -6  10  -4    4.64    0.50
  -6  10  -4    4.29    0.29
  -6  10  -4    4.54    0.29
   6 -10   4    4.48    0.25
   6 -10   4    4.51    0.28
  -7  10  -4    5.18    0.33
  -7  10  -4    5.02    0.54
   7 -10   4    5.07    0.31
   6   9  -4    0.43    0.13
   6   9  -4    0.34    0.13
  -6  -9   4    0.31    0.12
  -6  -9   4    0.49    0.14
   5   9  -4    0.15    0.11
   5   9  -4    0.12    0.10
   5   9  -4    0.10    0.08
  -5  -9   4    0.10    0.10
  -5  -9   4    0.11    0.09
   4   9  -4   -0.08    0.07
   4   9  -4    0.06    0.08
   4   9  -4   -0.08    0.07
  -4  -9   4    0.01    0.08
  -4  -9   4    0.07    0.08
   3   9  -4    2.24    0.22
   3   9  -4    2.43    0.24
   3   9  -4    2.10    0.20
  -3  -9   4    2.05    0.21
  -3  -9   4    2.27    0.22
   2   9  -4    3.32    0.35
   2   9  -4    2.94    0.21
   2   9  -4    3.39    0.24
   2   9  -4    3.13    0.23
  -2  -9   4    2.56    0.20
  -2  -9   4    3.24    0.23
   1   9  -4    0.09    0.07
   1   9  -4    0.19    0.09
   1   9  -4    0.23    0.14
   1   9  -4    0.27    0.10
  -1  -9   4    0.08    0.08
  -1  -9   4    0.11    0.08
   0   9  -4    0.17    0.14
   0   9  -4    0.10    0.07
   0   9  -4    0.06    0.07
   0   9  -4    0.04    0.07
   0  -9   4   -0.05    0.06
   0  -9   4   -0.05    0.05
   0  -9   4    0.07    0.05
  -1   9  -4    6.04    0.29
  -1   9  -4    5.99    0.33
  -1   9  -4    6.06    0.30
  -1   9  -4    6.62    0.50
   1  -9   4    6.21    0.25
   1  -9   4    6.29    0.30
  -2   9  -4    8.03    0.57
  -2   9  -4    7.89    0.35
  -2   9  -4    7.30    0.32
  -2   9  -4    8.42    0.35
  -2   9  -4    7.97    0.38
   2  -9   4    7.89    0.33
   2  -9   4    7.96    0.30
  -3   9  -4    5.00    0.45
  -3   9  -4    5.12    0.29
  -3   9  -4    4.45    0.25
  -3   9  -4    4.77    0.25
  -3   9  -4    5.14    0.26
  -3   9  -4    4.21    0.24
  -3   9  -4    4.57    0.26
   3  -9   4    4.50    0.25
   3  -9   4    4.39    0.23
  -4   9  -4    1.36    0.29
  -4   9  -4    0.96    0.14
  -4   9  -4    1.02    0.14
  -4   9  -4    1.02    0.15
  -4   9  -4    0.96    0.14
  -4   9  -4    1.00    0.16
  -4   9  -4    0.90    0.14
   4  -9   4    1.39    0.16
   4  -9   4    0.92    0.13
  -5   9  -4    2.68    0.20
  -5   9  -4    2.06    0.17
  -5   9  -4    2.65    0.21
  -5   9  -4    2.51    0.18
  -5   9  -4    2.51    0.18
  -5   9  -4    2.29    0.33
  -5   9  -4    2.11    0.19
   5  -9   4    2.45    0.18
  -6   9  -4    3.45    0.20
  -6   9  -4    3.43    0.20
  -6   9  -4    3.11    0.20
  -6   9  -4    3.00    0.23
  -6   9  -4    2.91    0.23
  -6   9  -4    3.00    0.38
   6  -9   4    3.26    0.21
  -7   9  -4    2.63    0.23
  -7   9  -4    2.70    0.46
  -8   9  -4    1.58    0.37
  -8   9  -4    2.04    0.24
   7   8  -4   -0.07    0.09
   6   8  -4   -0.08    0.07
   6   8  -4    0.12    0.09
   6   8  -4    0.01    0.07
  -6  -8   4    0.06    0.08
  -6  -8   4    0.10    0.09
  -6  -8   4    0.02    0.08
   5   8  -4    0.03    0.09
   5   8  -4    0.11    0.09
   5   8  -4    0.09    0.08
  -5  -8   4    0.02    0.09
  -5  -8   4    0.09    0.09
   4   8  -4    8.67    0.38
   4   8  -4    7.76    0.35
   4   8  -4    8.44    0.35
  -4  -8   4    8.36    0.35
  -4  -8   4    8.19    0.35
   3   8  -4   18.12    0.56
   3   8  -4   17.73    0.57
   3   8  -4   18.73    0.55
  -3  -8   4   19.22    0.57
  -3  -8   4   17.77    0.55
   2   8  -4    0.05    0.06
   2   8  -4    0.06    0.07
   2   8  -4    0.11    0.12
   2   8  -4    0.07    0.07
  -2  -8   4    0.00    0.06
  -2  -8   4   -0.03    0.06
   1   8  -4    3.14    0.21
   1   8  -4    2.86    0.31
   1   8  -4    2.95    0.20
   1   8  -4    2.76    0.18
  -1  -8   4    2.89    0.20
  -1  -8   4    3.24    0.20
  -1  -8   4    2.83    0.14
   0   8  -4    0.48    0.12
   0   8  -4    0.59    0.12
   0   8  -4    0.45    0.10
   0   8  -4    0.69    0.21
   0  -8   4    0.68    0.09
   0  -8   4    0.40    0.10
  -1   8  -4   13.99    0.45
  -1   8  -4   13.81    0.50
  -1   8  -4   13.73    0.45
  -1   8  -4   13.74    0.44
  -1   8  -4   13.12    0.72
   1  -8   4   14.20    0.39
   1  -8   4   14.13    0.45
  -2   8  -4   13.63    0.43
  -2   8  -4   13.57    0.45
  -2   8  -4   13.08    0.73
  -2   8  -4   13.50    0.43
  -2   8  -4   13.83    0.44
  -2   8  -4   13.42    0.49
   2  -8   4   13.86    0.44
   2  -8   4   13.82    0.41
  -3   8  -4    4.27    0.22
  -3   8  -4    4.20    0.25
  -3   8  -4    4.35    0.22
  -3   8  -4    4.20    0.23
  -3   8  -4    4.03    0.23
  -3   8  -4    4.29    0.39
  -3   8  -4    4.31    0.22
   3  -8   4    4.19    0.21
   3  -8   4    4.30    0.22
  -4   8  -4    7.42    0.31
  -4   8  -4    6.96    0.28
  -4   8  -4    7.40    0.30
  -4   8  -4    6.58    0.51
  -4   8  -4    7.44    0.29
  -4   8  -4    7.85    0.33
  -4   8  -4    7.46    0.34
   4  -8   4    6.76    0.28
  -5   8  -4    1.98    0.15
  -5   8  -4    1.88    0.15
  -5   8  -4    2.20    0.16
  -5   8  -4    1.90    0.16
  -5   8  -4    2.28    0.19
  -5   8  -4    2.18    0.31
  -5   8  -4    1.95    0.17
   5  -8   4    2.03    0.15
  -6   8  -4    0.46    0.09
  -6   8  -4    0.41    0.12
  -6   8  -4    0.38    0.09
  -6   8  -4    0.22    0.09
  -6   8  -4    0.54    0.10
  -6   8  -4    0.41    0.20
   6  -8   4    0.34    0.08
  -7   8  -4    8.08    0.40
  -7   8  -4    8.71    0.65
  -8   8  -4    2.47    0.26
  -8   8  -4    2.27    0.42
  -9   8  -4    1.46    0.22
   7   7  -4    0.90    0.14
   7   7  -4    0.81    0.15
  -7  -7   4    0.82    0.15
   6   7  -4    1.28    0.15
   6   7  -4    1.48    0.17
   6   7  -4    1.49    0.18
  -6  -7   4    1.30    0.16
  -6  -7   4    1.18    0.17
  -6  -7   4    1.53    0.18
   5   7  -4    1.63    0.18
   5   7  -4    1.71    0.18
   5   7  -4    1.49    0.16
  -5  -7   4    1.78    0.18
  -5  -7   4    1.74    0.18
   4   7  -4    0.00    0.06
   4   7  -4   -0.01    0.07
   4   7  -4   -0.05    0.05
  -4  -7   4    0.03    0.04
  -4  -7   4   -0.01    0.06
  -4  -7   4    0.01    0.06
   3   7  -4    4.67    0.24
   3   7  -4    3.78    0.23
   3   7  -4    4.07    0.22
  -3  -7   4    4.24    0.19
  -3  -7   4    4.50    0.24
  -3  -7   4    4.27    0.23
   2   7  -4    8.57    0.31
   2   7  -4    8.69    0.34
   2   7  -4    8.56    0.33
  -2  -7   4    8.97    0.33
  -2  -7   4    8.12    0.23
  -2  -7   4    8.90    0.33
   1   7  -4    1.47    0.25
   1   7  -4    1.20    0.14
   1   7  -4    1.35    0.16
   1   7  -4    1.26    0.15
  -1  -7   4    1.29    0.09
  -1  -7   4    1.22    0.14
   0   7  -4   10.52    0.41
   0   7  -4   11.42    0.37
   0   7  -4   10.86    0.60
   0   7  -4   11.56    0.38
   0   7  -4   11.43    0.38
   0  -7   4   11.14    0.37
   0  -7   4   11.19    0.31
  -1   7  -4    4.85    0.23
  -1   7  -4    4.61    0.36
  -1   7  -4    4.38    0.25
  -1   7  -4    4.62    0.22
  -1   7  -4    4.97    0.22
   1  -7   4    4.68    0.22
   1  -7   4    4.60    0.19
  -2   7  -4    1.62    0.27
  -2   7  -4    1.68    0.13
  -2   7  -4    1.84    0.14
  -2   7  -4    1.42    0.14
  -2   7  -4    1.34    0.15
  -2   7  -4    1.48    0.15
   2  -7   4    1.39    0.14
   2  -7   4    1.31    0.11
  -3   7  -4   27.00    0.75
  -3   7  -4   26.64    0.68
  -3   7  -4   27.55    0.66
  -3   7  -4   27.18    0.66
  -3   7  -4   26.61    1.14
  -3   7  -4   26.42    0.65
   3  -7   4   24.42    0.64
  -4   7  -4    0.50    0.11
  -4   7  -4    0.54    0.19
  -4   7  -4    0.41    0.09
  -4   7  -4    0.54    0.09
  -4   7  -4    0.59    0.10
  -4   7  -4    0.48    0.09
  -4   7  -4    0.62    0.10
   4  -7   4    0.70    0.10
  -5   7  -4    7.68    0.34
  -5   7  -4    7.56    0.54
  -5   7  -4    7.25    0.28
  -5   7  -4    7.95    0.28
  -5   7  -4    8.12    0.29
  -5   7  -4    7.48    0.33
   5  -7   4    7.79    0.28
  -6   7  -4    0.04    0.12
  -6   7  -4    0.29    0.09
  -6   7  -4    0.05    0.07
  -6   7  -4    0.21    0.07
  -6   7  -4    0.02    0.05
  -6   7  -4    0.12    0.06
   6  -7   4    0.19    0.07
  -7   7  -4    0.25    0.10
  -7   7  -4    0.16    0.16
   7  -7   4    0.20    0.07
  -8   7  -4   10.08    0.45
  -9   7  -4   -0.01    0.08
  -8  -6   4    0.36    0.12
  -8  -6   4    0.40    0.11
   7   6  -4    0.16    0.08
   7   6  -4    0.10    0.09
  -7  -6   4    0.08    0.08
   6   6  -4    1.19    0.15
   6   6  -4    1.36    0.14
   6   6  -4    1.30    0.15
  -6  -6   4    1.38    0.15
  -6  -6   4    1.01    0.15
  -6  -6   4    1.25    0.14
   5   6  -4    2.77    0.19
   5   6  -4    2.74    0.17
   5   6  -4    2.57    0.18
  -5  -6   4    2.47    0.15
  -5  -6   4    2.56    0.17
  -5  -6   4    2.53    0.18
   4   6  -4    3.98    0.20
   4   6  -4    3.75    0.21
   4   6  -4    4.18    0.21
  -4  -6   4    4.16    0.21
  -4  -6   4    4.24    0.21
  -4  -6   4    3.96    0.18
   3   6  -4   20.11    0.54
   3   6  -4   20.01    0.52
   3   6  -4   19.84    0.55
  -3  -6   4   20.56    0.53
  -3  -6   4   19.41    0.49
  -3  -6   4   19.65    0.53
   2   6  -4    0.22    0.08
   2   6  -4    0.18    0.07
   2   6  -4    0.15    0.07
  -2  -6   4    0.17    0.07
  -2  -6   4    0.24    0.04
   1   6  -4    0.44    0.09
   1   6  -4    0.58    0.10
   1   6  -4    0.40    0.08
   1   6  -4    0.75    0.17
   1   6  -4    0.35    0.04
   1   6  -4    0.52    0.09
  -1  -6   4    0.52    0.09
  -1  -6   4    0.48    0.05
   0   6  -4   24.93    0.61
   0   6  -4   25.82    0.62
   0   6  -4   26.55    0.63
   0   6  -4   25.43    1.02
   0   6  -4   23.90    0.68
   0  -6   4   24.61    0.61
   0  -6   4   25.32    0.55
  -1   6  -4  120.29    3.82
  -1   6  -4  118.70    2.24
  -1   6  -4  119.60    2.25
  -1   6  -4  116.43    2.53
  -1   6  -4  119.74    2.23
  -1   6  -4  119.82    2.28
   1  -6   4  119.39    2.23
   1  -6   4  113.22    2.22
  -2   6  -4   31.51    0.83
  -2   6  -4   32.24    0.74
  -2   6  -4   32.90    0.76
  -2   6  -4   32.70    0.73
  -2   6  -4   32.06    1.26
  -2   6  -4   32.59    0.74
   2  -6   4   32.68    0.73
  -3   6  -4    0.71    0.10
  -3   6  -4    0.85    0.12
  -3   6  -4    0.74    0.09
  -3   6  -4    0.62    0.09
  -3   6  -4    0.92    0.20
  -3   6  -4    0.85    0.11
   3  -6   4    0.47    0.08
  -4   6  -4    5.63    0.42
  -4   6  -4    5.74    0.23
  -4   6  -4    5.10    0.25
  -4   6  -4    5.20    0.25
  -4   6  -4    5.57    0.22
  -4   6  -4    5.91    0.24
   4  -6   4    5.45    0.22
  -5   6  -4    1.74    0.25
  -5   6  -4    1.82    0.13
  -5   6  -4    1.88    0.15
  -5   6  -4    1.74    0.13
  -5   6  -4    1.82    0.15
   5  -6   4    1.52    0.12
  -6   6  -4   29.09    1.30
  -6   6  -4   31.25    0.83
  -6   6  -4   31.06    0.70
  -6   6  -4   32.02    0.71
  -6   6  -4   29.01    0.80
   6  -6   4   30.66    0.70
  -7   6  -4    1.27    0.12
  -7   6  -4    1.06    0.11
  -7   6  -4    1.30    0.15
  -7   6  -4    1.21    0.16
   7  -6   4    0.99    0.11
  -8   6  -4    0.89    0.15
  -9   6  -4   -0.09    0.06
  -8  -5   4    0.32    0.11
  -8  -5   4    0.27    0.09
   7   5  -4    1.25    0.14
   7   5  -4    1.09    0.14
  -7  -5   4    1.15    0.15
  -7  -5   4    1.08    0.13
   6   5  -4    1.46    0.14
   6   5  -4    1.28    0.14
   6   5  -4    1.46    0.14
  -6  -5   4    1.34    0.16
  -6  -5   4    1.32    0.13
  -6  -5   4    1.25    0.13
  -6  -5   4    1.10    0.13
   5   5  -4    7.00    0.27
   5   5  -4    6.28    0.27
   5   5  -4    6.80    0.25
  -5  -5   4    6.77    0.26
  -5  -5   4    6.70    0.29
  -5  -5   4    6.66    0.25
  -5  -5   4    6.90    0.26
   4   5  -4    4.65    0.20
   4   5  -4    4.51    0.21
   4   5  -4    4.15    0.20
  -4  -5   4    4.79    0.21
  -4  -5   4    4.24    0.20
  -4  -5   4    4.45    0.19
   3   5  -4   39.98    0.89
   3   5  -4   41.18    0.91
   3   5  -4   40.04    0.85
  -3  -5   4   42.26    0.89
  -3  -5   4   42.17    0.88
  -3  -5   4   40.28    0.86
   2   5  -4    2.06    0.15
   2   5  -4    1.97    0.14
   2   5  -4    2.01    0.09
   2   5  -4    1.88    0.13
   2   5  -4    2.02    0.14
  -2  -5   4    2.03    0.07
  -2  -5   4    1.75    0.13
   1   5  -4   29.94    0.74
   1   5  -4   28.65    0.66
   1   5  -4   28.54    0.54
   1   5  -4   29.47    0.66
   1   5  -4   28.62    0.65
   1   5  -4   24.95    1.04
  -1  -5   4   29.98    0.66
  -1  -5   4   27.58    0.56
   0   5  -4   10.62    0.32
   0   5  -4    9.85    0.50
   0   5  -4   11.26    0.33
   0   5  -4   10.43    0.36
   0   5  -4   10.22    0.31
   0  -5   4   10.42    0.26
   0  -5   4   10.35    0.31
  -1   5  -4    0.06    0.04
  -1   5  -4    0.01    0.04
  -1   5  -4   -0.02    0.04
  -1   5  -4    0.05    0.04
  -1   5  -4    0.03    0.08
   1  -5   4   -0.01    0.04
  -2   5  -4  102.99    1.93
  -2   5  -4  100.57    2.01
  -2   5  -4  102.71    1.94
  -2   5  -4  105.77    2.20
  -2   5  -4  101.49    3.32
   2  -5   4  101.62    1.85
   2  -5   4  103.07    1.93
  -3   5  -4    0.09    0.09
  -3   5  -4    0.10    0.05
  -3   5  -4    0.21    0.06
  -3   5  -4    0.09    0.05
  -3   5  -4    0.06    0.04
   3  -5   4    0.06    0.04
  -4   5  -4    1.70    0.22
  -4   5  -4    1.45    0.12
  -4   5  -4    1.73    0.12
  -4   5  -4    1.91    0.14
  -4   5  -4    1.82    0.12
   4  -5   4    1.88    0.12
  -5   5  -4   53.83    1.22
  -5   5  -4   54.88    1.09
  -5   5  -4   53.47    1.96
  -5   5  -4   52.90    1.08
  -5   5  -4   51.90    1.23
   5  -5   4   52.81    1.08
  -6   5  -4    0.84    0.22
  -6   5  -4    0.93    0.12
  -6   5  -4    1.00    0.11
  -6   5  -4    1.02    0.11
  -6   5  -4    0.85    0.12
   6  -5   4    0.98    0.11
  -7   5  -4    2.33    0.19
  -7   5  -4    2.54    0.14
  -7   5  -4    2.30    0.14
  -7   5  -4    2.30    0.16
   7  -5   4    2.07    0.13
  -8   5  -4    2.90    0.23
  -9   5  -4    1.44    0.20
 -10   5  -4    0.27    0.12
  -9  -4   4    3.20    0.23
  -9  -4   4    3.29    0.25
  -8  -4   4    1.52    0.19
  -8  -4   4    1.72    0.17
  -8  -4   4    1.74    0.18
   7   4  -4    1.17    0.13
   7   4  -4    1.26    0.13
  -7  -4   4    0.96    0.13
  -7  -4   4    0.90    0.14
  -7  -4   4    0.97    0.13
   6   4  -4    1.19    0.11
   6   4  -4    1.07    0.11
   6   4  -4    1.22    0.13
  -6  -4   4    1.05    0.14
  -6  -4   4    1.25    0.12
  -6  -4   4    1.15    0.11
  -6  -4   4    1.11    0.12
   5   4  -4   15.74    0.40
   5   4  -4   16.29    0.44
   5   4  -4   15.61    0.43
  -5  -4   4   16.24    0.41
  -5  -4   4   17.33    0.43
  -5  -4   4   15.91    0.48
  -5  -4   4   15.55    0.44
   4   4  -4   20.04    0.47
   4   4  -4   19.13    0.50
   4   4  -4   19.20    0.48
   4   4  -4   19.56    0.39
  -4  -4   4   19.66    0.48
  -4  -4   4   19.07    0.48
  -4  -4   4   20.51    0.48
   3   4  -4    2.36    0.14
   3   4  -4    2.65    0.14
   3   4  -4    2.76    0.16
  -3  -4   4    2.44    0.15
  -3  -4   4    2.64    0.14
  -3  -4   4    2.38    0.13
   2   4  -4   47.41    0.95
   2   4  -4   46.62    0.94
   2   4  -4   45.34    0.96
   2   4  -4   46.25    1.06
   2   4  -4   46.09    0.89
  -2  -4   4   47.99    0.95
  -2  -4   4   45.98    1.06
   1   4  -4   17.97    0.43
   1   4  -4   17.29    0.68
   1   4  -4   17.64    0.49
   1   4  -4   17.55    0.35
   1   4  -4   18.30    0.44
   1   4  -4   16.80    0.43
  -1  -4   4   17.91    0.48
  -1  -4   4   18.45    0.43
  -1  -4   4   17.11    0.35
   0   4  -4    6.19    0.21
   0   4  -4    6.01    0.33
   0   4  -4    6.36    0.21
   0   4  -4    6.18    0.24
   0  -4   4    5.57    0.20
  -1   4  -4   39.33    1.34
  -1   4  -4   37.07    0.79
  -1   4  -4   37.96    0.79
  -1   4  -4   38.46    0.90
   1  -4   4   38.72    0.79
  -2   4  -4   28.15    0.70
  -2   4  -4   28.10    0.61
  -2   4  -4   27.95    1.05
  -2   4  -4   27.22    0.60
  -2   4  -4   28.48    0.61
   2  -4   4   27.78    0.61
   2  -4   4   28.04    0.55
  -3   4  -4   10.41    0.29
  -3   4  -4   10.65    0.53
  -3   4  -4   10.64    0.30
  -3   4  -4   10.69    0.30
   3  -4   4   10.24    0.29
  -4   4  -4    3.48    0.17
  -4   4  -4    3.44    0.18
  -4   4  -4    3.48    0.15
  -4   4  -4    3.19    0.28
  -4   4  -4    3.45    0.15
   4  -4   4    2.89    0.14
  -5   4  -4   32.15    0.69
  -5   4  -4   31.13    0.74
  -5   4  -4   32.15    0.80
  -5   4  -4   32.75    0.70
   5  -4   4   31.42    0.69
  -6   4  -4    0.29    0.08
  -6   4  -4    0.14    0.06
  -6   4  -4    0.15    0.05
  -6   4  -4    0.10    0.05
   6  -4   4    0.13    0.05
  -7   4  -4    1.76    0.13
  -7   4  -4    1.70    0.12
  -7   4  -4    1.80    0.19
  -7   4  -4    1.91    0.12
   7  -4   4    1.61    0.12
  -8   4  -4    1.78    0.19
  -9   4  -4    2.37    0.24
 -10   4  -4    1.66    0.22
  -9  -3   4    0.08    0.08
  -9  -3   4    0.21    0.09
  -9  -3   4    0.12    0.09
  -8  -3   4    2.64    0.19
  -8  -3   4    2.69    0.19
  -8  -3   4    2.24    0.19
   7   3  -4    0.03    0.05
  -7  -3   4    0.04    0.06
  -7  -3   4    0.01    0.05
  -7  -3   4    0.12    0.06
   6   3  -4   11.85    0.33
   6   3  -4   11.66    0.34
   6   3  -4   11.61    0.31
  -6  -3   4   11.75    0.31
  -6  -3   4   12.02    0.33
  -6  -3   4   11.04    0.36
   5   3  -4    0.30    0.06
   5   3  -4    0.22    0.05
   5   3  -4    0.32    0.06
  -5  -3   4    0.32    0.07
  -5  -3   4    0.27    0.07
  -5  -3   4    0.29    0.06
  -5  -3   4    0.25    0.06
  -5  -3   4    0.27    0.06
   4   3  -4    3.45    0.15
   4   3  -4    3.45    0.14
   4   3  -4    3.46    0.10
   4   3  -4    3.37    0.15
  -4  -3   4    3.09    0.14
  -4  -3   4    3.43    0.16
  -4  -3   4    3.19    0.14
  -4  -3   4    3.61    0.17
  -4  -3   4    3.08    0.15
   3   3  -4   10.76    0.29
   3   3  -4   10.92    0.32
   3   3  -4   10.82    0.29
   3   3  -4   10.96    0.30
  -3  -3   4   10.76    0.29
  -3  -3   4   10.56    0.32
  -3  -3   4   11.12    0.30
   2   3  -4    8.43    0.25
   2   3  -4    8.62    0.25
   2   3  -4    8.37    0.27
   2   3  -4    8.88    0.26
   2   3  -4    8.90    0.22
  -2  -3   4    9.00    0.25
   1   3  -4  181.43    3.28
   1   3  -4  181.25    3.31
   1   3  -4  186.90    5.58
   1   3  -4  183.38    3.27
   1   3  -4  188.49    3.72
  -1  -3   4  181.68    3.28
   0   3  -4   84.07    1.61
   0   3  -4   90.21    1.81
   0   3  -4   87.51    1.60
   0   3  -4   85.20    2.70
   0  -3   4   85.21    1.59
   0  -3   4   85.51    2.69
   0  -3   4   85.59    1.70
  -1   3  -4    7.85    0.23
  -1   3  -4    7.70    0.23
  -1   3  -4    7.94    0.38
   1  -3   4    8.22    0.25
   1  -3   4    8.08    0.23
  -2   3  -4   27.82    1.02
  -2   3  -4   28.74    0.63
  -2   3  -4   28.50    0.59
  -2   3  -4   27.99    0.58
  -2   3  -4   26.84    0.59
   2  -3   4   28.52    0.59
  -3   3  -4    5.18    0.34
  -3   3  -4    5.66    0.19
  -3   3  -4    5.58    0.20
  -3   3  -4    5.58    0.19
   3  -3   4    5.63    0.19
  -4   3  -4    4.06    0.16
  -4   3  -4    4.13    0.19
  -4   3  -4    4.04    0.17
  -4   3  -4    3.95    0.16
   4  -3   4    3.88    0.16
  -5   3  -4   20.54    0.48
  -5   3  -4   21.07    0.56
  -5   3  -4   20.13    0.51
  -5   3  -4   20.00    0.48
   5  -3   4   19.63    0.47
  -6   3  -4    2.03    0.12
  -6   3  -4    1.85    0.12
  -6   3  -4    1.67    0.13
  -6   3  -4    2.00    0.16
   6  -3   4    1.87    0.12
  -7   3  -4    2.51    0.14
  -7   3  -4    2.42    0.14
  -7   3  -4    2.29    0.15
  -7   3  -4    2.53    0.19
   7  -3   4    2.44    0.14
  -8   3  -4    0.06    0.07
  -9   3  -4    0.68    0.14
 -10   3  -4    5.06    0.31
 -10  -2   4    0.65    0.13
 -10  -2   4    0.65    0.14
  -9  -2   4    0.07    0.07
  -9  -2   4    0.05    0.07
  -9  -2   4    0.03    0.07
  -8  -2   4    0.05    0.06
  -8  -2   4    0.20    0.08
  -8  -2   4    0.21    0.08
  -7  -2   4    3.92    0.21
  -7  -2   4    3.59    0.21
  -7  -2   4    3.96    0.21
   6   2  -4    8.69    0.23
   6   2  -4    8.92    0.24
   6   2  -4    9.67    0.26
  -6  -2   4    8.43    0.24
  -6  -2   4    8.77    0.32
  -6  -2   4    9.01    0.23
  -6  -2   4    8.62    0.31
  -6  -2   4    8.94    0.30
   5   2  -4   25.43    0.53
   5   2  -4   24.50    0.50
   5   2  -4   25.11    0.55
  -5  -2   4   25.48    0.58
  -5  -2   4   24.08    0.59
  -5  -2   4   25.04    0.53
  -5  -2   4   24.61    0.61
  -5  -2   4   25.62    0.51
   4   2  -4    4.36    0.15
   4   2  -4    4.29    0.14
   4   2  -4    4.60    0.12
   4   2  -4    4.44    0.16
  -4  -2   4    4.10    0.14
  -4  -2   4    4.47    0.19
  -4  -2   4    4.18    0.17
  -4  -2   4    4.25    0.15
   3   2  -4    2.74    0.08
   3   2  -4    2.81    0.11
   3   2  -4    2.76    0.12
   3   2  -4    2.76    0.12
   3   2  -4    3.07    0.08
   3   2  -4    2.73    0.12
  -3  -2   4    2.69    0.13
  -3  -2   4    2.74    0.13
  -3  -2   4    2.78    0.11
   2   2  -4   37.53    0.74
   2   2  -4   37.64    0.83
   2   2  -4   37.49    0.74
   2   2  -4   37.73    0.74
  -2  -2   4   38.08    0.74
  -2  -2   4   37.85    0.78
  -2  -2   4   37.08    0.74
   1   2  -4   35.02    0.68
   1   2  -4   35.14    0.71
   1   2  -4   37.01    1.14
   1   2  -4   35.55    0.70
  -1  -2   4   35.92    0.68
  -1  -2   4   36.13    0.66
  -1  -2   4   35.32    0.70
  -1  -2   4   35.75    0.74
   0   2  -4   75.12    1.39
   0   2  -4   75.85    1.49
   0   2  -4   74.36    1.40
   0   2  -4   75.02    2.35
   0  -2   4   74.96    1.39
   0  -2   4   74.97    1.39
   0  -2   4   79.45    2.35
   0  -2   4   76.26    1.48
  -1   2  -4   39.28    0.74
  -1   2  -4   38.85    1.28
  -1   2  -4   36.34    0.76
  -1   2  -4   37.25    0.75
  -1   2  -4   38.72    0.81
   1  -2   4   40.68    0.81
   1  -2   4   39.53    0.76
   1  -2   4   37.01    0.75
  -2   2  -4   26.36    0.56
  -2   2  -4   27.44    0.60
  -2   2  -4   26.41    0.56
   2  -2   4   26.96    0.56
   2  -2   4   27.14    0.60
   2  -2   4   27.02    0.54
   2  -2   4   26.99    0.49
  -3   2  -4    2.60    0.12
  -3   2  -4    2.38    0.12
  -3   2  -4    2.69    0.13
   3  -2   4    2.59    0.09
   3  -2   4    2.52    0.10
   3  -2   4    2.65    0.12
  -4   2  -4    0.52    0.07
  -4   2  -4    0.71    0.08
  -4   2  -4    0.85    0.10
  -4   2  -4    0.57    0.08
   4  -2   4    0.65    0.08
  -5   2  -4    0.91    0.11
  -5   2  -4    0.67    0.08
  -5   2  -4    0.68    0.09
  -5   2  -4    0.73    0.08
   5  -2   4    0.75    0.09
  -6   2  -4   41.90    0.95
  -6   2  -4   43.15    0.88
  -6   2  -4   42.10    0.99
  -6   2  -4   41.39    0.83
  -6   2  -4   43.20    0.89
   6  -2   4   42.89    0.88
  -7   2  -4    7.50    0.29
  -7   2  -4    8.32    0.33
  -7   2  -4    7.85    0.27
  -7   2  -4    8.22    0.27
   7  -2   4    7.88    0.27
  -8   2  -4    3.98    0.24
  -9   2  -4    0.09    0.08
 -10   2  -4    0.38    0.11
 -10  -1   4    0.56    0.13
 -10  -1   4    0.80    0.14
  -9  -1   4    2.02    0.19
  -9  -1   4    1.89    0.20
  -8  -1   4    2.90    0.20
  -8  -1   4    2.81    0.19
  -8  -1   4    2.75    0.18
  -7  -1   4    3.26    0.19
  -7  -1   4    2.85    0.18
  -7  -1   4    2.60    0.17
   6   1  -4   10.75    0.24
   6   1  -4   10.72    0.25
   6   1  -4   10.21    0.23
  -6  -1   4   10.32    0.24
  -6  -1   4   10.24    0.35
  -6  -1   4   10.11    0.34
  -6  -1   4   10.50    0.22
   5   1  -4    4.51    0.14
   5   1  -4    4.68    0.13
   5   1  -4    4.68    0.13
   5   1  -4    4.44    0.12
  -5  -1   4    4.40    0.13
  -5  -1   4    4.47    0.12
  -5  -1   4    4.62    0.19
  -5  -1   4    4.30    0.19
  -5  -1   4    3.99    0.19
  -5  -1   4    4.63    0.13
  -5  -1   4    4.33    0.13
   4   1  -4   59.03    1.12
   4   1  -4   60.20    1.85
   4   1  -4   60.46    1.09
   4   1  -4   59.35    1.08
  -4  -1   4   58.28    1.10
  -4  -1   4   57.90    1.18
  -4  -1   4   58.28    1.06
  -4  -1   4   59.02    1.18
  -4  -1   4   59.62    1.08
  -4  -1   4   59.75    1.08
  -4  -1   4   59.06    1.15
   3   1  -4  109.47    1.98
   3   1  -4  109.20    1.99
   3   1  -4  112.37    2.02
   3   1  -4  111.71    1.97
   3   1  -4  114.53    2.23
   3   1  -4  107.74    2.02
   3   1  -4  114.36    3.34
  -3  -1   4  111.22    2.06
  -3  -1   4  112.80    2.10
  -3  -1   4  111.35    2.06
  -3  -1   4  111.62    1.97
  -3  -1   4  107.31    1.92
  -3  -1   4  110.84    1.99
  -3  -1   4  111.37    2.05
  -3  -1   4  107.33    1.98
   2   1  -4   99.27    1.78
   2   1  -4   99.51    1.77
   2   1  -4  100.08    1.76
   2   1  -4  100.54    1.76
   2   1  -4   94.46    1.81
  -2  -1   4   98.60    1.87
  -2  -1   4   96.69    1.69
  -2  -1   4   98.25    1.80
  -2  -1   4   96.90    1.76
  -2  -1   4   99.58    1.81
  -2  -1   4   97.46    1.76
  -2  -1   4   97.99    1.77
   1   1  -4   40.82    0.76
   1   1  -4   39.16    0.76
   1   1  -4   40.65    0.81
   1   1  -4   41.01    0.75
   1   1  -4   39.87    0.77
  -1  -1   4   39.85    0.77
  -1  -1   4   41.04    1.23
  -1  -1   4   38.95    0.76
  -1  -1   4   40.18    0.76
  -1  -1   4   41.30    0.76
  -1  -1   4   41.43    0.81
  -1  -1   4   38.09    0.77
   0   1  -4  242.34    4.24
   0   1  -4  241.65    4.24
   0   1  -4  235.92    4.52
   0   1  -4  238.57    4.34
   0   1  -4  236.47    4.50
   0  -1   4  240.47    4.52
   0  -1   4  240.80    4.30
   0  -1   4  242.92    4.27
   0  -1   4  244.82    7.39
   0  -1   4  243.97    4.24
   0  -1   4  249.74    4.52
  -1   1  -4    0.65    0.05
  -1   1  -4    0.51    0.06
  -1   1  -4    0.61    0.06
  -1   1  -4    0.70    0.06
   1  -1   4    0.61    0.07
   1  -1   4    0.67    0.09
   1  -1   4    0.72    0.06
  -2   1  -4   24.93    0.53
  -2   1  -4   25.67    0.54
  -2   1  -4   25.27    0.57
   2  -1   4   25.08    0.50
   2  -1   4   24.50    0.53
  -3   1  -4   36.58    0.64
  -3   1  -4   34.92    0.73
  -3   1  -4   35.58    0.78
  -3   1  -4   34.98    0.72
   3  -1   4   35.60    0.73
  -4   1  -4   34.85    0.77
  -4   1  -4   33.94    0.64
  -4   1  -4   34.22    0.71
  -4   1  -4   32.73    0.76
  -4   1  -4   34.55    0.72
   4  -1   4   33.01    0.71
  -5   1  -4   22.67    0.53
  -5   1  -4   22.63    0.57
  -5   1  -4   23.05    0.57
  -5   1  -4   21.55    0.47
  -5   1  -4   21.43    0.53
  -5   1  -4   23.72    0.53
   5  -1   4   22.87    0.53
  -6   1  -4    0.40    0.06
  -6   1  -4    0.35    0.07
  -6   1  -4    0.29    0.07
  -6   1  -4    0.37    0.07
  -6   1  -4    0.31    0.07
  -7   1  -4    3.73    0.20
  -7   1  -4    3.25    0.19
  -7   1  -4    3.62    0.18
  -7   1  -4    3.68    0.18
  -7   1  -4    3.89    0.18
  -7   1  -4    3.50    0.20
   7  -1   4    3.66    0.18
  -8   1  -4    1.12    0.12
  -8   1  -4    1.05    0.14
  -9   1  -4    2.24    0.19
 -10   0   4    3.19    0.24
 -10   0   4    3.14    0.22
  -9   0   4   -0.01    0.05
  -9   0   4    0.04    0.07
  -8   0   4    6.55    0.28
  -8   0   4    6.36    0.30
  -8   0   4    6.37    0.29
  -7   0   4   11.70    0.39
  -7   0   4   11.77    0.37
  -7   0   4   11.90    0.39
  -6   0   4    3.39    0.18
  -6   0   4    3.15    0.17
  -6   0   4    3.35    0.18
   5   0  -4    1.22    0.04
  -5   0   4    0.97    0.11
  -5   0   4    1.01    0.11
  -5   0   4    0.91    0.09
  -5   0   4    0.80    0.10
   4   0  -4    0.04    0.04
   4   0  -4    0.07    0.02
   4   0  -4    0.08    0.02
   4   0  -4    0.04    0.02
  -4   0   4   -0.02    0.03
  -4   0   4    0.06    0.02
  -4   0   4    0.05    0.03
  -4   0   4    0.06    0.04
  -4   0   4    0.03    0.02
  -4   0   4    0.06    0.04
  -4   0   4    0.06    0.02
   3   0  -4   80.34    2.40
   3   0  -4   79.05    1.49
   3   0  -4   80.54    1.42
   3   0  -4   80.16    1.41
   3   0  -4   81.52    1.43
  -3   0   4   77.30    1.49
  -3   0   4   79.07    1.41
  -3   0   4   78.77    1.51
  -3   0   4   80.78    1.52
  -3   0   4   78.63    1.41
  -3   0   4   77.51    1.40
  -3   0   4   80.16    1.42
  -3   0   4   81.09    1.50
  -3   0   4   78.17    1.39
   2   0  -4  109.34    1.92
   2   0  -4  111.37    1.99
   2   0  -4  109.19    1.92
   2   0  -4  110.09    2.05
   2   0  -4  108.41    1.97
   2   0  -4  111.50    1.94
  -2   0   4  108.76    1.92
  -2   0   4  105.36    1.99
  -2   0   4  104.47    2.00
  -2   0   4  110.30    1.99
  -2   0   4  108.45    1.85
  -2   0   4  105.99    2.04
  -2   0   4  106.88    1.97
  -2   0   4  108.13    1.92
  -2   0   4  109.85    1.90
   1   0  -4    7.35    0.18
   1   0  -4    7.12    0.18
   1   0  -4    7.23    0.19
   1   0  -4    7.02    0.18
   1   0  -4    7.25    0.16
   1   0  -4    7.21    0.19
   1   0  -4    7.24    0.17
  -1   0   4    7.16    0.18
  -1   0   4    7.09    0.16
  -1   0   4    7.44    0.19
  -1   0   4    6.87    0.18
  -1   0   4    7.34    0.20
  -1   0   4    7.07    0.16
  -1   0   4    7.02    0.18
  -1   0   4    7.24    0.19
   0   0  -4   25.73    0.49
   0   0  -4   25.45    0.51
   0   0  -4   24.97    0.54
   0   0  -4   25.44    0.51
   0   0  -4   24.74    0.48
   0   0  -4   25.43    0.43
   0   0  -4   24.35    0.50
   0   0  -4   24.89    0.52
   0   0  -4   25.40    0.51
   0   0   4   25.22    0.51
   0   0   4   24.96    0.50
   0   0   4   25.32    0.52
   0   0   4   25.05    0.51
  -1   0  -4    0.08    0.03
  -1   0  -4    0.12    0.03
  -1   0  -4    0.10    0.03
  -1   0  -4    0.14    0.04
   1   0   4    0.09    0.03
   1   0   4    0.12    0.02
   1   0   4    0.17    0.04
  -2   0  -4   44.42    0.91
  -2   0  -4   44.04    0.87
  -2   0  -4   45.09    0.89
  -2   0  -4   45.56    0.95
  -2   0  -4   44.58    0.77
  -2   0  -4   46.09    0.84
   2   0   4   45.94    0.89
   2   0   4   46.05    0.86
   2   0   4   44.03    0.84
  -3   0  -4  142.58    2.58
  -3   0  -4  143.25    2.41
  -3   0  -4  146.01    2.69
  -3   0  -4  142.49    2.59
  -3   0  -4  145.68    2.78
  -3   0  -4  145.02    2.60
  -3   0  -4  139.97    2.75
   3   0   4  146.07    2.51
   3   0   4  141.52    2.60
  -4   0  -4    0.11    0.05
  -4   0  -4    0.08    0.04
  -4   0  -4    0.13    0.04
  -4   0  -4    0.16    0.05
  -4   0  -4    0.12    0.05
  -4   0  -4    0.20    0.04
   4   0   4    0.07    0.04
  -5   0  -4   14.96    0.38
  -5   0  -4   14.08    0.34
  -5   0  -4   13.87    0.38
  -5   0  -4   14.20    0.40
  -5   0  -4   13.98    0.41
  -5   0  -4   14.02    0.38
   5   0   4   13.81    0.38
  -6   0  -4    0.46    0.08
  -6   0  -4    0.56    0.09
  -6   0  -4    0.43    0.08
  -6   0  -4    0.60    0.09
  -6   0  -4    0.44    0.07
  -6   0  -4    0.48    0.09
   6   0   4    0.53    0.08
  -7   0  -4    0.25    0.08
  -7   0  -4    0.19    0.08
  -7   0  -4    0.33    0.08
  -7   0  -4    0.19    0.07
  -7   0  -4    0.21    0.07
  -7   0  -4    0.27    0.07
   7   0   4    0.31    0.08
  -8   0  -4    8.24    0.33
  -8   0  -4    8.51    0.33
  -8   0  -4    7.57    0.32
  -8   0  -4    8.12    0.29
   8   0   4    7.90    0.30
  -9   0  -4    0.16    0.09
 -10   1   4    2.84    0.23
 -10   1   4    2.64    0.21
  -9   1   4    0.54    0.11
  -9   1   4    0.45    0.10
  -8   1   4    0.09    0.07
  -8   1   4    0.08    0.07
  -8   1   4    0.09    0.06
  -7   1   4    4.22    0.22
  -7   1   4    4.16    0.22
  -7   1   4    4.75    0.22
  -7   1   4    4.59    0.24
  -6   1   4   40.52    0.96
  -6   1   4   40.77    0.90
  -6   1   4   40.41    0.85
  -6   1   4   40.58    0.93
  -6   1   4   40.51    0.91
  -5   1   4    0.36    0.07
  -5   1   4    0.47    0.07
  -5   1   4    0.47    0.08
  -5   1   4    0.37    0.07
  -5   1   4    0.35    0.06
   4  -1  -4   20.54    0.49
   4  -1  -4   21.27    0.74
  -4   1   4   22.37    0.52
  -4   1   4   22.07    0.54
  -4   1   4   21.14    0.73
  -4   1   4   20.26    0.46
  -4   1   4   21.52    0.51
  -4   1   4   21.28    0.49
   3  -1  -4    6.11    0.14
   3  -1  -4    6.17    0.19
   3  -1  -4    6.28    0.14
   3  -1  -4    6.26    0.15
   3  -1  -4    6.31    0.15
   3  -1  -4    6.46    0.15
   3  -1  -4    6.46    0.15
  -3   1   4    6.21    0.14
  -3   1   4    6.21    0.14
  -3   1   4    6.13    0.20
  -3   1   4    6.22    0.18
  -3   1   4    6.30    0.21
  -3   1   4    6.06    0.19
  -3   1   4    6.04    0.26
  -3   1   4    6.29    0.14
   2  -1  -4   35.92    0.66
   2  -1  -4   36.31    0.71
   2  -1  -4   34.90    0.68
   2  -1  -4   35.17    0.67
   2  -1  -4   34.93    0.67
   2  -1  -4   36.49    0.65
   2  -1  -4   35.33    0.72
   2  -1  -4   35.94    0.69
  -2   1   4   35.03    0.67
  -2   1   4   35.38    0.69
  -2   1   4   35.61    0.71
  -2   1   4   34.94    0.66
  -2   1   4   35.92    0.73
  -2   1   4   35.83    0.66
  -2   1   4   35.63    0.67
   1  -1  -4   55.81    1.08
   1  -1  -4   56.78    1.01
   1  -1  -4   55.97    1.02
   1  -1  -4   57.40    1.03
   1  -1  -4   56.28    0.96
   1  -1  -4   55.51    1.05
   1  -1  -4   55.68    1.07
   1  -1  -4   56.68    1.00
   1  -1  -4   55.58    1.03
  -1   1   4   57.60    1.00
  -1   1   4   55.31    1.03
  -1   1   4   54.68    1.04
  -1   1   4   51.61    1.02
  -1   1   4   53.70    1.03
   0  -1  -4    0.20    0.04
   0  -1  -4    0.21    0.04
   0  -1  -4    0.35    0.05
   0   1   4    0.23    0.03
   0   1   4    0.10    0.03
   0   1   4    0.12    0.03
  -1  -1  -4   47.53    0.92
  -1  -1  -4   47.33    0.93
  -1  -1  -4   48.54    0.96
  -1  -1  -4   49.04    0.86
   1   1   4   46.15    0.93
   1   1   4   47.78    0.90
  -2  -1  -4   19.64    0.45
  -2  -1  -4   19.63    0.47
  -2  -1  -4   20.43    0.46
  -2  -1  -4   20.18    0.40
   2   1   4   19.60    0.46
   2   1   4   19.14    0.44
   2   1   4   19.61    0.46
  -3  -1  -4   14.30    0.35
  -3  -1  -4   14.55    0.34
  -3  -1  -4   14.70    0.39
  -3  -1  -4   14.62    0.38
  -3  -1  -4   14.80    0.37
   3   1   4   14.16    0.37
   3   1   4   14.31    0.36
  -4  -1  -4    8.92    0.23
  -4  -1  -4    8.87    0.30
  -4  -1  -4    8.38    0.25
  -4  -1  -4    8.91    0.28
  -4  -1  -4    9.05    0.28
  -4  -1  -4    8.38    0.25
   4   1   4    8.53    0.27
   4   1   4    8.60    0.28
  -5  -1  -4    1.50    0.12
  -5  -1  -4    1.57    0.12
  -5  -1  -4    1.44    0.12
  -5  -1  -4    1.38    0.10
  -5  -1  -4    1.36    0.09
  -5  -1  -4    1.50    0.11
   5   1   4    1.80    0.13
   5   1   4    1.54    0.11
  -6  -1  -4    7.66    0.28
  -6  -1  -4    7.96    0.28
  -6  -1  -4    7.04    0.29
  -6  -1  -4    7.66    0.25
  -6  -1  -4    7.87    0.28
  -6  -1  -4    7.68    0.27
   6   1   4    7.34    0.26
   6   1   4    7.42    0.28
  -7  -1  -4    0.33    0.08
  -7  -1  -4    0.24    0.07
  -7  -1  -4    0.19    0.08
  -7  -1  -4    0.21    0.07
  -7  -1  -4    0.25    0.06
  -7  -1  -4    0.24    0.07
   7   1   4    0.25    0.08
  -8  -1  -4    2.19    0.17
  -8  -1  -4    2.43    0.16
  -8  -1  -4    2.42    0.18
   8   1   4    2.07    0.16
  -9  -1  -4    3.49    0.23
 -10   2   4    0.92    0.14
 -10   2   4    0.77    0.14
  -9   2   4    1.36    0.17
  -9   2   4    1.36    0.16
  -9   2   4    1.45    0.19
  -8   2   4    5.86    0.26
  -8   2   4    6.29    0.31
  -8   2   4    5.60    0.27
  -7   2   4    2.06    0.16
  -7   2   4    1.79    0.14
  -7   2   4    2.29    0.16
  -7   2   4    2.15    0.17
  -7   2   4    1.95    0.15
  -6   2   4    2.30    0.16
  -6   2   4    2.16    0.14
  -6   2   4    2.59    0.16
  -6   2   4    2.36    0.15
  -6   2   4    2.48    0.17
   5  -2  -4   22.95    0.57
  -5   2   4   23.72    0.87
  -5   2   4   24.78    0.62
  -5   2   4   24.59    0.60
  -5   2   4   23.76    0.54
  -5   2   4   23.90    0.57
   4  -2  -4   61.89    1.27
   4  -2  -4   63.71    1.29
  -4   2   4   62.35    1.33
  -4   2   4   64.03    2.03
  -4   2   4   64.80    1.18
  -4   2   4   63.86    1.26
  -4   2   4   63.82    1.29
  -4   2   4   63.81    1.24
   3  -2  -4  127.26    2.28
   3  -2  -4  125.53    2.16
   3  -2  -4  129.36    2.24
   3  -2  -4  124.64    2.22
   3  -2  -4  128.24    2.24
   3  -2  -4  127.85    2.38
  -3   2   4  124.08    2.22
  -3   2   4  126.20    2.38
  -3   2   4  126.08    2.16
  -3   2   4  126.80    3.89
  -3   2   4  127.47    2.34
  -3   2   4  128.17    2.47
  -3   2   4  128.26    2.24
  -3   2   4  125.19    2.24
   2  -2  -4   21.10    0.44
   2  -2  -4   21.19    0.42
   2  -2  -4   21.36    0.43
   2  -2  -4   21.06    0.43
   2  -2  -4   21.09    0.43
   2  -2  -4   21.84    0.49
   2  -2  -4   20.92    0.44
  -2   2   4   20.45    0.42
  -2   2   4   20.72    0.48
  -2   2   4   20.76    0.43
  -2   2   4   21.11    0.43
  -2   2   4   20.90    0.43
  -2   2   4   20.66    0.44
  -2   2   4   20.26    0.45
   1  -2  -4    0.66    0.06
   1  -2  -4    0.69    0.07
   1  -2  -4    0.65    0.06
   1  -2  -4    0.77    0.04
   1  -2  -4    0.68    0.07
  -1   2   4    0.74    0.06
  -1   2   4    0.56    0.05
  -1   2   4    0.79    0.06
  -1   2   4    0.63    0.06
  -1   2   4    0.71    0.06
   0  -2  -4   20.05    0.42
   0  -2  -4   20.64    0.47
   0  -2  -4   19.65    0.45
   0  -2  -4   20.50    0.44
   0   2   4   20.34    0.44
   0   2   4   19.71    0.46
   0   2   4   20.19    0.43
   0   2   4   19.40    0.39
   0   2   4   19.83    0.45
  -1  -2  -4    0.00    0.03
  -1  -2  -4    0.01    0.04
  -1  -2  -4    0.01    0.03
   1   2   4    0.02    0.03
   1   2   4    0.09    0.04
   1   2   4    0.06    0.04
  -2  -2  -4   73.45    1.36
  -2  -2  -4   71.55    1.40
  -2  -2  -4   72.93    1.40
  -2  -2  -4   75.65    1.45
  -2  -2  -4   71.63    1.41
   2   2   4   72.77    1.44
   2   2   4   74.60    1.41
   2   2   4   75.01    1.36
  -3  -2  -4    5.49    0.21
  -3  -2  -4    5.58    0.21
  -3  -2  -4    5.48    0.17
  -3  -2  -4    5.47    0.22
  -3  -2  -4    5.16    0.16
   3   2   4    5.37    0.20
   3   2   4    5.54    0.21
   3   2   4    5.45    0.22
   3   2   4    5.54    0.15
  -4  -2  -4    0.27    0.07
  -4  -2  -4    0.13    0.06
  -4  -2  -4    0.17    0.04
  -4  -2  -4    0.18    0.06
  -4  -2  -4    0.22    0.05
   4   2   4    0.07    0.05
   4   2   4    0.19    0.06
   4   2   4    0.18    0.06
  -5  -2  -4    3.25    0.17
  -5  -2  -4    2.95    0.16
  -5  -2  -4    3.07    0.14
  -5  -2  -4    2.76    0.17
  -5  -2  -4    3.07    0.14
   5   2   4    3.06    0.17
   5   2   4    3.01    0.18
   5   2   4    3.15    0.17
  -6  -2  -4    0.14    0.07
  -6  -2  -4    0.16    0.06
  -6  -2  -4    0.07    0.04
  -6  -2  -4    0.11    0.06
  -6  -2  -4    0.09    0.05
   6   2   4    0.12    0.06
   6   2   4   -0.01    0.06
  -7  -2  -4    4.24    0.22
  -7  -2  -4    4.30    0.23
  -7  -2  -4    3.65    0.21
  -7  -2  -4    4.06    0.20
  -7  -2  -4    4.17    0.24
   7   2   4    4.03    0.22
   7   2   4    4.03    0.21
  -8  -2  -4    0.32    0.10
  -8  -2  -4    0.54    0.11
   8   2   4    0.49    0.11
 -10   3   4    0.00    0.08
  -9   3   4   15.90    0.57
  -8   3   4    0.19    0.08
  -7   3   4    6.15    0.29
  -7   3   4    6.46    0.29
   6  -3  -4    1.35    0.14
  -6   3   4    1.15    0.13
  -6   3   4    1.29    0.16
  -6   3   4    1.36    0.14
  -6   3   4    1.12    0.13
   5  -3  -4    3.41    0.11
   5  -3  -4    3.62    0.18
  -5   3   4    3.30    0.24
  -5   3   4    3.45    0.17
  -5   3   4    3.35    0.18
  -5   3   4    3.41    0.18
   4  -3  -4   17.96    0.48
   4  -3  -4   18.47    0.37
   4  -3  -4   18.71    0.38
   4  -3  -4   18.84    0.37
   4  -3  -4   18.70    0.44
   4  -3  -4   18.35    0.38
  -4   3   4   19.42    0.73
  -4   3   4   18.38    0.49
  -4   3   4   19.36    0.47
  -4   3   4   18.91    0.49
  -4   3   4   17.85    0.37
  -4   3   4   18.46    0.36
  -4   3   4   17.84    0.37
   3  -3  -4   22.80    0.46
   3  -3  -4   23.88    0.48
   3  -3  -4   22.94    0.48
   3  -3  -4   23.15    0.56
   3  -3  -4   23.77    0.48
  -3   3   4   23.50    0.48
  -3   3   4   22.84    0.46
  -3   3   4   24.50    0.88
  -3   3   4   22.44    0.52
  -3   3   4   22.82    0.55
  -3   3   4   23.16    0.48
  -3   3   4   23.79    0.56
   2  -3  -4   69.29    1.29
   2  -3  -4   69.39    1.28
   2  -3  -4   69.34    1.38
  -2   3   4   69.28    1.37
  -2   3   4   70.09    1.29
  -2   3   4   68.75    1.39
  -2   3   4   68.89    1.31
  -2   3   4   68.86    1.31
  -2   3   4   70.13    1.25
   1  -3  -4    4.24    0.17
   1  -3  -4    3.90    0.15
   1  -3  -4    4.21    0.13
   1  -3  -4    4.06    0.15
  -1   3   4    4.12    0.16
  -1   3   4    3.94    0.15
  -1   3   4    3.98    0.12
  -1   3   4    4.04    0.15
  -1   3   4    4.01    0.16
   0  -3  -4    0.34    0.03
   0  -3  -4    0.32    0.06
   0  -3  -4    0.26    0.06
   0  -3  -4    0.40    0.06
   0   3   4    0.38    0.06
   0   3   4    0.34    0.06
   0   3   4    0.39    0.03
   0   3   4    0.43    0.07
   0   3   4    0.36    0.06
  -1  -3  -4    2.76    0.14
  -1  -3  -4    2.59    0.14
  -1  -3  -4    2.60    0.14
   1   3   4    2.82    0.14
   1   3   4    2.87    0.14
   1   3   4    2.59    0.14
  -2  -3  -4    7.34    0.26
  -2  -3  -4    7.21    0.25
  -2  -3  -4    7.69    0.26
   2   3   4    8.15    0.26
   2   3   4    7.79    0.27
   2   3   4    7.30    0.26
  -3  -3  -4   16.46    0.45
  -3  -3  -4   15.94    0.43
  -3  -3  -4   15.90    0.39
  -3  -3  -4   15.61    0.44
   3   3   4   16.11    0.44
   3   3   4   16.06    0.32
   3   3   4   16.14    0.42
   3   3   4   16.19    0.45
  -4  -3  -4    0.99    0.12
  -4  -3  -4    0.95    0.10
  -4  -3  -4    1.04    0.12
  -4  -3  -4    0.97    0.12
   4   3   4    0.72    0.11
   4   3   4    1.00    0.12
   4   3   4    0.83    0.10
  -5  -3  -4    1.09    0.13
  -5  -3  -4    1.09    0.11
  -5  -3  -4    1.01    0.13
  -5  -3  -4    1.04    0.12
   5   3   4    1.21    0.14
   5   3   4    1.20    0.13
   5   3   4    1.09    0.13
  -6  -3  -4    1.44    0.14
  -6  -3  -4    1.37    0.15
  -6  -3  -4    1.46    0.13
  -6  -3  -4    1.88    0.15
   6   3   4    1.61    0.15
   6   3   4    1.70    0.17
   6   3   4    1.45    0.15
  -7  -3  -4    0.98    0.14
  -7  -3  -4    0.91    0.13
  -7  -3  -4    1.03    0.14
  -7  -3  -4    0.99    0.12
   7   3   4    1.06    0.14
   7   3   4    0.76    0.12
  -8  -3  -4    2.23    0.18
   8   3   4    2.42    0.19
  11  -4  -4    0.07    0.08
  10  -4  -4    0.06    0.07
 -10   4   4    0.00    0.08
   9  -4  -4    1.30    0.17
  -9   4   4    0.82    0.15
   8  -4  -4    9.60    0.38
  -8   4   4    8.94    0.39
  -8   4   4    9.49    0.39
   7  -4  -4    0.14    0.07
  -7   4   4    0.16    0.08
  -7   4   4    0.25    0.08
  -7   4   4    0.16    0.10
   6  -4  -4   26.56    0.69
  -6   4   4   27.04    0.70
  -6   4   4   27.07    1.05
  -6   4   4   26.19    0.71
   5  -4  -4    1.26    0.06
   5  -4  -4    1.45    0.09
   5  -4  -4    1.34    0.07
   5  -4  -4    1.30    0.14
  -5   4   4    1.43    0.18
  -5   4   4    1.37    0.07
  -5   4   4    1.25    0.06
  -5   4   4    1.36    0.14
  -5   4   4    1.25    0.13
   4  -4  -4    4.04    0.20
   4  -4  -4    3.88    0.13
   4  -4  -4    3.83    0.14
   4  -4  -4    3.77    0.16
  -4   4   4    3.85    0.28
  -4   4   4    3.62    0.13
  -4   4   4    3.48    0.18
  -4   4   4    3.86    0.13
  -4   4   4    4.09    0.18
  -4   4   4    3.68    0.13
  -4   4   4    3.87    0.19
   3  -4  -4   84.00    1.76
   3  -4  -4   83.86    1.54
   3  -4  -4   84.78    1.66
   3  -4  -4   81.41    1.53
  -3   4   4   81.67    1.56
  -3   4   4   84.86    2.72
  -3   4   4   82.41    1.69
  -3   4   4   85.89    1.65
  -3   4   4   81.63    1.54
  -3   4   4   81.66    1.49
  -3   4   4   83.82    1.59
  -3   4   4   82.50    1.67
   2  -4  -4   28.15    0.61
   2  -4  -4   27.30    0.60
   2  -4  -4   28.25    0.67
  -2   4   4   28.81    0.59
  -2   4   4   27.91    0.66
  -2   4   4   27.95    0.62
  -2   4   4   28.46    0.59
  -2   4   4   28.94    0.66
  -2   4   4   28.29    0.61
  -2   4   4   29.08    0.63
   1  -4  -4   21.86    0.51
   1  -4  -4   22.15    0.47
   1  -4  -4   21.97    0.54
   1  -4  -4   22.07    0.51
  -1   4   4   21.51    0.51
  -1   4   4   21.69    0.49
  -1   4   4   21.75    0.52
  -1   4   4   22.20    0.54
   0  -4  -4   13.07    0.37
   0  -4  -4   12.25    0.35
   0  -4  -4   12.96    0.35
   0   4   4   13.05    0.36
   0   4   4   12.73    0.34
   0   4   4   12.26    0.36
   0   4   4   12.36    0.36
  -1  -4  -4    6.90    0.25
  -1  -4  -4    7.02    0.26
  -1  -4  -4    7.04    0.25
   1   4   4    6.45    0.24
   1   4   4    6.85    0.24
   1   4   4    7.40    0.26
  -2  -4  -4    6.62    0.26
  -2  -4  -4    6.50    0.25
  -2  -4  -4    6.06    0.25
   2   4   4    6.37    0.26
   2   4   4    6.79    0.26
   2   4   4    6.18    0.24
  -3  -4  -4   16.71    0.48
  -3  -4  -4   16.96    0.42
  -3  -4  -4   17.22    0.48
  -3  -4  -4   17.09    0.47
   3   4   4   16.03    0.45
   3   4   4   16.68    0.49
   3   4   4   17.26    0.48
  -4  -4  -4    2.34    0.17
  -4  -4  -4    2.39    0.17
  -4  -4  -4    2.33    0.16
  -4  -4  -4    2.09    0.13
   4   4   4    2.46    0.17
   4   4   4    2.30    0.16
   4   4   4    2.32    0.17
  -5  -4  -4    4.28    0.20
  -5  -4  -4    4.50    0.24
  -5  -4  -4    4.32    0.23
  -5  -4  -4    4.38    0.23
   5   4   4    4.59    0.24
   5   4   4    4.23    0.24
   5   4   4    4.63    0.23
  -6  -4  -4    3.01    0.18
  -6  -4  -4    3.18    0.21
  -6  -4  -4    3.12    0.20
   6   4   4    3.21    0.21
   6   4   4    3.24    0.22
   6   4   4    2.78    0.19
  -7  -4  -4    1.73    0.16
  -7  -4  -4    1.93    0.16
  -7  -4  -4    2.02    0.20
  -7  -4  -4    2.11    0.20
   7   4   4    1.97    0.20
   7   4   4    1.79    0.18
   8   4   4    0.29    0.11
  10  -5  -4    4.04    0.27
 -10   5   4    4.05    0.29
   9  -5  -4    0.30    0.09
  -9   5   4    0.28    0.11
   8  -5  -4    0.80    0.14
  -8   5   4    0.78    0.14
  -8   5   4    0.70    0.13
  -8   5   4    0.64    0.19
   7  -5  -4    7.92    0.34
  -7   5   4    7.43    0.33
  -7   5   4    7.22    0.32
  -7   5   4    6.96    0.46
   6  -5  -4    2.04    0.16
  -6   5   4    1.94    0.16
  -6   5   4    2.28    0.25
  -6   5   4    2.24    0.17
   5  -5  -4   33.38    0.66
   5  -5  -4   33.35    0.67
   5  -5  -4   33.20    0.82
  -5   5   4   33.37    0.67
  -5   5   4   33.43    0.82
  -5   5   4   33.67    0.65
  -5   5   4   33.15    0.66
  -5   5   4   33.01    0.80
  -5   5   4   32.17    1.27
   4  -5  -4   18.19    0.43
   4  -5  -4   18.24    0.52
   4  -5  -4   18.93    0.43
  -4   5   4   18.37    0.42
  -4   5   4   18.52    0.51
  -4   5   4   18.10    0.41
  -4   5   4   18.83    0.43
  -4   5   4   17.94    0.50
  -4   5   4   18.05    0.81
   3  -5  -4    1.23    0.10
   3  -5  -4    1.27    0.10
   3  -5  -4    1.47    0.13
  -3   5   4    1.22    0.09
  -3   5   4    1.40    0.10
  -3   5   4    1.36    0.10
  -3   5   4    1.47    0.12
  -3   5   4    1.37    0.10
  -3   5   4    1.45    0.20
  -3   5   4    1.56    0.13
   2  -5  -4    8.58    0.28
   2  -5  -4    8.54    0.28
   2  -5  -4    8.43    0.31
  -2   5   4    8.51    0.30
  -2   5   4    8.94    0.26
  -2   5   4    8.82    0.31
  -2   5   4    9.29    0.28
  -2   5   4    9.40    0.27
  -2   5   4    9.01    0.28
   1  -5  -4    0.77    0.10
   1  -5  -4    0.63    0.09
   1  -5  -4    0.46    0.08
  -1   5   4    0.67    0.09
  -1   5   4    0.53    0.08
  -1   5   4    0.68    0.09
  -1   5   4    0.58    0.09
   0  -5  -4   30.94    0.72
   0  -5  -4   29.70    0.69
   0  -5  -4   29.78    0.69
   0   5   4   29.93    0.71
   0   5   4   30.34    0.69
   0   5   4   28.98    0.72
   0   5   4   29.61    0.67
  -1  -5  -4   17.64    0.48
  -1  -5  -4   15.93    0.46
  -1  -5  -4   15.98    0.46
   1   5   4   16.82    0.47
   1   5   4   17.15    0.45
   1   5   4   16.94    0.48
  -2  -5  -4    3.32    0.19
  -2  -5  -4    3.58    0.20
  -2  -5  -4    3.41    0.19
   2   5   4    3.33    0.18
   2   5   4    3.24    0.19
   2   5   4    3.25    0.19
  -3  -5  -4    0.94    0.13
  -3  -5  -4    1.37    0.15
  -3  -5  -4    1.17    0.14
   3   5   4    1.36    0.15
   3   5   4    1.21    0.14
   3   5   4    1.30    0.14
  -4  -5  -4    1.00    0.14
  -4  -5  -4    1.22    0.15
  -4  -5  -4    1.08    0.14
  -4  -5  -4    1.24    0.13
   4   5   4    1.27    0.14
   4   5   4    1.11    0.14
   4   5   4    0.97    0.14
  -5  -5  -4    7.63    0.33
  -5  -5  -4    7.92    0.33
  -5  -5  -4    7.87    0.30
  -5  -5  -4    7.78    0.33
   5   5   4    8.15    0.36
   5   5   4    7.45    0.32
   5   5   4    7.65    0.33
  -6  -5  -4    2.81    0.21
  -6  -5  -4    2.64    0.20
  -6  -5  -4    2.67    0.18
   6   5   4    2.37    0.21
   6   5   4    2.50    0.19
   6   5   4    2.58    0.20
  -7  -5  -4    0.01    0.08
  -7  -5  -4    0.00    0.08
   7   5   4    0.13    0.09
   7   5   4    0.05    0.09
   7   5   4    0.00    0.07
   8   5   4    0.34    0.11
  10  -6  -4    0.05    0.08
 -10   6   4    0.19    0.10
   9  -6  -4    7.27    0.37
  -9   6   4    7.54    0.38
  -9   6   4    7.72    0.39
   8  -6  -4    0.71    0.13
  -8   6   4    0.76    0.14
  -8   6   4    0.80    0.22
  -8   6   4    1.04    0.16
   7  -6  -4   -0.05    0.06
  -7   6   4    0.12    0.08
  -7   6   4    0.05    0.11
  -7   6   4    0.00    0.06
   6  -6  -4   13.38    0.47
  -6   6   4   14.22    0.46
  -6   6   4   13.35    0.46
  -6   6   4   13.43    0.71
   5  -6  -4    9.73    0.28
   5  -6  -4    9.27    0.37
   5  -6  -4    9.92    0.28
  -5   6   4    9.64    0.27
  -5   6   4    9.22    0.34
  -5   6   4    9.88    0.27
  -5   6   4    9.31    0.27
  -5   6   4    9.30    0.35
  -5   6   4    9.44    0.56
   4  -6  -4   30.25    0.66
   4  -6  -4   30.05    0.66
   4  -6  -4   30.61    0.77
  -4   6   4   30.15    0.64
  -4   6   4   28.65    1.21
  -4   6   4   30.22    0.74
  -4   6   4   29.39    0.73
  -4   6   4   30.86    0.67
  -4   6   4   30.51    0.66
  -4   6   4   29.45    0.77
   3  -6  -4    4.71    0.24
   3  -6  -4    4.81    0.20
   3  -6  -4    5.06    0.20
  -3   6   4    4.93    0.20
  -3   6   4    4.60    0.19
  -3   6   4    4.98    0.24
  -3   6   4    4.85    0.20
  -3   6   4    4.84    0.23
  -3   6   4    4.63    0.38
  -3   6   4    5.06    0.20
   2  -6  -4    2.01    0.13
   2  -6  -4    1.84    0.13
   2  -6  -4    1.93    0.15
  -2   6   4    2.06    0.15
  -2   6   4    2.44    0.11
  -2   6   4    1.62    0.12
  -2   6   4    1.65    0.13
  -2   6   4    1.60    0.12
  -2   6   4    1.73    0.13
   1  -6  -4    2.65    0.16
   1  -6  -4    2.72    0.17
   1  -6  -4    3.09    0.18
  -1   6   4    2.88    0.18
  -1   6   4    3.09    0.17
  -1   6   4    2.78    0.17
  -1   6   4    2.77    0.16
   0  -6  -4    4.82    0.23
   0  -6  -4    4.82    0.23
   0  -6  -4    4.69    0.22
   0   6   4    4.47    0.21
   0   6   4    4.55    0.22
   0   6   4    4.42    0.23
   0   6   4    4.52    0.22
  -1  -6  -4    0.76    0.11
  -1  -6  -4    0.78    0.11
  -1  -6  -4    0.89    0.12
   1   6   4    0.99    0.12
   1   6   4    0.79    0.12
   1   6   4    0.86    0.11
  -2  -6  -4    4.92    0.25
  -2  -6  -4    4.50    0.24
  -2  -6  -4    4.85    0.25
   2   6   4    5.13    0.25
   2   6   4    4.73    0.24
   2   6   4    4.85    0.25
  -3  -6  -4    8.52    0.35
  -3  -6  -4    8.14    0.34
  -3  -6  -4    8.82    0.35
   3   6   4    8.18    0.33
   3   6   4    8.51    0.36
   3   6   4    8.89    0.36
  -4  -6  -4    2.39    0.19
  -4  -6  -4    2.57    0.20
  -4  -6  -4    2.44    0.19
  -4  -6  -4    2.41    0.16
   4   6   4    2.29    0.19
   4   6   4    2.32    0.18
   4   6   4    2.20    0.21
  -5  -6  -4    2.88    0.21
  -5  -6  -4    2.96    0.22
  -5  -6  -4    2.57    0.18
  -5  -6  -4    2.33    0.19
   5   6   4    2.65    0.21
   5   6   4    2.70    0.20
   5   6   4    2.91    0.22
  -6  -6  -4    0.08    0.09
  -6  -6  -4    0.15    0.10
   6   6   4    0.25    0.10
   6   6   4    0.11    0.09
   6   6   4    0.13    0.08
  -7  -6  -4    0.54    0.13
  -7  -6  -4    0.29    0.13
   7   6   4    0.49    0.14
   9  -7  -4    1.48    0.21
  -9   7   4    1.91    0.23
  -9   7   4    1.56    0.21
   8  -7  -4    3.65    0.26
  -8   7   4    3.64    0.25
  -8   7   4    3.71    0.38
  -8   7   4    3.97    0.26
   7  -7  -4    1.40    0.18
  -7   7   4    1.55    0.18
  -7   7   4    1.67    0.31
  -7   7   4    1.71    0.19
   6  -7  -4    2.14    0.21
  -6   7   4    2.11    0.18
  -6   7   4    2.14    0.29
  -6   7   4    2.71    0.20
   5  -7  -4   13.31    0.36
   5  -7  -4   13.06    0.47
   5  -7  -4   13.01    0.37
  -5   7   4   13.58    0.37
  -5   7   4   12.99    0.44
  -5   7   4   12.35    0.72
  -5   7   4   13.08    0.43
  -5   7   4   13.34    0.36
   4  -7  -4    0.01    0.06
   4  -7  -4    0.08    0.06
   4  -7  -4    0.02    0.05
  -4   7   4    0.08    0.06
  -4   7   4   -0.02    0.06
  -4   7   4   -0.03    0.04
  -4   7   4    0.04    0.05
  -4   7   4    0.04    0.05
  -4   7   4    0.00    0.11
  -4   7   4    0.09    0.05
   3  -7  -4    1.99    0.14
   3  -7  -4    2.11    0.15
   3  -7  -4    2.00    0.17
  -3   7   4    2.13    0.14
  -3   7   4    2.14    0.28
  -3   7   4    2.38    0.14
  -3   7   4    2.20    0.15
  -3   7   4    2.02    0.14
  -3   7   4    2.63    0.19
  -3   7   4    2.24    0.16
   2  -7  -4    5.32    0.24
   2  -7  -4    4.90    0.25
   2  -7  -4    5.29    0.24
  -2   7   4    4.78    0.22
  -2   7   4    5.47    0.25
  -2   7   4    4.75    0.25
  -2   7   4    5.08    0.23
  -2   7   4    6.02    0.19
  -2   7   4    4.92    0.23
   1  -7  -4    8.11    0.32
   1  -7  -4    8.69    0.34
   1  -7  -4    8.76    0.32
  -1   7   4    8.85    0.33
  -1   7   4    8.77    0.32
  -1   7   4    8.44    0.35
  -1   7   4    8.07    0.32
   0  -7  -4    5.28    0.26
   0  -7  -4    5.25    0.26
   0  -7  -4    5.39    0.26
   0   7   4    4.69    0.25
   0   7   4    5.47    0.25
   0   7   4    4.96    0.27
   0   7   4    5.46    0.26
  -1  -7  -4    7.83    0.33
  -1  -7  -4    8.26    0.34
  -1  -7  -4    7.84    0.33
   1   7   4    8.40    0.33
   1   7   4    7.71    0.34
   1   7   4    8.53    0.34
  -2  -7  -4    0.91    0.13
  -2  -7  -4    1.05    0.15
  -2  -7  -4    1.04    0.15
   2   7   4    1.08    0.15
   2   7   4    1.05    0.15
   2   7   4    0.90    0.13
  -3  -7  -4    2.42    0.20
  -3  -7  -4    2.50    0.19
  -3  -7  -4    3.12    0.22
   3   7   4    2.69    0.20
   3   7   4    2.74    0.21
   3   7   4    2.49    0.21
  -4  -7  -4    0.62    0.13
  -4  -7  -4    0.84    0.15
  -4  -7  -4    0.80    0.14
   4   7   4    0.59    0.13
   4   7   4    0.54    0.13
   4   7   4    0.43    0.11
  -5  -7  -4    0.76    0.14
  -5  -7  -4    0.98    0.17
  -5  -7  -4    0.72    0.14
   5   7   4    0.89    0.15
   5   7   4    0.56    0.14
   5   7   4    0.69    0.14
  -6  -7  -4    0.41    0.13
  -9   8   4    0.31    0.12
  -9   8   4    0.48    0.14
   8  -8  -4    1.31    0.19
  -8   8   4    1.74    0.21
  -8   8   4    1.52    0.20
  -8   8   4    1.22    0.30
   7  -8  -4    3.43    0.26
  -7   8   4    3.64    0.40
  -7   8   4    3.29    0.24
  -7   8   4    3.67    0.25
   6  -8  -4    6.30    0.33
  -6   8   4    5.38    0.28
  -6   8   4    6.06    0.50
  -6   8   4    5.42    0.29
   5  -8  -4    1.11    0.16
   5  -8  -4    1.09    0.13
   5  -8  -4    1.06    0.12
  -5   8   4    1.09    0.12
  -5   8   4    1.32    0.30
  -5   8   4    1.17    0.14
  -5   8   4    1.37    0.16
   4  -8  -4    0.71    0.13
   4  -8  -4    0.79    0.11
   4  -8  -4    0.61    0.10
  -4   8   4    0.91    0.25
  -4   8   4    0.69    0.14
  -4   8   4    0.83    0.13
  -4   8   4    0.74    0.11
  -4   8   4    0.60    0.10
  -4   8   4    0.67    0.10
  -4   8   4    0.82    0.12
   3  -8  -4    1.19    0.14
   3  -8  -4    1.20    0.14
   3  -8  -4    1.26    0.16
  -3   8   4    1.25    0.28
  -3   8   4    1.37    0.14
  -3   8   4    1.00    0.15
  -3   8   4    1.55    0.17
  -3   8   4    1.02    0.13
  -3   8   4    0.98    0.13
   2  -8  -4    2.91    0.19
   2  -8  -4    2.94    0.21
   2  -8  -4    3.29    0.21
  -2   8   4    2.99    0.19
  -2   8   4    2.91    0.21
  -2   8   4    3.18    0.20
  -2   8   4    2.81    0.34
  -2   8   4    3.40    0.20
  -2   8   4    3.04    0.19
   1  -8  -4   12.40    0.43
   1  -8  -4   11.80    0.44
   1  -8  -4   12.13    0.42
  -1   8   4   11.88    0.43
  -1   8   4   11.83    0.45
  -1   8   4   11.92    0.41
  -1   8   4   12.05    0.41
  -1   8   4   12.01    0.42
   0  -8  -4    0.02    0.06
   0  -8  -4    0.00    0.07
   0  -8  -4    0.02    0.07
   0   8   4    0.03    0.07
   0   8   4    0.02    0.07
   0   8   4   -0.01    0.05
   0   8   4   -0.02    0.07
  -1  -8  -4    2.76    0.20
  -1  -8  -4    1.96    0.20
  -1  -8  -4    2.35    0.20
   1   8   4    2.60    0.21
   1   8   4    2.57    0.20
   1   8   4    2.36    0.19
  -2  -8  -4    0.18    0.10
  -2  -8  -4    0.26    0.10
  -2  -8  -4    0.22    0.09
   2   8   4    0.40    0.11
   2   8   4    0.32    0.11
   2   8   4    0.21    0.10
  -3  -8  -4    1.37    0.18
  -3  -8  -4    1.01    0.16
  -3  -8  -4    1.00    0.15
   3   8   4    0.86    0.15
   3   8   4    0.92    0.16
   3   8   4    0.82    0.15
  -4  -8  -4    0.95    0.17
  -4  -8  -4    0.59    0.14
  -4  -8  -4    0.75    0.14
   4   8   4    0.74    0.15
   4   8   4    1.10    0.17
   4   8   4    0.58    0.14
  -8   9   4    0.44    0.13
  -8   9   4    0.50    0.13
  -8   9   4    0.59    0.24
   7  -9  -4    0.32    0.12
  -7   9   4    0.24    0.10
  -7   9   4    0.37    0.20
  -7   9   4    0.12    0.09
   6  -9  -4    0.04    0.08
  -6   9   4    0.28    0.19
  -6   9   4    0.27    0.10
  -6   9   4    0.17    0.08
   5  -9  -4   11.12    0.47
   5  -9  -4   12.37    0.41
  -5   9   4   12.45    0.45
  -5   9   4   11.76    0.77
   4  -9  -4   -0.10    0.06
   4  -9  -4    0.02    0.07
   4  -9  -4    0.05    0.07
  -4   9   4   -0.04    0.07
  -4   9   4    0.03    0.07
  -4   9   4   -0.06    0.06
  -4   9   4    0.03    0.06
  -4   9   4    0.05    0.07
  -4   9   4    0.01    0.15
   3  -9  -4    4.33    0.27
   3  -9  -4    3.82    0.23
   3  -9  -4    3.90    0.23
  -3   9   4    4.29    0.45
  -3   9   4    4.44    0.25
  -3   9   4    4.09    0.23
  -3   9   4    4.46    0.24
  -3   9   4    4.29    0.28
  -3   9   4    4.53    0.24
   2  -9  -4    0.18    0.09
   2  -9  -4    0.05    0.08
   2  -9  -4    0.05    0.07
  -2   9   4    0.03    0.07
  -2   9   4    0.00    0.07
  -2   9   4   -0.02    0.05
  -2   9   4    0.03    0.14
  -2   9   4    0.00    0.06
  -2   9   4    0.07    0.08
   1  -9  -4    1.17    0.16
   1  -9  -4    1.12    0.16
   1  -9  -4    1.02    0.16
  -1   9   4    1.06    0.14
  -1   9   4    1.08    0.15
  -1   9   4    1.18    0.16
  -1   9   4    1.18    0.18
  -1   9   4    1.08    0.16
   0  -9  -4    5.28    0.29
   0  -9  -4    4.82    0.28
   0  -9  -4    5.14    0.29
   0   9   4    4.81    0.28
   0   9   4    4.68    0.27
   0   9   4    4.94    0.30
   0   9   4    4.57    0.28
  -1  -9  -4    0.08    0.08
  -1  -9  -4    0.05    0.09
  -1  -9  -4    0.13    0.08
   1   9   4    0.08    0.09
   1   9   4    0.07    0.09
   1   9   4    0.10    0.08
   1   9   4   -0.01    0.08
  -2  -9  -4   -0.02    0.08
  -2  -9  -4   -0.04    0.07
  -2  -9  -4    0.02    0.07
   2   9   4   -0.05    0.06
   2   9   4   -0.04    0.09
   2   9   4    0.00    0.08
  -3  -9  -4    0.14    0.10
  -3  -9  -4    0.23    0.10
  -3  -9  -4    0.08    0.11
   3   9   4    0.21    0.11
   3   9   4    0.34    0.12
  -7  10   4    0.67    0.28
  -7  10   4    0.30    0.11
   6 -10  -4    1.12    0.19
  -6  10   4    1.81    0.39
  -6  10   4    1.59    0.19
   5 -10  -4    0.21    0.10
  -5  10   4    0.14    0.08
  -5  10   4    0.05    0.16
   4 -10  -4    1.58    0.18
   4 -10  -4    2.01    0.20
   4 -10  -4    1.58    0.21
  -4  10   4    1.71    0.22
  -4  10   4    1.83    0.18
  -4  10   4    1.95    0.40
  -4  10   4    1.64    0.18
  -4  10   4    2.03    0.20
   3 -10  -4    0.48    0.12
   3 -10  -4    0.37    0.11
   3 -10  -4    0.61    0.14
  -3  10   4    0.65    0.25
  -3  10   4    0.40    0.10
  -3  10   4    0.60    0.15
  -3  10   4    0.48    0.12
  -3  10   4    0.46    0.11
  -3  10   4    0.60    0.13
   2 -10  -4    5.40    0.30
   2 -10  -4    5.24    0.30
   2 -10  -4    5.25    0.31
  -2  10   4    5.72    0.29
  -2  10   4    4.87    0.51
  -2  10   4    5.29    0.29
  -2  10   4    5.74    0.34
  -2  10   4    5.15    0.30
  -2  10   4    5.78    0.30
   1 -10  -4    1.00    0.17
   1 -10  -4    1.31    0.18
   1 -10  -4    1.20    0.18
  -1  10   4    1.26    0.34
  -1  10   4    1.48    0.18
  -1  10   4    1.59    0.18
  -1  10   4    1.26    0.18
  -1  10   4    1.20    0.18
  -1  10   4    1.09    0.19
   0 -10  -4    0.66    0.14
   0 -10  -4    0.86    0.15
   0 -10  -4    0.52    0.13
   0  10   4    0.51    0.12
   0  10   4    0.73    0.15
   0  10   4    0.61    0.15
   0  10   4    0.94    0.17
  -1 -10  -4    0.02    0.10
  -1 -10  -4    0.10    0.09
  -1 -10  -4    0.03    0.10
   1  10   4   -0.01    0.08
   1  10   4    0.07    0.10
   1  10   4    0.11    0.10
  -2 -10  -4    0.66    0.14
   2  10   4    0.53    0.16
   4 -11  -4    0.04    0.09
   4 -11  -4   -0.05    0.08
   3 -11  -4    0.70    0.14
   3 -11  -4    0.48    0.14
   3 -11  -4    0.26    0.11
  -3  11   4    0.45    0.12
  -3  11   4    0.54    0.13
  -3  11   4    0.48    0.13
   2 -11  -4    0.56    0.14
   2 -11  -4    0.49    0.13
   2 -11  -4    0.39    0.13
  -2  11   4    0.35    0.12
  -2  11   4    0.38    0.12
   1 -11  -4    1.85    0.22
   0 -11  -4    0.95    0.17
   1  12  -5    0.61    0.19
   0  12  -5    1.52    0.22
   0  12  -5    2.60    0.34
  -1  12  -5    2.33    0.25
  -1  12  -5    2.19    0.25
  -1  12  -5    1.87    0.22
  -1  12  -5    2.90    0.36
   1 -12   5    2.30    0.24
   1 -12   5    1.88    0.23
  -2  12  -5    0.78    0.16
  -2  12  -5    0.92    0.23
  -2  12  -5    0.66    0.16
  -2  12  -5    0.61    0.14
  -2  12  -5    0.62    0.13
   2 -12   5    0.47    0.14
   2 -12   5    0.65    0.15
  -3  12  -5   -0.01    0.09
  -3  12  -5    0.06    0.08
  -3  12  -5    0.03    0.09
  -3  12  -5    0.33    0.16
  -3  12  -5    0.03    0.09
   3 -12   5   -0.02    0.08
   3 -12   5   -0.05    0.08
  -4  12  -5    0.78    0.16
  -4  12  -5    0.41    0.12
  -4  12  -5    0.63    0.14
  -4  12  -5    0.78    0.14
  -4  12  -5    0.68    0.15
   4 -12   5    0.64    0.15
   4 -12   5    0.72    0.15
  -5  12  -5    1.41    0.18
  -5  12  -5    1.67    0.22
  -5  12  -5    1.38    0.18
  -5  12  -5    1.72    0.23
   5 -12   5    1.04    0.17
   5 -12   5    1.44    0.19
   5 -12   5    1.42    0.19
   3  11  -5    0.53    0.18
   2  11  -5    0.08    0.10
   2  11  -5    0.05    0.08
   2  11  -5    0.52    0.17
   2  11  -5    0.01    0.09
  -2 -11   5    0.05    0.10
  -2 -11   5    0.08    0.10
   1  11  -5    1.59    0.19
   1  11  -5    2.43    0.32
   1  11  -5    1.34    0.19
   1  11  -5    1.51    0.21
  -1 -11   5    1.76    0.21
  -1 -11   5    1.88    0.22
   0  11  -5    5.53    0.49
   0  11  -5    4.40    0.29
   0  11  -5    4.48    0.28
   0  11  -5    4.35    0.29
   0 -11   5    4.73    0.29
   0 -11   5    4.27    0.28
  -1  11  -5    2.18    0.31
  -1  11  -5    1.45    0.20
  -1  11  -5    1.50    0.18
  -1  11  -5    1.69    0.22
  -1  11  -5    1.33    0.19
   1 -11   5    1.44    0.20
   1 -11   5    1.38    0.19
  -2  11  -5    1.21    0.16
  -2  11  -5    1.11    0.17
  -2  11  -5    1.03    0.15
  -2  11  -5    1.04    0.17
  -2  11  -5    1.07    0.17
  -2  11  -5    1.11    0.27
   2 -11   5    1.01    0.16
   2 -11   5    1.02    0.16
  -3  11  -5   -0.09    0.07
  -3  11  -5    0.06    0.08
  -3  11  -5    0.17    0.10
  -3  11  -5    0.06    0.09
  -3  11  -5    0.26    0.15
   3 -11   5   -0.02    0.07
   3 -11   5   -0.09    0.07
   3 -11   5    0.04    0.08
  -4  11  -5    0.62    0.14
  -4  11  -5    0.49    0.13
  -4  11  -5    0.50    0.13
  -4  11  -5    0.35    0.11
  -4  11  -5    0.77    0.23
   4 -11   5    0.31    0.10
   4 -11   5    0.36    0.12
  -5  11  -5    2.91    0.22
  -5  11  -5    2.48    0.24
  -5  11  -5    3.69    0.42
  -5  11  -5    3.13    0.25
  -5  11  -5    2.91    0.24
   5 -11   5    3.19    0.23
   5 -11   5    2.44    0.21
  -6  11  -5   -0.05    0.08
  -6  11  -5    0.09    0.16
   6 -11   5    0.04    0.08
   6 -11   5    0.00    0.08
   4  10  -5    2.96    0.25
   4  10  -5    3.10    0.24
   4  10  -5    4.13    0.40
   4  10  -5    2.95    0.28
  -4 -10   5    3.10    0.25
  -4 -10   5    2.85    0.28
   3  10  -5    0.77    0.19
   3  10  -5    0.17    0.10
   3  10  -5    0.24    0.11
   3  10  -5    0.25    0.11
  -3 -10   5    0.19    0.10
  -3 -10   5    0.34    0.12
   2  10  -5    0.03    0.07
   2  10  -5    0.06    0.08
   2  10  -5    0.42    0.15
   2  10  -5    0.06    0.09
  -2 -10   5    0.22    0.10
  -2 -10   5    0.03    0.08
   1  10  -5    1.30    0.17
   1  10  -5    0.88    0.16
   1  10  -5    1.49    0.29
   1  10  -5    0.84    0.15
  -1 -10   5    0.95    0.15
  -1 -10   5    0.86    0.15
   0  10  -5    7.69    0.57
   0  10  -5    6.74    0.32
   0  10  -5    6.79    0.34
   0  10  -5    7.14    0.35
   0 -10   5    6.83    0.34
   0 -10   5    7.56    0.35
  -1  10  -5    4.22    0.26
  -1  10  -5    4.81    0.31
  -1  10  -5    5.05    0.46
  -1  10  -5    4.52    0.28
  -1  10  -5    4.50    0.28
   1 -10   5    4.92    0.27
   1 -10   5    4.57    0.27
  -2  10  -5    0.64    0.13
  -2  10  -5    0.88    0.24
  -2  10  -5    0.41    0.11
  -2  10  -5    0.61    0.13
  -2  10  -5    0.38    0.12
   2 -10   5    0.62    0.13
   2 -10   5    0.49    0.10
  -3  10  -5    3.16    0.23
  -3  10  -5    3.39    0.23
  -3  10  -5    3.04    0.23
  -3  10  -5    3.33    0.38
  -3  10  -5    2.81    0.21
  -3  10  -5    2.87    0.21
  -3  10  -5    3.28    0.26
   3 -10   5    2.92    0.22
   3 -10   5    3.12    0.20
  -4  10  -5    0.38    0.11
  -4  10  -5    0.45    0.19
  -4  10  -5    0.27    0.10
  -4  10  -5    0.20    0.09
  -4  10  -5    0.14    0.09
  -4  10  -5    0.50    0.12
  -4  10  -5    0.33    0.10
   4 -10   5    0.40    0.10
   4 -10   5    0.25    0.10
  -5  10  -5    0.19    0.09
  -5  10  -5    0.27    0.10
  -5  10  -5    0.09    0.09
  -5  10  -5    0.55    0.21
  -5  10  -5    0.19    0.09
  -5  10  -5    0.11    0.09
  -5  10  -5    0.27    0.10
   5 -10   5    0.31    0.10
   5 -10   5    0.26    0.10
  -6  10  -5    5.20    0.32
  -6  10  -5    5.16    0.27
  -6  10  -5    4.84    0.52
  -6  10  -5    5.06    0.31
  -6  10  -5    5.70    0.28
   6 -10   5    5.29    0.27
  -7  10  -5   -0.01    0.08
  -7  10  -5   -0.02    0.16
   6   9  -5    1.64    0.21
   6   9  -5    1.65    0.22
   6   9  -5    1.72    0.20
  -6  -9   5    1.36    0.19
  -6  -9   5    1.54    0.20
   5   9  -5    0.43    0.12
   5   9  -5    0.39    0.13
   5   9  -5    0.47    0.12
  -5  -9   5    0.23    0.11
  -5  -9   5    0.54    0.14
   4   9  -5    1.02    0.22
   4   9  -5    0.46    0.12
   4   9  -5    0.30    0.10
   4   9  -5    0.31    0.11
  -4  -9   5    0.51    0.12
  -4  -9   5    0.29    0.10
   3   9  -5    0.07    0.09
   3   9  -5    0.23    0.09
   3   9  -5    0.44    0.15
   3   9  -5    0.14    0.09
  -3  -9   5    0.32    0.11
  -3  -9   5    0.19    0.09
   2   9  -5    2.91    0.22
   2   9  -5    3.06    0.33
   2   9  -5    2.74    0.20
   2   9  -5    2.99    0.23
  -2  -9   5    2.47    0.20
  -2  -9   5    2.63    0.20
   1   9  -5    8.60    0.58
   1   9  -5    8.51    0.35
   1   9  -5    7.86    0.36
   1   9  -5    8.23    0.36
  -1  -9   5    8.35    0.36
  -1  -9   5    8.78    0.36
   0   9  -5    1.61    0.30
   0   9  -5    1.20    0.16
   0   9  -5    1.15    0.16
   0   9  -5    1.18    0.17
   0  -9   5    1.37    0.17
  -1   9  -5    5.84    0.29
  -1   9  -5    5.48    0.46
  -1   9  -5    5.53    0.32
  -1   9  -5    5.87    0.29
  -1   9  -5    5.24    0.28
   1  -9   5    5.60    0.23
   1  -9   5    5.25    0.27
  -2   9  -5    5.79    0.49
  -2   9  -5    6.35    0.30
  -2   9  -5    6.19    0.33
  -2   9  -5    6.29    0.30
  -2   9  -5    6.07    0.29
  -2   9  -5    5.97    0.30
   2  -9   5    5.91    0.25
   2  -9   5    6.57    0.30
  -3   9  -5    1.71    0.31
  -3   9  -5    1.63    0.17
  -3   9  -5    1.65    0.18
  -3   9  -5    1.47    0.17
  -3   9  -5    1.72    0.17
  -3   9  -5    1.97    0.17
  -3   9  -5    1.61    0.19
   3  -9   5    1.55    0.16
   3  -9   5    1.72    0.18
  -4   9  -5    7.98    0.33
  -4   9  -5    8.13    0.38
  -4   9  -5    7.73    0.36
  -4   9  -5    7.55    0.34
  -4   9  -5    8.41    0.61
  -4   9  -5    7.70    0.32
  -4   9  -5    8.19    0.33
   4  -9   5    8.01    0.33
  -5   9  -5    0.52    0.20
  -5   9  -5    0.49    0.11
  -5   9  -5    0.41    0.11
  -5   9  -5    0.46    0.11
  -5   9  -5    0.79    0.13
  -5   9  -5    0.49    0.11
  -5   9  -5    0.38    0.11
   5  -9   5    0.37    0.09
  -6   9  -5    1.58    0.17
  -6   9  -5    1.44    0.33
  -6   9  -5    1.61    0.17
  -6   9  -5    1.49    0.19
  -6   9  -5    1.59    0.20
  -6   9  -5    1.50    0.16
   6  -9   5    1.63    0.17
  -7   9  -5    1.20    0.19
  -7   9  -5    1.45    0.34
  -8   9  -5    0.70    0.27
  -8   9  -5    0.96    0.18
   7   8  -5    0.49    0.13
   6   8  -5    0.13    0.08
   6   8  -5    0.26    0.10
   6   8  -5    0.09    0.10
  -6  -8   5    0.26    0.10
  -6  -8   5    0.07    0.08
  -6  -8   5    0.27    0.10
   5   8  -5    1.55    0.18
   5   8  -5    1.57    0.19
   5   8  -5    1.59    0.19
  -5  -8   5    1.49    0.18
  -5  -8   5    1.34    0.18
   4   8  -5    0.05    0.08
   4   8  -5    0.31    0.10
   4   8  -5    0.21    0.10
  -4  -8   5    0.22    0.10
  -4  -8   5    0.31    0.11
   3   8  -5    0.82    0.13
   3   8  -5    0.70    0.14
   3   8  -5    0.72    0.13
   3   8  -5    1.30    0.26
  -3  -8   5    0.84    0.14
  -3  -8   5    1.00    0.11
  -3  -8   5    0.78    0.13
   2   8  -5    0.58    0.12
   2   8  -5    0.52    0.11
   2   8  -5    0.55    0.10
   2   8  -5    0.73    0.20
  -2  -8   5    0.54    0.11
  -2  -8   5    0.67    0.12
   1   8  -5    4.60    0.25
   1   8  -5    4.82    0.39
   1   8  -5    4.33    0.24
   1   8  -5    4.25    0.27
  -1  -8   5    4.90    0.25
   0   8  -5   27.93    1.20
   0   8  -5   27.35    0.82
   0   8  -5   28.72    0.74
   0   8  -5   29.59    0.76
   0   8  -5   29.00    0.74
   0  -8   5   29.06    0.74
   0  -8   5   29.22    0.64
  -1   8  -5    6.95    0.33
  -1   8  -5    6.69    0.29
  -1   8  -5    6.81    0.49
  -1   8  -5    6.80    0.30
  -1   8  -5    7.62    0.30
   1  -8   5    6.16    0.28
   1  -8   5    7.18    0.25
  -2   8  -5    0.18    0.14
  -2   8  -5    0.22    0.08
  -2   8  -5    0.21    0.08
  -2   8  -5    0.15    0.08
  -2   8  -5    0.11    0.07
  -2   8  -5    0.14    0.07
   2  -8   5    0.15    0.06
   2  -8   5    0.13    0.07
  -3   8  -5    4.36    0.23
  -3   8  -5    4.67    0.24
  -3   8  -5    3.93    0.22
  -3   8  -5    4.23    0.23
  -3   8  -5    4.10    0.25
  -3   8  -5    4.05    0.39
   3  -8   5    4.39    0.22
  -4   8  -5    0.02    0.05
  -4   8  -5    0.15    0.13
  -4   8  -5   -0.02    0.05
  -4   8  -5   -0.05    0.06
  -4   8  -5    0.05    0.06
  -4   8  -5   -0.02    0.06
  -4   8  -5   -0.01    0.05
   4  -8   5   -0.01    0.05
  -5   8  -5   11.42    0.44
  -5   8  -5   10.23    0.42
  -5   8  -5   10.42    0.39
  -5   8  -5   10.38    0.37
  -5   8  -5   10.68    0.37
  -5   8  -5   10.36    0.68
  -5   8  -5   10.66    0.37
   5  -8   5   10.54    0.37
  -6   8  -5    1.40    0.15
  -6   8  -5    1.26    0.14
  -6   8  -5    1.31    0.30
  -6   8  -5    1.61    0.19
  -6   8  -5    1.37    0.15
  -6   8  -5    1.27    0.18
   6  -8   5    1.47    0.15
  -7   8  -5    0.02    0.15
  -7   8  -5    0.28    0.11
  -8   8  -5    0.71    0.15
   7   7  -5    1.91    0.21
  -7  -7   5    1.71    0.21
   6   7  -5    1.56    0.17
   6   7  -5    1.57    0.18
   6   7  -5    1.72    0.18
  -6  -7   5    1.78    0.19
  -6  -7   5    1.55    0.19
  -6  -7   5    1.86    0.19
   5   7  -5    3.47    0.23
   5   7  -5    3.08    0.20
   5   7  -5    3.32    0.22
  -5  -7   5    3.24    0.21
  -5  -7   5    3.22    0.18
  -5  -7   5    3.15    0.21
   4   7  -5    7.18    0.29
   4   7  -5    6.88    0.32
   4   7  -5    7.09    0.31
  -4  -7   5    7.09    0.30
  -4  -7   5    7.01    0.31
  -4  -7   5    6.62    0.26
   3   7  -5    0.08    0.07
   3   7  -5    0.10    0.07
   3   7  -5   -0.01    0.05
  -3  -7   5    0.04    0.06
  -3  -7   5    0.06    0.06
   2   7  -5    0.84    0.13
   2   7  -5    0.69    0.12
   2   7  -5    0.61    0.11
   2   7  -5    0.88    0.20
  -2  -7   5    0.53    0.10
   1   7  -5   28.97    1.17
   1   7  -5   29.75    0.73
   1   7  -5   28.55    0.72
   1   7  -5   28.55    0.74
   1   7  -5   29.90    0.82
  -1  -7   5   28.84    0.60
  -1  -7   5   29.00    0.72
   0   7  -5   -0.05    0.04
   0   7  -5   -0.04    0.05
   0   7  -5   -0.05    0.09
   0   7  -5    0.06    0.06
   0   7  -5    0.01    0.05
   0  -7   5    0.01    0.05
   0  -7   5   -0.01    0.03
  -1   7  -5   17.00    0.48
  -1   7  -5   17.79    0.50
  -1   7  -5   17.07    0.48
  -1   7  -5   16.32    0.80
  -1   7  -5   17.06    0.55
   1  -7   5   17.34    0.43
   1  -7   5   16.58    0.48
  -2   7  -5    0.01    0.06
  -2   7  -5   -0.02    0.05
  -2   7  -5    0.01    0.05
  -2   7  -5   -0.05    0.04
  -2   7  -5    0.00    0.09
  -2   7  -5    0.00    0.05
   2  -7   5   -0.02    0.04
  -3   7  -5   17.33    0.56
  -3   7  -5   17.21    0.49
  -3   7  -5   17.47    0.85
  -3   7  -5   16.71    0.48
  -3   7  -5   17.30    0.49
  -3   7  -5   17.79    0.49
   3  -7   5   17.24    0.49
  -4   7  -5   19.67    0.53
  -4   7  -5   19.88    0.96
  -4   7  -5   20.38    0.54
  -4   7  -5   20.06    0.62
  -4   7  -5   21.03    0.56
  -4   7  -5   20.30    0.60
  -4   7  -5   19.34    0.53
   4  -7   5   18.88    0.52
  -5   7  -5    4.78    0.26
  -5   7  -5    4.77    0.23
  -5   7  -5    4.27    0.22
  -5   7  -5    4.51    0.26
  -5   7  -5    4.84    0.42
   5  -7   5    4.47    0.22
  -6   7  -5    0.04    0.06
  -6   7  -5    0.03    0.06
  -6   7  -5    0.17    0.07
  -6   7  -5    0.11    0.06
  -6   7  -5    0.06    0.13
   6  -7   5    0.00    0.06
  -7   7  -5   12.78    0.40
  -7   7  -5   12.74    0.40
  -7   7  -5   11.93    0.79
  -7   7  -5   13.05    0.51
  -7   7  -5   12.86    0.46
   7  -7   5   13.17    0.40
  -8   7  -5    7.18    0.38
  -9   7  -5    0.20    0.11
  -8  -6   5    1.82    0.21
  -8  -6   5    1.74    0.21
   7   6  -5    0.06    0.07
  -7  -6   5   -0.02    0.06
   6   6  -5    0.73    0.12
   6   6  -5    0.67    0.11
   6   6  -5    0.69    0.12
  -6  -6   5    0.90    0.13
  -6  -6   5    0.60    0.10
  -6  -6   5    0.66    0.11
  -6  -6   5    0.67    0.12
   5   6  -5    4.38    0.22
   5   6  -5    3.69    0.21
   5   6  -5    4.03    0.23
  -5  -6   5    4.15    0.21
  -5  -6   5    4.15    0.21
  -5  -6   5    4.20    0.22
   4   6  -5    1.54    0.16
   4   6  -5    1.82    0.15
   4   6  -5    1.94    0.14
  -4  -6   5    1.63    0.14
  -4  -6   5    1.75    0.13
  -4  -6   5    1.91    0.15
   3   6  -5   24.39    0.65
   3   6  -5   25.06    0.63
  -3  -6   5   25.03    0.63
  -3  -6   5   25.24    0.62
   2   6  -5    3.99    0.22
   2   6  -5    3.99    0.20
   2   6  -5    3.86    0.20
   2   6  -5    3.97    0.30
   2   6  -5    3.56    0.20
  -2  -6   5    3.62    0.19
   1   6  -5    5.88    0.38
   1   6  -5    6.08    0.25
   1   6  -5    5.86    0.27
   1   6  -5    6.24    0.25
   1   6  -5    5.81    0.24
  -1  -6   5    6.03    0.16
  -1  -6   5    5.74    0.24
   0   6  -5    0.08    0.05
   0   6  -5    0.06    0.05
   0   6  -5    0.07    0.05
   0   6  -5    0.07    0.09
   0   6  -5    0.08    0.05
   0  -6   5    0.03    0.03
   0  -6   5    0.09    0.05
  -1   6  -5    0.10    0.10
  -1   6  -5    0.04    0.05
  -1   6  -5    0.09    0.06
  -1   6  -5    0.07    0.06
  -1   6  -5    0.05    0.06
   1  -6   5    0.15    0.06
  -2   6  -5   11.78    0.42
  -2   6  -5   11.54    0.62
  -2   6  -5   12.65    0.37
  -2   6  -5   12.25    0.36
  -2   6  -5   12.69    0.38
   2  -6   5   11.75    0.36
  -3   6  -5   27.41    0.74
  -3   6  -5   27.90    0.65
  -3   6  -5   27.10    0.64
  -3   6  -5   27.73    0.66
  -3   6  -5   26.31    1.12
   3  -6   5   26.99    0.64
  -4   6  -5    3.23    0.32
  -4   6  -5    3.47    0.18
  -4   6  -5    3.29    0.18
  -4   6  -5    3.46    0.21
  -4   6  -5    3.54    0.18
  -4   6  -5    3.23    0.20
   4  -6   5    3.09    0.17
  -5   6  -5    2.52    0.16
  -5   6  -5    2.43    0.18
  -5   6  -5    2.77    0.16
  -5   6  -5    2.45    0.29
  -5   6  -5    2.50    0.19
   5  -6   5    2.72    0.16
  -6   6  -5    0.32    0.08
  -6   6  -5    0.42    0.09
  -6   6  -5    0.36    0.10
  -6   6  -5    0.27    0.08
  -6   6  -5    0.34    0.17
   6  -6   5    0.27    0.08
  -7   6  -5    7.26    0.27
  -7   6  -5    7.54    0.28
  -7   6  -5    7.09    0.35
  -7   6  -5    7.01    0.31
   7  -6   5    6.49    0.26
  -8   6  -5    1.16    0.17
  -9   6  -5    0.52    0.14
  -8  -5   5    0.33    0.11
  -8  -5   5    0.17    0.09
   7   5  -5    3.08    0.19
  -7  -5   5    2.58    0.20
  -7  -5   5    2.88    0.20
  -7  -5   5    3.00    0.19
   6   5  -5    0.82    0.12
   6   5  -5    0.95    0.11
   6   5  -5    1.02    0.13
  -6  -5   5    0.83    0.12
  -6  -5   5    0.73    0.11
  -6  -5   5    0.71    0.13
  -6  -5   5    0.90    0.11
   5   5  -5    0.40    0.09
   5   5  -5    0.51    0.10
   5   5  -5    0.35    0.08
  -5  -5   5    0.53    0.09
  -5  -5   5    0.66    0.11
  -5  -5   5    0.78    0.11
  -5  -5   5    0.43    0.09
   4   5  -5    0.13    0.05
   4   5  -5    0.14    0.06
   4   5  -5    0.13    0.06
  -4  -5   5    0.19    0.07
  -4  -5   5    0.07    0.05
  -4  -5   5    0.19    0.06
   3   5  -5    0.05    0.06
   3   5  -5    0.12    0.06
   3   5  -5    0.19    0.06
   3   5  -5    0.31    0.07
  -3  -5   5    0.09    0.06
   2   5  -5   55.45    1.13
   2   5  -5   54.19    1.15
   2   5  -5   54.31    1.27
   2   5  -5   55.86    1.04
   2   5  -5   54.65    1.85
   2   5  -5   54.83    1.14
  -2  -5   5   55.98    1.13
   1   5  -5   11.07    0.34
   1   5  -5   11.51    0.34
   1   5  -5   10.86    0.52
   1   5  -5   11.52    0.34
   1   5  -5   11.01    0.38
  -1  -5   5   11.37    0.34
  -1  -5   5   10.88    0.24
   0   5  -5    3.11    0.18
   0   5  -5    3.20    0.25
   0   5  -5    3.66    0.17
   0   5  -5    3.73    0.18
   0   5  -5    3.27    0.16
   0  -5   5    3.59    0.17
  -1   5  -5   12.41    0.60
  -1   5  -5   12.87    0.42
  -1   5  -5   13.88    0.38
  -1   5  -5   14.17    0.38
   1  -5   5   12.94    0.37
  -2   5  -5   15.31    0.47
  -2   5  -5   15.94    0.72
  -2   5  -5   15.62    0.40
  -2   5  -5   15.45    0.41
  -2   5  -5   16.19    0.42
   2  -5   5   16.06    0.32
   2  -5   5   15.45    0.41
  -3   5  -5    2.73    0.17
  -3   5  -5    3.06    0.28
  -3   5  -5    2.82    0.14
  -3   5  -5    3.15    0.16
  -3   5  -5    3.05    0.16
   3  -5   5    2.86    0.15
  -4   5  -5   54.00    1.11
  -4   5  -5   53.73    1.26
  -4   5  -5   55.03    1.10
  -4   5  -5   53.56    1.95
   4  -5   5   53.63    1.10
  -5   5  -5   14.94    0.77
  -5   5  -5   14.82    0.48
  -5   5  -5   14.51    0.40
  -5   5  -5   14.26    0.46
  -5   5  -5   14.28    0.40
   5  -5   5   14.24    0.40
  -6   5  -5    0.44    0.08
  -6   5  -5    0.46    0.10
  -6   5  -5    0.40    0.08
  -6   5  -5    0.46    0.11
   6  -5   5    0.37    0.08
  -7   5  -5   -0.04    0.05
  -7   5  -5    0.17    0.07
  -7   5  -5    0.05    0.07
  -7   5  -5    0.04    0.06
   7  -5   5    0.02    0.05
  -8   5  -5    0.10    0.09
  -9   5  -5    5.83    0.34
 -10   5  -5    0.21    0.11
  -9  -4   5   -0.04    0.06
  -9  -4   5    0.25    0.10
  -9  -4   5    0.14    0.09
  -8  -4   5    2.86    0.22
  -8  -4   5    2.96    0.20
  -8  -4   5    3.00    0.21
   7   4  -5    5.28    0.23
  -7  -4   5    5.29    0.26
  -7  -4   5    5.54    0.26
  -7  -4   5    5.13    0.28
   6   4  -5    0.19    0.07
   6   4  -5    0.26    0.07
   6   4  -5    0.17    0.06
  -6  -4   5    0.21    0.06
  -6  -4   5    0.29    0.07
  -6  -4   5    0.21    0.07
  -6  -4   5    0.11    0.07
   5   4  -5    0.54    0.09
   5   4  -5    0.49    0.09
   5   4  -5    0.43    0.07
  -5  -4   5    0.50    0.08
  -5  -4   5    0.61    0.10
  -5  -4   5    0.37    0.08
  -5  -4   5    0.66    0.09
   4   4  -5    9.14    0.29
   4   4  -5    8.85    0.30
  -4  -4   5    9.29    0.29
  -4  -4   5    9.45    0.30
  -4  -4   5   10.00    0.29
   3   4  -5   16.27    0.48
   3   4  -5   17.05    0.45
   3   4  -5   16.66    0.43
   3   4  -5   16.95    0.44
  -3  -4   5   17.51    0.44
   2   4  -5   15.15    0.40
   2   4  -5   15.01    0.39
   2   4  -5   14.84    0.60
   2   4  -5   15.08    0.40
   2   4  -5   14.89    0.44
   2   4  -5   15.61    0.40
  -2  -4   5   15.40    0.40
   1   4  -5    1.06    0.12
   1   4  -5    1.10    0.14
   1   4  -5    1.08    0.10
   1   4  -5    1.04    0.10
  -1  -4   5    1.00    0.04
  -1  -4   5    0.97    0.04
  -1  -4   5    1.05    0.09
   0   4  -5   50.09    1.01
   0   4  -5   48.84    1.00
   0   4  -5   47.62    1.66
   0   4  -5   51.58    1.14
   0  -4   5   51.05    1.00
  -1   4  -5   65.36    2.15
  -1   4  -5   64.36    1.44
  -1   4  -5   65.48    1.27
  -1   4  -5   64.62    1.28
   1  -4   5   67.29    1.28
  -2   4  -5   33.08    1.22
  -2   4  -5   33.54    0.70
  -2   4  -5   34.44    0.72
  -2   4  -5   32.64    0.72
   2  -4   5   32.92    0.65
   2  -4   5   33.93    0.72
  -3   4  -5   15.08    0.39
  -3   4  -5   14.49    0.36
  -3   4  -5   14.94    0.39
  -3   4  -5   14.37    0.67
  -3   4  -5   15.05    0.42
   3  -4   5   14.27    0.38
  -4   4  -5    0.34    0.07
  -4   4  -5    0.39    0.14
  -4   4  -5    0.59    0.08
  -4   4  -5    0.47    0.07
   4  -4   5    0.42    0.07
  -5   4  -5    5.37    0.22
  -5   4  -5    6.38    0.28
  -5   4  -5    5.89    0.24
  -5   4  -5    6.26    0.23
   5  -4   5    6.16    0.23
  -6   4  -5    4.86    0.20
  -6   4  -5    4.86    0.25
  -6   4  -5    4.72    0.22
  -6   4  -5    4.92    0.21
   6  -4   5    4.61    0.20
  -7   4  -5    7.53    0.29
  -7   4  -5    7.66    0.27
  -7   4  -5    7.88    0.27
  -7   4  -5    7.26    0.33
   7  -4   5    7.56    0.27
  -8   4  -5    0.56    0.13
  -9   4  -5    0.51    0.13
 -10   4  -5    2.02    0.24
  -9  -3   5    2.64    0.21
  -9  -3   5    3.05    0.24
  -9  -3   5    2.62    0.20
  -8  -3   5   -0.02    0.06
  -8  -3   5    0.04    0.06
  -8  -3   5    0.08    0.07
  -7  -3   5    0.33    0.08
  -7  -3   5    0.48    0.10
  -7  -3   5    0.46    0.10
   6   3  -5    0.26    0.06
   6   3  -5    0.12    0.06
   6   3  -5    0.12    0.04
  -6  -3   5    0.23    0.06
  -6  -3   5    0.09    0.06
  -6  -3   5    0.11    0.06
  -6  -3   5    0.15    0.06
  -6  -3   5    0.20    0.05
   5   3  -5   26.86    0.59
   5   3  -5   26.55    0.61
   5   3  -5   27.47    0.57
  -5  -3   5   26.97    0.58
  -5  -3   5   26.78    0.59
  -5  -3   5   25.96    0.64
   4   3  -5   52.42    1.04
   4   3  -5   53.47    1.07
   4   3  -5   53.14    1.17
  -4  -3   5   52.23    1.04
  -4  -3   5   53.23    1.10
  -4  -3   5   53.27    1.09
   3   3  -5    3.63    0.15
   3   3  -5    3.31    0.16
   3   3  -5    3.24    0.15
   3   3  -5    3.56    0.15
  -3  -3   5    3.68    0.16
  -3  -3   5    3.27    0.14
   2   3  -5    3.96    0.17
   2   3  -5    3.85    0.16
   2   3  -5    3.93    0.16
   2   3  -5    3.92    0.13
   2   3  -5    3.90    0.21
  -2  -3   5    3.87    0.15
   1   3  -5   90.13    1.67
   1   3  -5   87.99    2.78
   1   3  -5   89.84    1.89
   1   3  -5   90.57    1.68
  -1  -3   5   88.61    1.67
  -1  -3   5   90.41    1.62
  -1  -3   5   90.03    1.62
   0   3  -5   47.46    1.53
   0   3  -5   46.62    0.93
   0   3  -5   47.49    0.92
   0  -3   5   46.56    0.92
   0  -3   5   45.51    0.85
   0  -3   5   45.19    0.88
  -1   3  -5   61.72    1.18
  -1   3  -5   59.18    1.19
  -1   3  -5   62.04    1.26
  -1   3  -5   63.10    2.00
   1  -3   5   61.01    1.18
  -2   3  -5    0.65    0.08
  -2   3  -5    0.78    0.05
  -2   3  -5    0.92    0.09
  -2   3  -5    0.81    0.15
  -2   3  -5    0.75    0.08
   2  -3   5    0.77    0.08
  -3   3  -5    9.02    0.29
  -3   3  -5    9.47    0.28
  -3   3  -5    9.16    0.27
   3  -3   5    8.98    0.27
  -4   3  -5    0.92    0.11
  -4   3  -5    1.06    0.09
  -4   3  -5    1.03    0.11
  -4   3  -5    0.97    0.10
   4  -3   5    0.78    0.09
  -5   3  -5    1.75    0.12
  -5   3  -5    1.61    0.12
  -5   3  -5    1.49    0.11
  -5   3  -5    1.41    0.13
   5  -3   5    1.71    0.12
  -6   3  -5   12.15    0.35
  -6   3  -5   11.86    0.35
  -6   3  -5   10.83    0.40
  -6   3  -5   11.46    0.37
   6  -3   5   11.12    0.34
  -7   3  -5    0.08    0.07
  -7   3  -5    0.08    0.06
  -7   3  -5    0.07    0.06
  -7   3  -5    0.14    0.07
   7  -3   5    0.05    0.06
  -8   3  -5   11.16    0.44
  -9   3  -5    0.09    0.08
 -10   3  -5   -0.06    0.08
 -10  -2   5    0.25    0.10
  -9  -2   5    0.52    0.11
  -9  -2   5    0.70    0.13
  -9  -2   5    0.62    0.13
  -8  -2   5    9.03    0.38
  -8  -2   5    8.67    0.35
  -8  -2   5    8.99    0.36
  -7  -2   5    0.98    0.12
  -7  -2   5    0.86    0.12
  -7  -2   5    1.03    0.14
   6   2  -5    0.45    0.05
   6   2  -5    0.44    0.06
   6   2  -5    0.43    0.05
  -6  -2   5    0.24    0.07
  -6  -2   5    0.31    0.05
  -6  -2   5    0.20    0.07
  -6  -2   5    0.46    0.08
  -6  -2   5    0.31    0.05
   5   2  -5    0.51    0.06
   5   2  -5    0.45    0.06
   5   2  -5    0.67    0.07
  -5  -2   5    0.59    0.09
  -5  -2   5    0.54    0.09
  -5  -2   5    0.42    0.05
  -5  -2   5    0.42    0.08
  -5  -2   5    0.58    0.06
   4   2  -5   26.14    0.57
   4   2  -5   26.10    0.52
   4   2  -5   26.65    0.61
   4   2  -5   26.40    0.55
   4   2  -5   26.13    0.56
  -4  -2   5   26.59    0.61
  -4  -2   5   25.87    0.61
  -4  -2   5   26.25    0.55
  -4  -2   5   26.34    0.57
  -4  -2   5   26.78    0.58
   3   2  -5  113.22    2.04
   3   2  -5  110.40    1.99
   3   2  -5  110.08    2.01
   3   2  -5  108.05    1.97
   3   2  -5  110.56    2.25
  -3  -2   5  106.53    1.99
  -3  -2   5  110.27    2.11
  -3  -2   5  109.08    2.06
  -3  -2   5  107.03    2.04
  -3  -2   5  109.70    2.04
   2   2  -5    0.20    0.04
   2   2  -5    0.13    0.04
   2   2  -5    0.28    0.05
   2   2  -5    0.24    0.05
   2   2  -5    0.36    0.02
  -2  -2   5    0.27    0.05
  -2  -2   5    0.34    0.05
  -2  -2   5    0.25    0.05
   1   2  -5   47.51    0.92
   1   2  -5   46.63    1.48
   1   2  -5   46.63    0.91
   1   2  -5   48.02    0.88
  -1  -2   5   47.39    0.97
  -1  -2   5   48.77    0.88
  -1  -2   5   46.01    0.91
  -1  -2   5   47.99    1.48
  -1  -2   5   47.30    0.89
   0   2  -5    4.78    0.17
   0   2  -5    4.68    0.24
   0   2  -5    4.52    0.16
   0   2  -5    4.81    0.16
   0  -2   5    4.83    0.24
   0  -2   5    4.76    0.17
   0  -2   5    4.85    0.14
   0  -2   5    4.41    0.16
  -1   2  -5    3.87    0.15
  -1   2  -5    3.90    0.10
  -1   2  -5    3.73    0.15
  -1   2  -5    4.12    0.16
   1  -2   5    4.12    0.16
   1  -2   5    3.92    0.15
  -2   2  -5   88.90    1.67
  -2   2  -5   88.43    1.68
  -2   2  -5   88.97    1.79
   2  -2   5   92.08    1.68
   2  -2   5   91.42    1.51
  -3   2  -5    1.30    0.09
  -3   2  -5    1.40    0.10
  -3   2  -5    1.18    0.09
   3  -2   5    1.45    0.07
   3  -2   5    1.40    0.06
   3  -2   5    1.29    0.10
  -4   2  -5   12.68    0.34
  -4   2  -5   12.20    0.37
  -4   2  -5   12.99    0.38
  -4   2  -5   12.86    0.34
   4  -2   5   12.06    0.34
  -5   2  -5    0.10    0.05
  -5   2  -5    0.04    0.05
  -5   2  -5    0.09    0.05
  -5   2  -5    0.12    0.06
   5  -2   5    0.09    0.05
  -6   2  -5    7.86    0.29
  -6   2  -5    8.24    0.28
  -6   2  -5    8.37    0.28
  -6   2  -5    7.52    0.30
   6  -2   5    7.71    0.27
  -7   2  -5   24.39    0.60
  -7   2  -5   24.60    0.60
  -7   2  -5   25.40    0.69
  -7   2  -5   23.46    0.64
   7  -2   5   24.45    0.60
  -8   2  -5    1.83    0.16
  -8   2  -5    1.54    0.18
  -9   2  -5    2.03    0.21
 -10   2  -5    0.11    0.10
 -10  -1   5    2.13    0.23
 -10  -1   5    1.95    0.21
  -9  -1   5    1.02    0.14
  -9  -1   5    1.27    0.16
  -9  -1   5    1.16    0.16
  -8  -1   5    0.29    0.09
  -8  -1   5    0.40    0.09
  -8  -1   5    0.20    0.08
  -7  -1   5    7.47    0.29
  -7  -1   5    7.16    0.30
  -7  -1   5    7.62    0.30
   6   1  -5    4.67    0.13
   6   1  -5    4.58    0.12
   6   1  -5    5.05    0.14
  -6  -1   5    4.38    0.20
  -6  -1   5    4.52    0.21
  -6  -1   5    4.71    0.13
  -6  -1   5    4.15    0.21
   5   1  -5   42.33    0.81
   5   1  -5   43.22    0.84
   5   1  -5   44.35    1.39
   5   1  -5   43.75    0.81
   5   1  -5   41.98    0.78
  -5  -1   5   42.31    0.81
  -5  -1   5   42.05    0.93
  -5  -1   5   43.07    0.79
  -5  -1   5   42.99    0.85
  -5  -1   5   43.04    0.81
  -5  -1   5   44.24    0.88
  -5  -1   5   44.79    0.94
  -5  -1   5   42.54    0.93
   4   1  -5   26.22    0.53
   4   1  -5   27.41    0.85
   4   1  -5   26.80    0.54
   4   1  -5   26.93    0.55
   4   1  -5   27.00    0.55
   4   1  -5   27.03    0.53
   4   1  -5   26.61    0.59
  -4  -1   5   26.90    0.61
  -4  -1   5   26.61    0.61
  -4  -1   5   27.00    0.57
  -4  -1   5   26.41    0.53
  -4  -1   5   26.33    0.53
  -4  -1   5   26.02    0.55
   3   1  -5    0.43    0.05
   3   1  -5    0.77    0.06
   3   1  -5    0.42    0.04
   3   1  -5    0.46    0.05
   3   1  -5    0.43    0.05
  -3  -1   5    0.45    0.05
  -3  -1   5    0.46    0.05
  -3  -1   5    0.37    0.06
  -3  -1   5    0.49    0.06
  -3  -1   5    0.47    0.06
  -3  -1   5    0.38    0.05
  -3  -1   5    0.42    0.05
  -3  -1   5    0.49    0.05
   2   1  -5   48.43    0.90
   2   1  -5   45.14    0.95
   2   1  -5   48.43    0.90
   2   1  -5   48.70    0.90
   2   1  -5   48.36    0.91
  -2  -1   5   48.22    0.95
  -2  -1   5   47.42    0.90
  -2  -1   5   47.21    0.90
  -2  -1   5   47.45    0.92
  -2  -1   5   46.97    0.93
  -2  -1   5   46.78    0.90
  -2  -1   5   47.49    0.86
  -2  -1   5   47.88    0.90
   1   1  -5    3.93    0.14
   1   1  -5    3.98    0.14
   1   1  -5    4.05    0.15
   1   1  -5    4.11    0.12
  -1  -1   5    3.77    0.13
  -1  -1   5    4.18    0.11
  -1  -1   5    3.93    0.13
  -1  -1   5    4.08    0.14
  -1  -1   5    4.05    0.12
  -1  -1   5    4.05    0.17
   0   1  -5   80.45    1.47
   0   1  -5   77.16    1.47
   0   1  -5   78.44    1.55
   0   1  -5   79.97    1.46
   0  -1   5   78.83    1.46
   0  -1   5   79.32    1.55
   0  -1   5   74.26    1.47
   0  -1   5   79.65    1.32
   0  -1   5   82.79    2.45
  -1   1  -5   23.61    0.52
  -1   1  -5   24.32    0.55
  -1   1  -5   24.38    0.52
  -1   1  -5   23.89    0.52
   1  -1   5   23.84    0.52
  -2   1  -5    0.58    0.07
  -2   1  -5    0.51    0.07
  -2   1  -5    0.52    0.07
  -2   1  -5    0.51    0.07
   2  -1   5    0.59    0.03
   2  -1   5    0.60    0.07
   2  -1   5    0.67    0.05
  -3   1  -5    3.41    0.15
  -3   1  -5    3.69    0.16
  -3   1  -5    3.89    0.17
   3  -1   5    3.80    0.16
  -4   1  -5    0.21    0.06
  -4   1  -5    0.25    0.04
  -4   1  -5    0.19    0.06
  -4   1  -5    0.25    0.06
  -4   1  -5    0.24    0.06
   4  -1   5    0.11    0.05
  -5   1  -5   68.92    1.23
  -5   1  -5   67.11    1.45
  -5   1  -5   70.34    1.36
  -5   1  -5   69.63    1.45
  -5   1  -5   69.64    1.37
   5  -1   5   67.23    1.36
  -6   1  -5    0.29    0.08
  -6   1  -5    0.46    0.08
  -6   1  -5    0.27    0.06
  -6   1  -5    0.27    0.07
  -6   1  -5    0.31    0.07
   6  -1   5    0.31    0.07
  -7   1  -5    0.70    0.11
  -7   1  -5    0.48    0.09
  -7   1  -5    0.46    0.10
  -7   1  -5    0.65    0.10
  -7   1  -5    0.62    0.09
   7  -1   5    0.56    0.10
  -8   1  -5    4.50    0.24
  -8   1  -5    4.04    0.24
   8  -1   5    3.98    0.21
  -9   1  -5    0.12    0.09
 -10   0   5    0.09    0.08
 -10   0   5    0.24    0.10
  -9   0   5    2.39    0.19
  -9   0   5    2.33    0.19
  -9   0   5    2.25    0.19
  -8   0   5    0.49    0.11
  -8   0   5    0.58    0.11
  -8   0   5    0.32    0.08
  -7   0   5    0.17    0.07
  -7   0   5    0.19    0.07
  -7   0   5    0.05    0.05
  -6   0   5   23.31    0.60
  -6   0   5   24.14    0.60
  -6   0   5   22.96    0.61
  -6   0   5   22.29    0.55
   5   0  -5    2.43    0.07
   5   0  -5    2.15    0.11
   5   0  -5    2.07    0.14
  -5   0   5    2.17    0.13
  -5   0   5    2.00    0.14
  -5   0   5    2.08    0.13
  -5   0   5    2.33    0.14
   4   0  -5   80.75    1.62
   4   0  -5   80.05    1.53
   4   0  -5   81.67    1.43
   4   0  -5   81.63    1.44
   4   0  -5   81.53    1.45
   4   0  -5   80.45    2.44
   4   0  -5   80.89    1.38
  -4   0   5   79.91    1.51
  -4   0   5   81.29    1.46
  -4   0   5   81.32    1.54
  -4   0   5   79.88    1.57
  -4   0   5   80.47    1.56
  -4   0   5   77.55    1.43
  -4   0   5   78.37    1.43
  -4   0   5   80.75    1.41
   3   0  -5   34.64    0.66
   3   0  -5   35.92    0.71
   3   0  -5   34.73    0.67
   3   0  -5   35.48    0.70
   3   0  -5   34.48    0.64
   3   0  -5   34.52    0.66
  -3   0   5   34.80    0.68
  -3   0   5   34.77    0.65
  -3   0   5   34.90    0.74
  -3   0   5   35.30    0.69
  -3   0   5   34.36    0.66
  -3   0   5   35.25    0.74
  -3   0   5   35.32    0.66
  -3   0   5   34.07    0.71
   2   0  -5    0.55    0.05
   2   0  -5    0.63    0.05
   2   0  -5    0.55    0.05
   2   0  -5    0.70    0.05
   2   0  -5    0.62    0.05
   2   0  -5    0.62    0.05
  -2   0   5    0.68    0.05
  -2   0   5    0.61    0.05
  -2   0   5    0.51    0.06
  -2   0   5    0.58    0.06
  -2   0   5    0.54    0.05
  -2   0   5    0.59    0.05
  -2   0   5    0.56    0.05
  -2   0   5    0.64    0.05
  -2   0   5    0.60    0.06
   1   0  -5    1.77    0.09
   1   0  -5    1.91    0.09
   1   0  -5    1.82    0.07
   1   0  -5    1.81    0.09
   1   0  -5    1.79    0.09
   1   0  -5    1.67    0.08
  -1   0   5    1.68    0.08
  -1   0   5    1.74    0.06
  -1   0   5    1.76    0.07
   0   0  -5    0.12    0.04
   0   0  -5    0.09    0.02
   0   0  -5    0.06    0.04
   0   0  -5    0.12    0.04
   0   0  -5    0.07    0.02
   0   0  -5    0.11    0.04
   0   0   5    0.09    0.04
  -1   0  -5  109.97    2.13
  -1   0  -5  109.02    2.00
  -1   0  -5  108.46    1.98
  -1   0  -5  110.29    2.05
   1   0   5  109.03    2.00
  -2   0  -5    5.17    0.18
  -2   0  -5    5.15    0.19
  -2   0  -5    5.11    0.18
  -2   0  -5    5.15    0.20
  -2   0  -5    5.33    0.11
   2   0   5    4.99    0.13
   2   0   5    5.20    0.19
  -3   0  -5   23.39    0.49
  -3   0  -5   22.91    0.56
  -3   0  -5   23.71    0.58
  -3   0  -5   23.04    0.54
  -3   0  -5   23.91    0.54
  -3   0  -5   23.59    0.44
  -3   0  -5   23.17    0.54
   3   0   5   23.56    0.54
  -4   0  -5   19.48    0.54
  -4   0  -5   21.33    0.51
  -4   0  -5   20.85    0.50
  -4   0  -5   20.70    0.47
  -4   0  -5   20.99    0.51
  -4   0  -5   21.69    0.42
   4   0   5   20.90    0.51
  -5   0  -5    3.16    0.13
  -5   0  -5    3.04    0.18
  -5   0  -5    3.07    0.16
  -5   0  -5    3.32    0.16
  -5   0  -5    3.02    0.15
   5   0   5    3.16    0.17
  -6   0  -5    2.82    0.14
  -6   0  -5    2.69    0.16
  -6   0  -5    2.77    0.16
  -6   0  -5    3.10    0.17
  -6   0  -5    2.78    0.16
  -6   0  -5    2.94    0.18
   6   0   5    2.61    0.16
  -7   0  -5    1.77    0.14
  -7   0  -5    1.70    0.15
  -7   0  -5    1.82    0.15
  -7   0  -5    1.76    0.12
  -7   0  -5    1.80    0.15
  -7   0  -5    1.55    0.15
   7   0   5    1.85    0.15
  -8   0  -5    0.27    0.09
  -8   0  -5    0.29    0.09
  -8   0  -5    0.25    0.09
   8   0   5    0.47    0.10
 -10   1   5    3.14    0.24
 -10   1   5    3.49    0.23
  -9   1   5    0.19    0.08
  -9   1   5    0.19    0.09
  -9   1   5    0.21    0.08
  -8   1   5    4.12    0.22
  -8   1   5    4.41    0.24
  -8   1   5    4.34    0.24
  -7   1   5    0.66    0.10
  -7   1   5    0.53    0.11
  -7   1   5    0.47    0.09
  -7   1   5    0.60    0.10
   6  -1  -5    0.28    0.06
  -6   1   5    0.27    0.07
  -6   1   5    0.13    0.05
  -6   1   5    0.30    0.07
  -6   1   5    0.14    0.06
   5  -1  -5   52.00    1.11
   5  -1  -5   56.96    1.76
  -5   1   5   53.96    1.06
  -5   1   5   56.64    1.13
  -5   1   5   56.32    1.17
  -5   1   5   54.52    1.14
   4  -1  -5   46.38    0.83
   4  -1  -5   45.81    0.80
   4  -1  -5   45.58    0.83
   4  -1  -5   46.84    0.85
   4  -1  -5   46.26    0.84
   4  -1  -5   46.65    0.94
  -4   1   5   46.52    0.82
  -4   1   5   44.97    0.93
  -4   1   5   46.88    0.96
  -4   1   5   46.31    0.97
  -4   1   5   45.80    0.83
  -4   1   5   45.90    0.89
  -4   1   5   45.76    0.83
  -4   1   5   43.98    1.45
   3  -1  -5   22.42    0.44
   3  -1  -5   21.66    0.43
   3  -1  -5   21.97    0.44
   3  -1  -5   21.44    0.49
   3  -1  -5   21.52    0.46
   3  -1  -5   22.50    0.44
   3  -1  -5   21.56    0.42
  -3   1   5   21.77    0.46
  -3   1   5   21.79    0.50
  -3   1   5   21.80    0.72
  -3   1   5   20.90    0.43
  -3   1   5   21.63    0.43
  -3   1   5   21.80    0.48
  -3   1   5   22.15    0.43
  -3   1   5   22.26    0.52
   2  -1  -5   25.54    0.51
   2  -1  -5   25.04    0.51
   2  -1  -5   25.76    0.55
   2  -1  -5   25.49    0.52
   2  -1  -5   25.68    0.51
   2  -1  -5   25.33    0.54
   2  -1  -5   25.20    0.49
   2  -1  -5   25.25    0.51
   2  -1  -5   25.37    0.51
  -2   1   5   24.86    0.50
  -2   1   5   25.04    0.50
  -2   1   5   25.31    0.51
  -2   1   5   24.68    0.56
  -2   1   5   24.68    0.51
  -2   1   5   25.38    0.51
  -2   1   5   24.98    0.54
   1  -1  -5    5.50    0.17
   1  -1  -5    5.19    0.16
   1  -1  -5    5.15    0.18
   1  -1  -5    5.63    0.14
   1  -1  -5    5.13    0.17
   1  -1  -5    5.31    0.13
   1  -1  -5    5.17    0.16
  -1   1   5    5.20    0.16
  -1   1   5    5.07    0.16
   0  -1  -5    3.86    0.15
   0  -1  -5    3.86    0.15
   0  -1  -5    4.07    0.15
   0   1   5    3.94    0.14
   0   1   5    3.84    0.12
   0   1   5    3.79    0.15
  -1  -1  -5   11.18    0.30
  -1  -1  -5   11.05    0.31
  -1  -1  -5   11.32    0.30
   1   1   5   11.05    0.30
   1   1   5   11.06    0.29
  -2  -1  -5   19.16    0.47
  -2  -1  -5   19.55    0.47
  -2  -1  -5   20.49    0.40
  -2  -1  -5   19.91    0.49
   2   1   5   19.40    0.46
   2   1   5   19.93    0.47
  -3  -1  -5    3.76    0.18
  -3  -1  -5    3.96    0.13
  -3  -1  -5    3.74    0.14
  -3  -1  -5    3.95    0.18
  -3  -1  -5    3.78    0.17
   3   1   5    3.93    0.18
   3   1   5    3.89    0.17
  -4  -1  -5    6.10    0.20
  -4  -1  -5    5.80    0.23
  -4  -1  -5    6.33    0.20
  -4  -1  -5    6.07    0.18
  -4  -1  -5    6.13    0.25
  -4  -1  -5    6.13    0.25
  -4  -1  -5    6.14    0.23
   4   1   5    5.58    0.22
   4   1   5    5.83    0.23
  -5  -1  -5    5.52    0.25
  -5  -1  -5    5.43    0.18
  -5  -1  -5    5.56    0.23
  -5  -1  -5    5.61    0.24
  -5  -1  -5    5.53    0.21
  -5  -1  -5    5.54    0.21
   5   1   5    5.93    0.23
   5   1   5    5.39    0.23
  -6  -1  -5    4.85    0.23
  -6  -1  -5    5.41    0.22
  -6  -1  -5    4.79    0.24
  -6  -1  -5    5.15    0.22
  -6  -1  -5    5.04    0.23
  -6  -1  -5    4.99    0.19
   6   1   5    4.54    0.23
  -7  -1  -5    1.57    0.17
  -7  -1  -5    1.37    0.14
  -7  -1  -5    1.50    0.16
  -7  -1  -5    1.42    0.11
   7   1   5    1.11    0.14
  -8  -1  -5    3.17    0.21
  -8  -1  -5    2.76    0.19
  -8  -1  -5    2.61    0.18
  -8  -1  -5    2.98    0.20
   8   1   5    3.10    0.20
  10  -2  -5    0.00    0.06
 -10   2   5    0.06    0.07
 -10   2   5    0.00    0.07
   9  -2  -5    4.46    0.24
  -9   2   5    4.33    0.26
  -9   2   5    4.40    0.25
   8  -2  -5    1.99    0.16
  -8   2   5    2.32    0.18
  -8   2   5    2.29    0.17
  -8   2   5    2.41    0.18
   7  -2  -5   31.18    0.76
  -7   2   5   31.74    0.79
  -7   2   5   32.30    0.78
  -7   2   5   30.86    0.73
  -7   2   5   31.43    0.81
   6  -2  -5    6.07    0.24
  -6   2   5    6.29    0.26
  -6   2   5    5.69    0.27
  -6   2   5    6.35    0.24
  -6   2   5    6.50    0.25
  -6   2   5    5.93    0.26
   5  -2  -5    5.97    0.23
  -5   2   5    5.88    0.24
  -5   2   5    6.05    0.31
  -5   2   5    6.22    0.23
  -5   2   5    6.54    0.26
  -5   2   5    6.32    0.23
   4  -2  -5    3.91    0.11
   4  -2  -5    3.90    0.11
   4  -2  -5    3.75    0.11
   4  -2  -5    4.13    0.11
   4  -2  -5    3.71    0.17
   4  -2  -5    3.87    0.11
   4  -2  -5    4.12    0.11
  -4   2   5    3.60    0.18
  -4   2   5    3.76    0.22
  -4   2   5    3.51    0.10
  -4   2   5    3.72    0.11
  -4   2   5    3.84    0.17
  -4   2   5    3.73    0.16
  -4   2   5    3.57    0.11
   3  -2  -5    0.05    0.02
   3  -2  -5    0.01    0.02
   3  -2  -5    0.04    0.03
   3  -2  -5    0.03    0.03
   3  -2  -5    0.04    0.03
   3  -2  -5    0.02    0.03
  -3   2   5    0.04    0.04
  -3   2   5    0.06    0.03
  -3   2   5    0.04    0.02
  -3   2   5    0.06    0.02
  -3   2   5    0.02    0.05
  -3   2   5    0.06    0.03
  -3   2   5    0.05    0.03
   2  -2  -5   25.93    0.52
   2  -2  -5   26.17    0.58
   2  -2  -5   25.47    0.52
   2  -2  -5   25.29    0.53
  -2   2   5   24.90    0.58
  -2   2   5   25.58    0.54
  -2   2   5   25.22    0.51
  -2   2   5   24.78    0.52
   1  -2  -5  115.80    2.08
   1  -2  -5  115.74    2.06
   1  -2  -5  115.87    2.16
   1  -2  -5  114.08    2.05
  -1   2   5  112.49    2.17
  -1   2   5  113.43    2.08
  -1   2   5  112.40    2.08
  -1   2   5  114.70    2.01
   0  -2  -5    1.13    0.09
   0  -2  -5    1.15    0.09
   0  -2  -5    1.03    0.08
   0   2   5    1.26    0.09
   0   2   5    1.02    0.06
   0   2   5    1.12    0.09
   0   2   5    1.03    0.08
   0   2   5    1.13    0.08
  -1  -2  -5    0.22    0.05
  -1  -2  -5    0.32    0.06
  -1  -2  -5    0.31    0.06
   1   2   5    0.32    0.06
   1   2   5    0.29    0.06
   1   2   5    0.29    0.06
  -2  -2  -5   39.88    0.87
  -2  -2  -5   40.11    0.85
  -2  -2  -5   38.41    0.79
  -2  -2  -5   39.52    0.84
  -2  -2  -5   40.30    0.77
   2   2   5   41.43    0.87
   2   2   5   40.37    0.82
   2   2   5   40.53    0.85
  -3  -2  -5   19.73    0.52
  -3  -2  -5   19.57    0.43
  -3  -2  -5   19.86    0.43
  -3  -2  -5   19.32    0.49
  -3  -2  -5   20.12    0.51
   3   2   5   19.43    0.41
   3   2   5   19.05    0.51
   3   2   5   19.27    0.48
   3   2   5   19.71    0.50
  -4  -2  -5   22.73    0.57
  -4  -2  -5   23.56    0.53
  -4  -2  -5   22.88    0.58
  -4  -2  -5   22.85    0.52
  -4  -2  -5   24.03    0.61
   4   2   5   22.20    0.56
   4   2   5   23.63    0.59
  -5  -2  -5    0.72    0.08
  -5  -2  -5    0.90    0.12
  -5  -2  -5    0.64    0.09
  -5  -2  -5    0.65    0.08
  -5  -2  -5    0.70    0.10
   5   2   5    0.66    0.11
   5   2   5    0.64    0.10
  -6  -2  -5    1.64    0.16
  -6  -2  -5    1.50    0.16
  -6  -2  -5    1.37    0.16
  -6  -2  -5    1.58    0.12
  -6  -2  -5    1.30    0.13
   6   2   5    1.31    0.15
   6   2   5    1.40    0.14
  -7  -2  -5    0.51    0.10
  -7  -2  -5    0.75    0.13
  -7  -2  -5    0.89    0.13
  -7  -2  -5    0.54    0.11
   7   2   5    0.86    0.12
   7   2   5    0.82    0.12
  -8  -2  -5    1.09    0.16
  -8  -2  -5    1.24    0.16
   8   2   5    1.28    0.16
  10  -3  -5    1.27    0.17
   9  -3  -5    0.43    0.10
   8  -3  -5    9.98    0.37
  -8   3   5    9.67    0.40
  -8   3   5    9.42    0.40
   7  -3  -5    3.36    0.20
  -7   3   5    3.22    0.20
  -7   3   5    3.12    0.21
  -7   3   5    3.25    0.21
   6  -3  -5   12.50    0.40
  -6   3   5   12.52    0.40
  -6   3   5   13.21    0.43
  -6   3   5   12.91    0.43
  -6   3   5   12.94    0.57
   5  -3  -5    5.49    0.23
   5  -3  -5    5.92    0.17
  -5   3   5    5.97    0.33
  -5   3   5    5.41    0.24
  -5   3   5    5.74    0.25
  -5   3   5    5.69    0.23
   4  -3  -5    1.04    0.11
   4  -3  -5    1.04    0.06
   4  -3  -5    1.06    0.08
   4  -3  -5    0.99    0.07
   4  -3  -5    0.96    0.07
   4  -3  -5    1.38    0.06
   4  -3  -5    1.36    0.06
  -4   3   5    1.15    0.10
  -4   3   5    1.31    0.13
  -4   3   5    1.03    0.14
  -4   3   5    1.03    0.06
  -4   3   5    1.04    0.06
  -4   3   5    1.16    0.12
  -4   3   5    1.10    0.07
   3  -3  -5    2.74    0.12
   3  -3  -5    2.87    0.15
   3  -3  -5    2.89    0.12
  -3   3   5    2.63    0.11
  -3   3   5    2.93    0.14
  -3   3   5    2.82    0.11
  -3   3   5    2.90    0.22
  -3   3   5    2.76    0.15
   2  -3  -5   25.72    0.61
   2  -3  -5   26.42    0.56
   2  -3  -5   26.77    0.55
  -2   3   5   25.23    0.56
  -2   3   5   27.21    0.54
  -2   3   5   25.50    0.61
  -2   3   5   24.83    0.59
  -2   3   5   25.40    0.55
  -2   3   5   25.56    0.55
   1  -3  -5   44.92    0.91
   1  -3  -5   45.98    0.92
   1  -3  -5   45.72    0.91
   1  -3  -5   45.49    0.96
  -1   3   5   45.38    0.87
  -1   3   5   46.40    0.88
  -1   3   5   45.05    0.91
  -1   3   5   44.75    0.95
  -1   3   5   46.57    0.93
   0  -3  -5   73.17    1.39
   0  -3  -5   71.14    1.38
   0  -3  -5   70.71    1.44
   0  -3  -5   72.56    1.38
   0   3   5   71.50    1.31
   0   3   5   72.79    1.39
   0   3   5   73.60    1.34
   0   3   5   71.58    1.42
   0   3   5   70.69    1.43
  -1  -3  -5   20.33    0.51
  -1  -3  -5   20.91    0.50
  -1  -3  -5   20.77    0.53
   1   3   5   21.08    0.49
   1   3   5   20.52    0.51
   1   3   5   20.62    0.52
  -2  -3  -5    8.85    0.30
  -2  -3  -5    9.04    0.23
  -2  -3  -5    8.82    0.31
  -2  -3  -5    9.00    0.30
   2   3   5    9.40    0.30
   2   3   5    8.94    0.30
   2   3   5    9.18    0.31
  -3  -3  -5    6.14    0.25
  -3  -3  -5    5.51    0.24
  -3  -3  -5    5.62    0.24
  -3  -3  -5    5.78    0.19
   3   3   5    5.49    0.24
   3   3   5    5.43    0.23
   3   3   5    5.86    0.25
  -4  -3  -5    5.41    0.24
  -4  -3  -5    5.66    0.24
  -4  -3  -5    5.37    0.20
  -4  -3  -5    5.87    0.26
   4   3   5    5.40    0.25
   4   3   5    5.09    0.23
   4   3   5    5.62    0.25
  -5  -3  -5    8.23    0.33
  -5  -3  -5    8.40    0.32
  -5  -3  -5    8.43    0.33
  -5  -3  -5    8.94    0.29
   5   3   5    7.78    0.32
   5   3   5    8.46    0.31
   5   3   5    7.80    0.32
  -6  -3  -5    0.07    0.05
  -6  -3  -5   -0.04    0.05
  -6  -3  -5    0.04    0.06
  -6  -3  -5    0.01    0.06
   6   3   5   -0.02    0.07
   6   3   5    0.06    0.06
  -7  -3  -5    1.45    0.17
  -7  -3  -5    1.39    0.17
  -7  -3  -5    1.52    0.18
   7   3   5    1.79    0.19
   7   3   5    1.32    0.15
  -8  -3  -5    0.07    0.09
  -8  -3  -5    0.03    0.08
   8   3   5    0.02    0.08
  11  -4  -5    3.34    0.25
  10  -4  -5    8.59    0.39
   9  -4  -5    0.32    0.10
  -9   4   5    0.22    0.10
   8  -4  -5    0.61    0.12
  -8   4   5    0.62    0.13
  -8   4   5    0.72    0.13
   7  -4  -5   10.84    0.40
  -7   4   5   11.72    0.58
  -7   4   5   11.39    0.42
  -7   4   5   11.02    0.41
   6  -4  -5   11.53    0.39
  -6   4   5   11.55    0.40
  -6   4   5   11.31    0.56
  -6   4   5   10.87    0.37
   5  -4  -5    1.84    0.14
   5  -4  -5    1.65    0.11
   5  -4  -5    1.77    0.08
   5  -4  -5    1.72    0.09
  -5   4   5    1.61    0.13
  -5   4   5    1.64    0.16
  -5   4   5    1.77    0.20
  -5   4   5    1.71    0.13
  -5   4   5    1.61    0.08
  -5   4   5    1.66    0.08
   4  -4  -5   22.35    0.60
   4  -4  -5   23.92    0.50
   4  -4  -5   23.97    0.50
   4  -4  -5   23.56    0.58
  -4   4   5   24.49    0.61
  -4   4   5   23.54    0.49
  -4   4   5   24.14    0.57
  -4   4   5   23.92    0.60
  -4   4   5   23.84    0.93
  -4   4   5   24.21    0.51
  -4   4   5   23.64    0.50
   3  -4  -5   12.18    0.31
   3  -4  -5   12.02    0.37
   3  -4  -5   11.72    0.31
  -3   4   5   12.13    0.57
  -3   4   5   11.51    0.31
  -3   4   5   12.41    0.37
  -3   4   5   12.06    0.30
  -3   4   5   11.56    0.32
  -3   4   5   11.78    0.31
   2  -4  -5   42.20    0.88
   2  -4  -5   43.50    0.89
   2  -4  -5   44.47    0.95
  -2   4   5   42.50    0.86
  -2   4   5   41.79    0.94
  -2   4   5   43.74    0.95
  -2   4   5   44.42    0.90
  -2   4   5   43.84    0.89
  -2   4   5   44.19    0.86
   1  -4  -5   24.86    0.58
   1  -4  -5   25.74    0.59
   1  -4  -5   25.66    0.54
   1  -4  -5   25.47    0.62
  -1   4   5   25.61    0.52
  -1   4   5   26.43    0.59
  -1   4   5   25.48    0.57
  -1   4   5   25.05    0.59
  -1   4   5   25.25    0.61
   0  -4  -5    0.86    0.11
   0  -4  -5    0.82    0.10
   0  -4  -5    0.82    0.10
   0   4   5    0.88    0.10
   0   4   5    1.05    0.11
   0   4   5    0.96    0.10
   0   4   5    1.02    0.11
  -1  -4  -5    1.40    0.12
  -1  -4  -5    1.40    0.12
  -1  -4  -5    1.02    0.12
   1   4   5    1.17    0.11
   1   4   5    0.99    0.11
   1   4   5    1.30    0.13
  -2  -4  -5   17.87    0.49
  -2  -4  -5   18.25    0.51
  -2  -4  -5   17.80    0.49
   2   4   5   17.32    0.50
   2   4   5   18.91    0.51
   2   4   5   18.28    0.48
  -3  -4  -5    8.20    0.31
  -3  -4  -5    7.82    0.31
  -3  -4  -5    8.62    0.31
  -3  -4  -5    7.32    0.24
   3   4   5    8.22    0.32
   3   4   5    7.20    0.28
   3   4   5    7.68    0.30
  -4  -4  -5   15.91    0.42
  -4  -4  -5   16.84    0.49
  -4  -4  -5   16.24    0.49
  -4  -4  -5   16.17    0.50
   4   4   5   16.40    0.49
   4   4   5   15.05    0.49
   4   4   5   15.87    0.47
  -5  -4  -5   -0.08    0.06
  -5  -4  -5   -0.01    0.06
  -5  -4  -5   -0.03    0.06
  -5  -4  -5    0.04    0.05
   5   4   5    0.05    0.06
   5   4   5    0.07    0.07
   5   4   5    0.00    0.07
  -6  -4  -5    0.76    0.13
  -6  -4  -5    0.63    0.13
   6   4   5    0.73    0.13
   6   4   5    0.90    0.13
  -7  -4  -5    0.02    0.08
  -7  -4  -5   -0.02    0.08
   7   4   5    0.09    0.08
   7   4   5    0.03    0.08
   8   4   5    2.13    0.22
  10  -5  -5    0.00    0.08
 -10   5   5   -0.05    0.08
   9  -5  -5    0.67    0.14
  -9   5   5    0.94    0.16
  -9   5   5    0.72    0.14
   8  -5  -5    5.08    0.28
  -8   5   5    6.03    0.32
  -8   5   5    5.61    0.30
   7  -5  -5    1.32    0.16
  -7   5   5    0.82    0.14
  -7   5   5    1.21    0.23
  -7   5   5    1.25    0.16
   6  -5  -5    2.56    0.19
  -6   5   5    2.61    0.19
  -6   5   5    2.25    0.18
  -6   5   5    2.67    0.26
   5  -5  -5    2.20    0.11
   5  -5  -5    2.31    0.17
   5  -5  -5    2.18    0.11
  -5   5   5    2.26    0.11
  -5   5   5    2.31    0.16
  -5   5   5    2.21    0.16
  -5   5   5    2.26    0.24
  -5   5   5    2.07    0.10
   4  -5  -5    5.91    0.20
   4  -5  -5    5.99    0.27
   4  -5  -5    5.75    0.20
  -4   5   5    5.76    0.20
  -4   5   5    5.58    0.20
  -4   5   5    5.82    0.19
  -4   5   5    5.53    0.38
  -4   5   5    5.43    0.23
  -4   5   5    5.79    0.26
   3  -5  -5   30.10    0.68
   3  -5  -5   31.48    0.68
   3  -5  -5   32.39    0.77
  -3   5   5   30.61    0.76
  -3   5   5   32.40    0.76
  -3   5   5   31.35    0.66
  -3   5   5   31.51    0.69
  -3   5   5   31.44    0.68
  -3   5   5   29.54    1.20
   2  -5  -5   20.97    0.55
   2  -5  -5   19.73    0.50
   2  -5  -5   20.59    0.50
  -2   5   5   18.41    0.53
  -2   5   5   20.59    0.50
  -2   5   5   20.48    0.48
  -2   5   5   20.14    0.51
  -2   5   5   20.44    0.54
   1  -5  -5    0.95    0.11
   1  -5  -5    0.91    0.11
   1  -5  -5    0.90    0.11
  -1   5   5    1.06    0.12
  -1   5   5    1.01    0.11
  -1   5   5    1.09    0.11
  -1   5   5    1.00    0.12
   0  -5  -5   14.01    0.41
   0  -5  -5   13.43    0.41
   0  -5  -5   15.06    0.44
   0   5   5   14.51    0.43
   0   5   5   14.00    0.41
   0   5   5   13.69    0.40
   0   5   5   13.62    0.42
  -1  -5  -5    0.55    0.10
  -1  -5  -5    0.57    0.10
  -1  -5  -5    0.57    0.10
   1   5   5    0.54    0.10
   1   5   5    0.66    0.11
   1   5   5    0.62    0.09
  -2  -5  -5    9.22    0.34
  -2  -5  -5    9.50    0.35
  -2  -5  -5    8.71    0.33
   2   5   5    9.58    0.35
   2   5   5    8.91    0.32
   2   5   5    9.12    0.34
  -3  -5  -5    0.26    0.08
  -3  -5  -5    0.21    0.08
  -3  -5  -5    0.27    0.09
  -3  -5  -5    0.17    0.06
   3   5   5    0.09    0.06
   3   5   5    0.29    0.09
   3   5   5    0.28    0.09
  -4  -5  -5    7.70    0.28
  -4  -5  -5    7.80    0.33
  -4  -5  -5    7.89    0.34
  -4  -5  -5    7.87    0.33
   4   5   5    7.36    0.31
   4   5   5    7.19    0.32
   4   5   5    6.90    0.33
  -5  -5  -5    0.32    0.10
  -5  -5  -5    0.25    0.09
  -5  -5  -5    0.37    0.10
   5   5   5    0.31    0.10
   5   5   5    0.28    0.11
   5   5   5    0.41    0.10
  -6  -5  -5    1.36    0.17
  -6  -5  -5    1.04    0.16
   6   5   5    1.46    0.19
   6   5   5    1.19    0.16
   6   5   5    1.30    0.18
  -7  -5  -5    2.34    0.23
  -7  -5  -5    1.87    0.21
   7   5   5    1.89    0.20
   7   5   5    1.52    0.19
  10  -6  -5    0.12    0.09
   9  -6  -5    2.46    0.25
  -9   6   5    2.39    0.25
  -9   6   5    2.10    0.23
   8  -6  -5    0.99    0.16
  -8   6   5    0.93    0.16
  -8   6   5    0.78    0.15
   7  -6  -5   12.95    0.48
  -7   6   5   12.67    0.48
  -7   6   5   13.02    0.70
  -7   6   5   14.03    0.49
   6  -6  -5    1.94    0.20
  -6   6   5    1.84    0.19
  -6   6   5    1.93    0.19
  -6   6   5    2.00    0.25
   5  -6  -5    1.74    0.11
   5  -6  -5    1.78    0.12
   5  -6  -5    1.60    0.17
  -5   6   5    1.68    0.11
  -5   6   5    2.05    0.26
  -5   6   5    1.70    0.15
  -5   6   5    1.67    0.11
  -5   6   5    1.64    0.17
  -5   6   5    1.82    0.11
   4  -6  -5    1.90    0.16
   4  -6  -5    1.92    0.13
   4  -6  -5    2.12    0.13
  -4   6   5    2.10    0.13
  -4   6   5    2.08    0.26
  -4   6   5    2.14    0.15
  -4   6   5    2.09    0.16
  -4   6   5    2.28    0.13
  -4   6   5    2.01    0.13
   3  -6  -5    2.95    0.16
   3  -6  -5    2.84    0.16
   3  -6  -5    3.38    0.20
  -3   6   5    2.74    0.29
  -3   6   5    3.23    0.19
  -3   6   5    3.23    0.19
  -3   6   5    3.22    0.16
  -3   6   5    2.84    0.16
  -3   6   5    3.17    0.16
   2  -6  -5   16.27    0.45
   2  -6  -5   15.97    0.45
   2  -6  -5   16.62    0.50
  -2   6   5   16.66    0.49
  -2   6   5   15.82    0.49
  -2   6   5   15.86    0.46
  -2   6   5   16.73    0.46
  -2   6   5   16.74    0.44
   1  -6  -5   10.12    0.34
   1  -6  -5   10.45    0.37
   1  -6  -5   10.67    0.35
  -1   6   5    9.91    0.36
  -1   6   5   10.09    0.35
  -1   6   5   10.16    0.33
  -1   6   5   10.32    0.35
   0  -6  -5    5.34    0.26
   0  -6  -5    5.32    0.25
   0  -6  -5    4.95    0.24
   0   6   5    5.08    0.24
   0   6   5    5.00    0.25
   0   6   5    5.85    0.25
   0   6   5    5.21    0.25
  -1  -6  -5    0.04    0.06
  -1  -6  -5    0.16    0.07
  -1  -6  -5    0.07    0.07
   1   6   5    0.11    0.07
   1   6   5    0.15    0.07
   1   6   5    0.02    0.06
  -2  -6  -5    5.06    0.26
  -2  -6  -5    4.89    0.26
  -2  -6  -5    5.40    0.27
   2   6   5    5.62    0.26
   2   6   5    4.76    0.26
   2   6   5    4.41    0.25
  -3  -6  -5    9.34    0.37
  -3  -6  -5    9.08    0.37
  -3  -6  -5    9.00    0.36
   3   6   5    9.33    0.36
   3   6   5    9.17    0.38
   3   6   5    9.14    0.37
  -4  -6  -5    0.66    0.13
  -4  -6  -5    0.61    0.13
  -4  -6  -5    0.55    0.12
   4   6   5    0.67    0.12
   4   6   5    0.40    0.12
   4   6   5    0.35    0.10
  -5  -6  -5    0.29    0.11
  -5  -6  -5    0.06    0.09
  -5  -6  -5    0.27    0.10
   5   6   5    0.37    0.12
   5   6   5    0.37    0.11
   5   6   5    0.20    0.09
  -6  -6  -5    0.25    0.11
  -6  -6  -5    0.13    0.09
   6   6   5    0.19    0.09
   6   6   5    0.25    0.11
   6   6   5    0.15    0.11
   9  -7  -5    1.33    0.19
  -9   7   5    1.46    0.21
  -9   7   5    1.36    0.20
   8  -7  -5    1.03    0.17
  -8   7   5    1.05    0.17
  -8   7   5    1.20    0.18
   7  -7  -5    0.14    0.08
  -7   7   5    0.03    0.07
  -7   7   5    0.22    0.09
  -7   7   5    0.01    0.13
   6  -7  -5   12.62    0.48
  -6   7   5   12.59    0.72
  -6   7   5   13.65    0.48
  -6   7   5   13.01    0.46
   5  -7  -5    1.31    0.12
   5  -7  -5    1.42    0.17
   5  -7  -5    1.23    0.12
  -5   7   5    1.33    0.15
  -5   7   5    1.57    0.18
  -5   7   5    1.57    0.30
  -5   7   5    1.41    0.11
   4  -7  -5    4.05    0.25
   4  -7  -5    3.75    0.19
   4  -7  -5    4.08    0.20
  -4   7   5    4.15    0.19
  -4   7   5    3.74    0.38
  -4   7   5    4.12    0.20
  -4   7   5    3.96    0.23
  -4   7   5    3.98    0.24
  -4   7   5    3.90    0.19
  -4   7   5    4.06    0.20
   3  -7  -5    5.37    0.27
   3  -7  -5    5.70    0.25
   3  -7  -5    5.76    0.24
  -3   7   5    5.64    0.46
  -3   7   5    5.83    0.27
  -3   7   5    5.69    0.24
  -3   7   5    5.84    0.25
  -3   7   5    5.83    0.24
  -3   7   5    5.51    0.28
   2  -7  -5    0.50    0.10
   2  -7  -5    0.39    0.10
   2  -7  -5    0.57    0.10
  -2   7   5    0.51    0.10
  -2   7   5    0.68    0.12
  -2   7   5    0.59    0.10
  -2   7   5    0.58    0.11
  -2   7   5    0.59    0.11
   1  -7  -5    4.29    0.23
   1  -7  -5    4.79    0.25
   1  -7  -5    4.42    0.24
  -1   7   5    4.49    0.25
  -1   7   5    4.61    0.23
  -1   7   5    4.51    0.24
  -1   7   5    4.69    0.24
   0  -7  -5    0.13    0.08
   0  -7  -5    0.04    0.07
   0  -7  -5    0.01    0.06
   0   7   5    0.00    0.06
   0   7   5    0.18    0.07
   0   7   5    0.02    0.07
   0   7   5    0.11    0.08
  -1  -7  -5    8.82    0.37
  -1  -7  -5    9.15    0.37
  -1  -7  -5    9.73    0.38
   1   7   5    9.32    0.36
   1   7   5    9.68    0.38
   1   7   5    9.65    0.38
   1   7   5    8.90    0.37
  -2  -7  -5    0.92    0.14
  -2  -7  -5    0.73    0.13
  -2  -7  -5    0.82    0.14
   2   7   5    0.94    0.14
   2   7   5    0.82    0.14
   2   7   5    0.80    0.14
  -3  -7  -5    0.26    0.10
  -3  -7  -5    0.43    0.12
  -3  -7  -5    0.21    0.10
   3   7   5    0.50    0.12
   3   7   5    0.17    0.09
   3   7   5    0.33    0.10
  -4  -7  -5    0.67    0.14
  -4  -7  -5    0.76    0.14
  -4  -7  -5    0.80    0.15
   4   7   5    0.78    0.14
   4   7   5    0.68    0.14
   4   7   5    0.70    0.14
  -5  -7  -5    1.99    0.23
  -5  -7  -5    1.52    0.20
  -5  -7  -5    1.93    0.21
   5   7   5    1.94    0.23
   5   7   5    1.47    0.20
  -9   8   5    0.22    0.10
  -9   8   5    0.41    0.14
   8  -8  -5    1.40    0.20
  -8   8   5    1.34    0.19
  -8   8   5    1.40    0.19
   7  -8  -5    0.29    0.11
  -7   8   5    0.41    0.12
  -7   8   5    0.34    0.11
  -7   8   5    0.46    0.19
   6  -8  -5    0.22    0.09
  -6   8   5    0.04    0.14
  -6   8   5    0.17    0.08
  -6   8   5   -0.06    0.06
   5  -8  -5    0.87    0.15
   5  -8  -5    1.28    0.14
  -5   8   5    1.05    0.27
  -5   8   5    1.15    0.14
  -5   8   5    1.22    0.16
   4  -8  -5    2.70    0.18
   4  -8  -5    3.07    0.19
   4  -8  -5    3.01    0.22
  -4   8   5    3.07    0.36
  -4   8   5    2.71    0.21
  -4   8   5    3.15    0.19
  -4   8   5    3.05    0.18
  -4   8   5    3.25    0.19
  -4   8   5    3.09    0.21
   3  -8  -5   14.75    0.46
   3  -8  -5   15.83    0.53
   3  -8  -5   14.95    0.47
  -3   8   5   15.19    0.45
  -3   8   5   15.47    0.47
  -3   8   5   14.60    0.84
  -3   8   5   14.82    0.47
  -3   8   5   14.68    0.49
  -3   8   5   14.66    0.52
   2  -8  -5    0.31    0.09
   2  -8  -5    0.39    0.10
   2  -8  -5    0.68    0.12
  -2   8   5    0.38    0.09
  -2   8   5    0.40    0.10
  -2   8   5    0.43    0.11
  -2   8   5    0.43    0.10
  -2   8   5    0.59    0.12
   1  -8  -5    0.42    0.11
   1  -8  -5    0.46    0.11
   1  -8  -5    0.46    0.11
  -1   8   5    0.65    0.13
  -1   8   5    0.39    0.10
  -1   8   5    0.70    0.12
  -1   8   5    0.62    0.13
  -1   8   5    0.46    0.10
   0  -8  -5    1.83    0.19
   0  -8  -5    2.04    0.20
   0  -8  -5    1.53    0.18
   0   8   5    1.56    0.18
   0   8   5    1.83    0.19
   0   8   5    1.86    0.19
   0   8   5    2.17    0.22
  -1  -8  -5    0.73    0.14
  -1  -8  -5    0.37    0.11
  -1  -8  -5    0.79    0.14
   1   8   5    0.59    0.13
   1   8   5    0.63    0.12
   1   8   5    0.59    0.13
   1   8   5    0.58    0.12
  -2  -8  -5    1.63    0.19
  -2  -8  -5    2.17    0.23
  -2  -8  -5    1.82    0.20
   2   8   5    2.02    0.20
   2   8   5    2.25    0.23
   2   8   5    1.47    0.19
  -3  -8  -5    1.00    0.17
  -3  -8  -5    0.97    0.16
  -3  -8  -5    0.71    0.14
   3   8   5    0.90    0.16
   3   8   5    0.82    0.15
   3   8   5    0.80    0.14
  -4  -8  -5    0.44    0.12
  -4  -8  -5    0.61    0.14
  -8   9   5    0.56    0.14
  -8   9   5    0.54    0.14
   7  -9  -5    1.17    0.19
  -7   9   5    1.26    0.32
  -7   9   5    1.49    0.20
  -7   9   5    1.40    0.18
   6  -9  -5    0.23    0.11
  -6   9   5    0.23    0.19
  -6   9   5    0.26    0.11
   5  -9  -5    0.88    0.15
  -5   9   5    0.69    0.26
  -5   9   5    0.78    0.14
   4  -9  -5    3.51    0.22
   4  -9  -5    3.62    0.22
   4  -9  -5    3.26    0.25
  -4   9   5    3.70    0.42
  -4   9   5    3.61    0.22
  -4   9   5    3.31    0.26
  -4   9   5    3.93    0.21
  -4   9   5    3.79    0.22
  -4   9   5    4.03    0.25
   3  -9  -5    1.10    0.16
   3  -9  -5    1.17    0.16
   3  -9  -5    1.01    0.15
  -3   9   5    1.06    0.14
  -3   9   5    1.07    0.15
  -3   9   5    0.74    0.15
  -3   9   5    1.27    0.31
  -3   9   5    1.15    0.15
  -3   9   5    1.09    0.16
   2  -9  -5    8.26    0.39
   2  -9  -5    8.48    0.36
   2  -9  -5    8.97    0.37
  -2   9   5    7.98    0.63
  -2   9   5    8.50    0.40
  -2   9   5    8.52    0.36
  -2   9   5    7.96    0.35
  -2   9   5    8.60    0.36
  -2   9   5    8.82    0.35
   1  -9  -5    1.11    0.16
   1  -9  -5    0.74    0.14
   1  -9  -5    0.99    0.16
  -1   9   5    0.96    0.14
  -1   9   5    1.30    0.18
  -1   9   5    0.81    0.14
  -1   9   5    0.96    0.15
  -1   9   5    1.23    0.16
   0  -9  -5    0.03    0.08
   0  -9  -5    0.02    0.08
   0  -9  -5    0.10    0.09
   0   9   5    0.09    0.09
   0   9   5    0.07    0.09
   0   9   5   -0.01    0.06
   0   9   5   -0.04    0.07
  -1  -9  -5    2.63    0.26
  -1  -9  -5    2.83    0.23
  -1  -9  -5    2.59    0.22
   1   9   5    2.52    0.25
   1   9   5    2.19    0.22
   1   9   5    3.22    0.25
   1   9   5    3.15    0.25
  -2  -9  -5    2.00    0.23
  -2  -9  -5    1.82    0.21
  -2  -9  -5    1.94    0.22
   2   9   5    1.95    0.23
   2   9   5    1.79    0.22
   2   9   5    1.58    0.21
  -3  -9  -5    0.06    0.09
  -7  10   5    0.59    0.26
  -7  10   5    1.06    0.18
  -6  10   5    3.26    0.43
  -6  10   5    3.09    0.24
   5 -10  -5    1.03    0.18
  -5  10   5    1.11    0.33
  -5  10   5    1.25    0.18
   4 -10  -5    0.11    0.09
   4 -10  -5    0.04    0.08
   4 -10  -5    0.14    0.10
  -4  10   5    0.14    0.08
  -4  10   5    0.25    0.22
  -4  10   5    0.13    0.10
  -4  10   5    0.03    0.07
   3 -10  -5    0.99    0.15
   3 -10  -5    1.27    0.17
   3 -10  -5    0.90    0.17
  -3  10   5    1.09    0.32
  -3  10   5    1.20    0.17
  -3  10   5    0.66    0.15
  -3  10   5    0.80    0.13
  -3  10   5    1.09    0.16
  -3  10   5    0.96    0.15
   2 -10  -5    0.48    0.13
   2 -10  -5    0.41    0.13
   2 -10  -5    0.32    0.12
  -2  10   5    0.53    0.15
  -2  10   5    0.36    0.10
  -2  10   5    0.52    0.12
  -2  10   5    0.44    0.13
  -2  10   5    0.58    0.14
  -2  10   5    0.51    0.25
   1 -10  -5    1.86    0.22
   1 -10  -5    1.32    0.19
   1 -10  -5    1.74    0.22
  -1  10   5    1.69    0.39
  -1  10   5    1.50    0.20
  -1  10   5    1.52    0.20
  -1  10   5    1.48    0.19
  -1  10   5    1.51    0.21
  -1  10   5    1.63    0.19
   0 -10  -5    0.49    0.13
   0 -10  -5    0.43    0.13
   0 -10  -5    0.39    0.13
   0  10   5    0.58    0.15
   0  10   5    0.23    0.11
   0  10   5    0.47    0.14
   0  10   5    0.35    0.12
  -1 -10  -5   -0.03    0.08
   1  10   5   -0.04    0.09
  -2 -10  -5    1.45    0.20
   4 -11  -5    0.12    0.09
   3 -11  -5    0.13    0.11
   3 -11  -5    0.44    0.12
  -3  11   5    0.44    0.12
  -3  11   5    0.35    0.12
  -2  11   5    1.16    0.19
   1  12  -6    0.74    0.20
   0  12  -6    2.36    0.32
  -1  12  -6    0.33    0.13
  -1  12  -6    1.12    0.26
  -1  12  -6    0.29    0.13
  -1  12  -6    0.39    0.14
   1 -12   6    0.60    0.15
   1 -12   6    0.40    0.13
  -2  12  -6    2.51    0.26
  -2  12  -6    3.62    0.40
  -2  12  -6    2.72    0.28
  -2  12  -6    3.21    0.26
   2 -12   6    2.90    0.24
   2 -12   6    2.76    0.27
  -3  12  -6   -0.04    0.07
  -3  12  -6    0.05    0.10
  -3  12  -6    0.13    0.09
  -3  12  -6    0.05    0.09
  -3  12  -6    0.47    0.17
  -3  12  -6   -0.13    0.08
   3 -12   6    0.07    0.09
   3 -12   6    0.03    0.10
  -4  12  -6   -0.08    0.08
  -4  12  -6    0.08    0.08
  -4  12  -6    0.04    0.10
  -4  12  -6    0.08    0.10
   4 -12   6    0.03    0.08
   4 -12   6    0.04    0.09
  -5  12  -6    1.13    0.18
  -5  12  -6    1.10    0.18
  -5  12  -6    0.99    0.17
  -5  12  -6    0.82    0.17
   5 -12   6    1.12    0.18
   3  11  -6    0.82    0.20
   2  11  -6    3.49    0.37
   2  11  -6    2.64    0.27
   2  11  -6    2.36    0.26
  -2 -11   6    2.78    0.27
  -2 -11   6    2.28    0.25
   1  11  -6    0.88    0.21
   1  11  -6    0.16    0.10
   1  11  -6    0.31    0.12
   1  11  -6    0.32    0.13
  -1 -11   6    0.24    0.11
  -1 -11   6    0.33    0.12
   0  11  -6    0.05    0.09
   0  11  -6    0.08    0.10
   0  11  -6    0.00    0.07
   0  11  -6    0.46    0.17
   0 -11   6    0.13    0.09
   0 -11   6    0.09    0.10
  -1  11  -6    0.45    0.17
  -1  11  -6    0.11    0.09
  -1  11  -6    0.23    0.11
  -1  11  -6    0.24    0.10
  -1  11  -6    0.18    0.09
   1 -11   6    0.17    0.10
   1 -11   6    0.33    0.11
  -2  11  -6    0.45    0.13
  -2  11  -6    0.30    0.11
  -2  11  -6    0.73    0.22
  -2  11  -6    0.41    0.12
   2 -11   6    0.36    0.12
  -3  11  -6    2.03    0.36
  -3  11  -6    1.36    0.19
  -3  11  -6    1.55    0.19
  -3  11  -6    1.52    0.19
  -3  11  -6    1.76    0.21
   3 -11   6    1.30    0.18
  -4  11  -6    3.35    0.25
  -4  11  -6    3.24    0.25
  -4  11  -6    3.43    0.41
  -4  11  -6    3.32    0.25
  -4  11  -6    3.08    0.24
  -4  11  -6    3.46    0.25
   4 -11   6    3.59    0.24
   4 -11   6    3.28    0.24
  -5  11  -6    0.94    0.24
  -5  11  -6    0.74    0.15
  -5  11  -6    0.38    0.12
  -5  11  -6    0.60    0.13
  -5  11  -6    0.42    0.12
  -5  11  -6    0.65    0.14
   5 -11   6    0.30    0.11
   5 -11   6    0.54    0.13
  -6  11  -6    0.60    0.15
  -6  11  -6    0.50    0.13
  -6  11  -6    0.43    0.12
   6 -11   6    0.26    0.11
   6 -11   6    0.70    0.14
   4  10  -6    0.74    0.16
   4  10  -6    0.92    0.18
   4  10  -6    0.78    0.15
  -4 -10   6    0.67    0.15
  -4 -10   6    0.89    0.16
   3  10  -6    2.68    0.31
   3  10  -6    1.67    0.19
   3  10  -6    1.60    0.21
   3  10  -6    1.56    0.20
  -3 -10   6    2.23    0.23
  -3 -10   6    2.28    0.24
   2  10  -6    0.86    0.15
   2  10  -6    0.92    0.16
   2  10  -6    1.05    0.17
   2  10  -6    1.67    0.30
  -2 -10   6    0.96    0.16
  -2 -10   6    0.91    0.16
   1  10  -6    2.60    0.22
   1  10  -6    2.32    0.22
   1  10  -6    1.92    0.21
   1  10  -6    3.02    0.33
  -1 -10   6    2.59    0.21
  -1 -10   6    2.23    0.23
   0  10  -6    0.02    0.08
   0  10  -6   -0.04    0.07
   0  10  -6   -0.01    0.08
   0  10  -6    0.18    0.14
   0 -10   6   -0.04    0.08
  -1  10  -6    0.01    0.08
  -1  10  -6    0.17    0.13
  -1  10  -6    0.06    0.08
  -1  10  -6   -0.01    0.08
  -1  10  -6    0.01    0.08
  -1  10  -6    0.05    0.09
   1 -10   6    0.00    0.08
  -2  10  -6   10.13    0.67
  -2  10  -6   10.27    0.47
  -2  10  -6    9.57    0.41
  -2  10  -6    9.96    0.41
  -2  10  -6    9.64    0.41
  -2  10  -6   10.41    0.41
   2 -10   6    9.45    0.40
  -3  10  -6    2.66    0.21
  -3  10  -6    3.70    0.40
  -3  10  -6    2.91    0.22
  -3  10  -6    3.02    0.22
  -3  10  -6    3.11    0.23
  -3  10  -6    3.23    0.23
  -3  10  -6    3.41    0.26
   3 -10   6    2.95    0.22
   3 -10   6    2.74    0.19
  -4  10  -6    1.14    0.18
  -4  10  -6    0.86    0.15
  -4  10  -6    1.00    0.15
  -4  10  -6    1.06    0.16
  -4  10  -6    1.11    0.15
  -4  10  -6    1.22    0.29
  -4  10  -6    1.10    0.16
   4 -10   6    1.24    0.16
   4 -10   6    0.98    0.15
  -5  10  -6    0.95    0.14
  -5  10  -6    0.86    0.16
  -5  10  -6    1.41    0.32
  -5  10  -6    0.77    0.13
  -5  10  -6    0.65    0.14
  -5  10  -6    0.70    0.13
  -5  10  -6    0.95    0.16
   5 -10   6    0.79    0.14
  -6  10  -6    2.04    0.20
  -6  10  -6    1.84    0.23
  -6  10  -6    1.64    0.19
  -6  10  -6    2.52    0.34
   6 -10   6    1.69    0.19
  -7  10  -6   -0.02    0.08
  -7  10  -6    0.15    0.21
   6   9  -6    0.23    0.11
   6   9  -6    0.09    0.09
   6   9  -6    0.45    0.13
  -6  -9   6    0.28    0.12
   5   9  -6    2.44    0.24
   5   9  -6    2.33    0.25
   5   9  -6    2.58    0.24
  -5  -9   6    2.76    0.23
  -5  -9   6    2.37    0.23
   4   9  -6    0.47    0.15
   4   9  -6    0.10    0.09
   4   9  -6    0.09    0.09
   4   9  -6    0.12    0.09
  -4  -9   6    0.07    0.08
  -4  -9   6    0.11    0.10
   3   9  -6    0.08    0.08
   3   9  -6   -0.10    0.06
   3   9  -6    0.03    0.08
   3   9  -6    0.33    0.14
  -3  -9   6   -0.10    0.07
  -3  -9   6    0.13    0.09
   2   9  -6    2.70    0.31
   2   9  -6    2.45    0.21
   2   9  -6    2.67    0.21
   2   9  -6    2.66    0.20
  -2  -9   6    2.18    0.21
  -2  -9   6    2.26    0.22
   1   9  -6   -0.01    0.07
   1   9  -6    0.22    0.09
   1   9  -6    0.15    0.10
   1   9  -6    0.29    0.16
  -1  -9   6    0.05    0.07
   0   9  -6    4.49    0.26
   0   9  -6    4.20    0.39
   0   9  -6    3.94    0.25
   0   9  -6    3.88    0.24
   0   9  -6    3.58    0.26
   0  -9   6    3.83    0.24
  -1   9  -6   19.01    0.96
  -1   9  -6   19.68    0.60
  -1   9  -6   19.69    0.67
  -1   9  -6   20.59    0.61
  -1   9  -6   19.18    0.59
   1  -9   6   19.32    0.59
   1  -9   6   19.94    0.51
  -2   9  -6    5.06    0.45
  -2   9  -6    4.98    0.27
  -2   9  -6    5.51    0.27
  -2   9  -6    5.38    0.28
  -2   9  -6    5.66    0.32
  -2   9  -6    5.34    0.28
   2  -9   6    5.08    0.27
   2  -9   6    5.43    0.24
  -3   9  -6    1.61    0.18
  -3   9  -6    1.44    0.17
  -3   9  -6    1.86    0.33
  -3   9  -6    1.62    0.17
  -3   9  -6    1.68    0.18
  -3   9  -6    1.67    0.20
   3  -9   6    1.71    0.16
   3  -9   6    1.74    0.18
  -4   9  -6    0.57    0.13
  -4   9  -6    0.21    0.08
  -4   9  -6    0.36    0.11
  -4   9  -6    0.41    0.10
  -4   9  -6    0.46    0.11
  -4   9  -6    0.38    0.10
  -4   9  -6    0.78    0.23
   4  -9   6    0.40    0.10
  -5   9  -6    1.30    0.29
  -5   9  -6    0.91    0.16
  -5   9  -6    0.96    0.14
  -5   9  -6    1.13    0.15
  -5   9  -6    0.99    0.15
  -5   9  -6    1.13    0.17
  -5   9  -6    1.10    0.15
   5  -9   6    1.18    0.15
  -6   9  -6    4.02    0.28
  -6   9  -6    4.19    0.24
  -6   9  -6    4.14    0.27
  -6   9  -6    4.13    0.24
  -6   9  -6    4.06    0.24
  -6   9  -6    3.53    0.22
  -6   9  -6    3.94    0.42
   6  -9   6    3.67    0.23
  -7   9  -6    1.83    0.39
  -7   9  -6    1.57    0.22
  -8   9  -6    0.27    0.12
   6   8  -6    0.47    0.12
   6   8  -6    0.62    0.13
   6   8  -6    0.52    0.13
  -6  -8   6    0.58    0.14
  -6  -8   6    0.48    0.12
  -6  -8   6    0.47    0.12
   5   8  -6   -0.01    0.08
   5   8  -6    0.09    0.07
   5   8  -6    0.09    0.08
  -5  -8   6   -0.01    0.07
  -5  -8   6    0.02    0.07
   4   8  -6    7.08    0.48
   4   8  -6    6.62    0.30
   4   8  -6    6.31    0.32
   4   8  -6    6.88    0.32
  -4  -8   6    7.11    0.32
  -4  -8   6    6.48    0.27
  -4  -8   6    6.26    0.31
   3   8  -6    6.15    0.44
   3   8  -6    5.93    0.30
   3   8  -6    5.67    0.30
   3   8  -6    5.80    0.28
  -3  -8   6    5.90    0.29
  -3  -8   6    5.69    0.28
   2   8  -6   -0.04    0.07
   2   8  -6    0.02    0.06
   2   8  -6    0.20    0.12
   2   8  -6    0.04    0.07
  -2  -8   6   -0.03    0.06
   1   8  -6    0.91    0.14
   1   8  -6    1.00    0.14
   1   8  -6    0.81    0.14
   1   8  -6    0.88    0.22
   1   8  -6    0.65    0.11
  -1  -8   6    1.21    0.15
   0   8  -6    1.14    0.16
   0   8  -6    1.40    0.26
   0   8  -6    1.31    0.16
   0   8  -6    1.24    0.15
   0   8  -6    1.20    0.15
   0  -8   6    1.27    0.15
   0  -8   6    1.26    0.09
  -1   8  -6    8.41    0.34
  -1   8  -6    9.13    0.40
  -1   8  -6    9.10    0.57
  -1   8  -6    9.29    0.36
  -1   8  -6    8.90    0.35
   1  -8   6    9.02    0.35
   1  -8   6    9.20    0.29
  -2   8  -6    8.74    0.57
  -2   8  -6    8.62    0.38
  -2   8  -6    8.69    0.34
  -2   8  -6    8.41    0.33
  -2   8  -6    8.78    0.34
  -2   8  -6    8.32    0.33
  -2   8  -6    8.43    0.34
   2  -8   6    8.55    0.33
  -3   8  -6    1.92    0.16
  -3   8  -6    1.98    0.18
  -3   8  -6    2.10    0.17
  -3   8  -6    2.04    0.28
  -3   8  -6    1.61    0.14
  -3   8  -6    2.02    0.16
   3  -8   6    1.81    0.17
  -4   8  -6    0.37    0.10
  -4   8  -6    0.26    0.08
  -4   8  -6    0.31    0.08
  -4   8  -6    0.29    0.16
  -4   8  -6    0.37    0.10
  -4   8  -6    0.42    0.11
  -4   8  -6    0.32    0.09
   4  -8   6    0.31    0.09
  -5   8  -6    0.15    0.09
  -5   8  -6    0.28    0.09
  -5   8  -6    0.13    0.08
  -5   8  -6    0.33    0.09
  -5   8  -6    0.59    0.21
  -5   8  -6    0.28    0.08
   5  -8   6    0.25    0.08
  -6   8  -6    1.51    0.16
  -6   8  -6    1.63    0.19
  -6   8  -6    1.60    0.33
  -6   8  -6    1.69    0.17
  -6   8  -6    1.38    0.19
  -6   8  -6    1.45    0.16
   6  -8   6    1.63    0.17
  -7   8  -6    8.78    0.70
  -7   8  -6   11.06    0.47
   7  -8   6    9.93    0.36
  -8   8  -6    0.08    0.09
   7   7  -6    0.52    0.13
  -7  -7   6    0.50    0.13
   6   7  -6    2.59    0.19
   6   7  -6    2.51    0.19
   6   7  -6    2.78    0.21
  -6  -7   6    2.67    0.19
  -6  -7   6    2.35    0.19
  -6  -7   6    2.40    0.23
   5   7  -6    2.44    0.19
   5   7  -6    2.53    0.18
   5   7  -6    2.61    0.19
  -5  -7   6    2.52    0.17
  -5  -7   6    2.89    0.19
  -5  -7   6    2.61    0.19
   4   7  -6    4.22    0.24
   4   7  -6    3.41    0.22
   4   7  -6    4.54    0.35
   4   7  -6    4.52    0.23
  -4  -7   6    3.71    0.22
  -4  -7   6    3.58    0.22
  -4  -7   6    3.94    0.20
   3   7  -6    2.71    0.28
   3   7  -6    2.61    0.19
   3   7  -6    2.39    0.18
   3   7  -6    2.24    0.19
  -3  -7   6    2.51    0.18
  -3  -7   6    2.58    0.18
   2   7  -6    7.77    0.31
   2   7  -6    8.00    0.48
   2   7  -6    7.58    0.31
   2   7  -6    7.32    0.31
   2   7  -6    7.64    0.35
  -2  -7   6    7.04    0.30
   1   7  -6    7.87    0.31
   1   7  -6    7.39    0.30
   1   7  -6    7.29    0.47
   1   7  -6    7.67    0.34
   1   7  -6    7.79    0.32
  -1  -7   6    8.03    0.31
   0   7  -6   12.29    0.40
   0   7  -6   12.24    0.45
   0   7  -6   12.72    0.65
   0   7  -6   12.09    0.40
   0   7  -6   11.96    0.40
   0  -7   6   12.15    0.31
   0  -7   6   12.32    0.40
  -1   7  -6    3.08    0.30
  -1   7  -6    3.21    0.19
  -1   7  -6    2.93    0.19
  -1   7  -6    3.48    0.22
  -1   7  -6    3.30    0.19
   1  -7   6    3.13    0.19
  -2   7  -6    0.78    0.11
  -2   7  -6    0.85    0.13
  -2   7  -6    0.84    0.11
  -2   7  -6    0.95    0.12
  -2   7  -6    1.03    0.13
  -2   7  -6    1.13    0.23
   2  -7   6    0.90    0.12
  -3   7  -6   12.51    0.46
  -3   7  -6   13.89    0.42
  -3   7  -6   13.34    0.72
  -3   7  -6   13.52    0.41
  -3   7  -6   12.80    0.41
   3  -7   6   13.14    0.41
  -4   7  -6    7.28    0.33
  -4   7  -6    7.51    0.28
  -4   7  -6    6.78    0.50
  -4   7  -6    6.61    0.28
  -4   7  -6    7.29    0.29
   4  -7   6    6.64    0.28
  -5   7  -6    8.35    0.31
  -5   7  -6    8.35    0.32
  -5   7  -6    7.78    0.57
  -5   7  -6    8.59    0.36
  -5   7  -6    8.35    0.37
   5  -7   6    8.37    0.32
  -6   7  -6    3.53    0.25
  -6   7  -6    3.64    0.20
  -6   7  -6    3.52    0.20
  -6   7  -6    3.68    0.40
  -6   7  -6    3.49    0.23
   6  -7   6    3.79    0.21
  -7   7  -6    0.52    0.12
  -7   7  -6    0.54    0.11
  -7   7  -6    0.42    0.10
  -7   7  -6    0.58    0.13
   7  -7   6    0.70    0.11
  -8   7  -6    2.37    0.25
  -9   7  -6    0.28    0.12
  -8  -6   6    0.08    0.09
  -8  -6   6   -0.01    0.07
   7   6  -6    0.36    0.10
  -7  -6   6    0.18    0.10
  -7  -6   6    0.39    0.09
   6   6  -6    4.24    0.24
   6   6  -6    4.36    0.23
   6   6  -6    3.94    0.21
  -6  -6   6    4.22    0.22
  -6  -6   6    4.09    0.23
  -6  -6   6    4.05    0.22
  -6  -6   6    4.05    0.25
   5   6  -6    0.84    0.11
   5   6  -6    1.13    0.14
   5   6  -6    1.20    0.14
  -5  -6   6    1.05    0.13
  -5  -6   6    0.95    0.13
  -5  -6   6    0.76    0.12
   4   6  -6    2.35    0.16
   4   6  -6    2.39    0.18
   4   6  -6    2.66    0.17
  -4  -6   6    2.49    0.17
  -4  -6   6    2.69    0.17
  -4  -6   6    2.73    0.16
   3   6  -6    7.67    0.33
   3   6  -6    7.92    0.31
   3   6  -6    7.57    0.30
   3   6  -6    8.03    0.45
   3   6  -6    7.48    0.30
  -3  -6   6    7.66    0.30
   2   6  -6    0.27    0.12
   2   6  -6    0.33    0.08
   2   6  -6    0.34    0.08
   2   6  -6    0.38    0.09
   2   6  -6    0.34    0.08
  -2  -6   6    0.41    0.08
   1   6  -6    6.20    0.29
   1   6  -6    6.06    0.25
   1   6  -6    6.38    0.26
   1   6  -6    6.08    0.38
   1   6  -6    5.89    0.25
  -1  -6   6    6.06    0.25
  -1  -6   6    6.34    0.16
   0   6  -6   19.63    0.53
   0   6  -6   20.18    0.53
   0   6  -6   18.84    0.51
   0   6  -6   19.21    0.59
   0   6  -6   18.89    0.82
   0  -6   6   20.10    0.44
   0  -6   6   19.76    0.52
  -1   6  -6    4.85    0.35
  -1   6  -6    4.93    0.22
  -1   6  -6    5.04    0.22
  -1   6  -6    4.73    0.25
   1  -6   6    5.06    0.22
  -2   6  -6    9.44    0.31
  -2   6  -6    9.47    0.30
  -2   6  -6    8.84    0.31
  -2   6  -6    8.04    0.50
  -2   6  -6    8.81    0.35
   2  -6   6    9.00    0.31
  -3   6  -6    0.36    0.08
  -3   6  -6    0.55    0.09
  -3   6  -6    0.36    0.09
  -3   6  -6    0.50    0.08
  -3   6  -6    0.56    0.17
   3  -6   6    0.47    0.09
  -4   6  -6   13.63    0.74
  -4   6  -6   14.94    0.43
  -4   6  -6   15.21    0.49
  -4   6  -6   14.98    0.43
   4  -6   6   14.12    0.42
  -5   6  -6    1.86    0.14
  -5   6  -6    1.58    0.13
  -5   6  -6    1.78    0.16
  -5   6  -6    1.55    0.29
  -5   6  -6    1.90    0.17
   5  -6   6    1.51    0.13
  -6   6  -6   20.41    0.55
  -6   6  -6   21.78    0.66
  -6   6  -6   21.45    0.65
  -6   6  -6   20.58    0.56
   6  -6   6   20.88    0.55
  -7   6  -6    0.58    0.10
  -7   6  -6    0.58    0.13
  -7   6  -6    0.51    0.11
  -7   6  -6    0.77    0.11
   7  -6   6    0.60    0.10
  -8   6  -6    0.03    0.08
  -9   6  -6    1.75    0.23
  -8  -5   6    0.11    0.08
  -8  -5   6    0.01    0.06
  -8  -5   6    0.15    0.09
  -7  -5   6    0.28    0.08
  -7  -5   6    0.44    0.11
  -7  -5   6    0.16    0.08
   6   5  -6    8.40    0.32
   6   5  -6    8.16    0.30
   6   5  -6    8.09    0.29
  -6  -5   6    8.16    0.30
  -6  -5   6    8.17    0.36
  -6  -5   6    8.26    0.33
  -6  -5   6    8.98    0.30
   5   5  -6   24.41    0.58
   5   5  -6   24.18    0.63
   5   5  -6   24.80    0.61
  -5  -5   6   24.05    0.59
  -5  -5   6   24.21    0.61
  -5  -5   6   23.59    0.62
  -5  -5   6   24.63    0.66
   4   5  -6    2.73    0.17
   4   5  -6    2.44    0.17
   4   5  -6    2.42    0.16
  -4  -5   6    2.61    0.16
  -4  -5   6    2.72    0.16
  -4  -5   6    2.85    0.16
   3   5  -6    0.20    0.10
   3   5  -6    0.06    0.06
   3   5  -6   -0.03    0.04
   3   5  -6    0.12    0.06
   3   5  -6    0.06    0.06
  -3  -5   6    0.11    0.06
   2   5  -6    0.09    0.06
   2   5  -6    0.03    0.07
   2   5  -6    0.03    0.05
   2   5  -6    0.03    0.05
   2   5  -6    0.05    0.02
   2   5  -6    0.02    0.05
  -2  -5   6   -0.01    0.04
   1   5  -6   16.80    0.51
   1   5  -6   16.52    0.45
   1   5  -6   16.39    0.44
   1   5  -6   16.77    0.45
   1   5  -6   15.90    0.68
  -1  -5   6   16.71    0.44
  -1  -5   6   16.14    0.33
  -1  -5   6   15.93    0.33
   0   5  -6   40.39    1.01
   0   5  -6   42.49    1.48
   0   5  -6   42.30    0.91
   0   5  -6   43.71    0.90
   0  -5   6   41.53    0.90
  -1   5  -6   20.62    0.89
  -1   5  -6   21.88    0.62
  -1   5  -6   22.72    0.55
  -1   5  -6   23.18    0.55
   1  -5   6   23.05    0.55
  -2   5  -6   23.20    0.64
  -2   5  -6   23.02    0.54
  -2   5  -6   23.90    0.57
  -2   5  -6   22.72    0.95
  -2   5  -6   23.54    0.57
   2  -5   6   22.89    0.56
   2  -5   6   22.69    0.45
  -3   5  -6    1.91    0.23
  -3   5  -6    1.57    0.12
  -3   5  -6    1.85    0.13
  -3   5  -6    2.01    0.11
   3  -5   6    1.90    0.13
  -4   5  -6    0.43    0.08
  -4   5  -6    0.21    0.13
  -4   5  -6    0.15    0.06
   4  -5   6    0.30    0.07
  -5   5  -6   15.25    0.43
  -5   5  -6   15.32    0.43
  -5   5  -6   15.20    0.50
   5  -5   6   14.94    0.43
  -6   5  -6    0.36    0.08
  -6   5  -6    0.53    0.09
  -6   5  -6    0.35    0.10
  -6   5  -6    0.50    0.10
   6  -5   6    0.27    0.07
  -7   5  -6    2.56    0.20
  -7   5  -6    2.59    0.17
  -7   5  -6    2.60    0.16
   7  -5   6    2.45    0.17
  -8   5  -6    0.06    0.09
  -9   5  -6    0.03    0.09
  -9  -4   6    2.41    0.23
  -9  -4   6    1.94    0.20
  -9  -4   6    2.32    0.24
  -8  -4   6    0.31    0.09
  -8  -4   6    0.22    0.08
  -8  -4   6    0.33    0.10
  -7  -4   6    1.25    0.15
  -7  -4   6    1.25    0.16
  -7  -4   6    1.42    0.16
   6   4  -6    2.59    0.16
   6   4  -6    2.48    0.14
   6   4  -6    2.52    0.15
  -6  -4   6    2.51    0.17
  -6  -4   6    2.35    0.18
  -6  -4   6    2.54    0.15
  -6  -4   6    2.69    0.15
  -6  -4   6    2.40    0.17
   5   4  -6    0.24    0.07
   5   4  -6    0.23    0.06
   5   4  -6    0.12    0.06
  -5  -4   6    0.24    0.06
  -5  -4   6    0.20    0.07
  -5  -4   6    0.24    0.07
  -5  -4   6    0.28    0.07
   4   4  -6    8.07    0.27
   4   4  -6    8.28    0.28
   4   4  -6    8.52    0.29
   4   4  -6    8.22    0.30
  -4  -4   6    8.64    0.30
  -4  -4   6    8.60    0.28
   3   4  -6    1.69    0.12
   3   4  -6    1.68    0.12
   3   4  -6    1.65    0.13
   3   4  -6    1.63    0.12
   3   4  -6    1.74    0.16
  -3  -4   6    1.70    0.12
   2   4  -6   29.93    0.68
   2   4  -6   30.21    0.67
   2   4  -6   27.93    0.74
   2   4  -6   29.98    0.67
   2   4  -6   29.23    1.03
  -2  -4   6   31.32    0.67
   1   4  -6   24.67    0.66
   1   4  -6   25.54    0.59
   1   4  -6   25.57    0.58
   1   4  -6   24.97    0.91
  -1  -4   6   25.87    0.58
  -1  -4   6   25.55    0.49
   0   4  -6    0.41    0.07
   0   4  -6    0.55    0.08
   0   4  -6    0.40    0.08
   0   4  -6    0.38    0.10
   0  -4   6    0.47    0.05
   0  -4   6    0.45    0.07
  -1   4  -6   27.01    1.02
  -1   4  -6   27.72    0.62
  -1   4  -6   27.24    0.63
   1  -4   6   28.43    0.63
  -2   4  -6    0.09    0.08
  -2   4  -6    0.11    0.05
  -2   4  -6    0.14    0.05
  -2   4  -6    0.07    0.05
  -2   4  -6    0.04    0.03
   2  -4   6    0.12    0.05
  -3   4  -6   38.48    0.82
  -3   4  -6   38.09    0.87
  -3   4  -6   38.45    0.82
  -3   4  -6   37.32    1.41
   3  -4   6   37.50    0.81
  -4   4  -6    7.62    0.26
  -4   4  -6    7.68    0.27
  -4   4  -6    7.70    0.29
   4  -4   6    6.82    0.25
  -5   4  -6    0.02    0.05
  -5   4  -6    0.02    0.05
  -5   4  -6    0.08    0.05
  -5   4  -6   -0.04    0.05
   5  -4   6    0.02    0.05
  -6   4  -6   10.43    0.34
  -6   4  -6   10.43    0.37
  -6   4  -6   10.86    0.34
  -6   4  -6   11.00    0.41
   6  -4   6   10.91    0.35
  -7   4  -6    6.74    0.29
  -7   4  -6    6.43    0.26
  -7   4  -6    6.65    0.32
  -7   4  -6    6.33    0.26
   7  -4   6    7.04    0.27
  -8   4  -6    5.69    0.31
  -9   4  -6    1.59    0.20
 -10   4  -6    0.78    0.16
 -10  -3   6    0.23    0.10
  -9  -3   6   -0.01    0.07
  -9  -3   6    0.03    0.07
  -9  -3   6    0.08    0.07
  -8  -3   6    3.88    0.25
  -8  -3   6    4.04    0.24
  -8  -3   6    3.96    0.23
  -7  -3   6    0.01    0.05
  -7  -3   6   -0.04    0.04
  -7  -3   6    0.07    0.06
   6   3  -6   15.80    0.39
   6   3  -6   15.55    0.37
   6   3  -6   15.01    0.41
  -6  -3   6   15.16    0.47
  -6  -3   6   16.26    0.40
  -6  -3   6   15.96    0.46
  -6  -3   6   15.35    0.37
  -6  -3   6   14.95    0.47
   5   3  -6    7.19    0.25
   5   3  -6    7.14    0.24
   5   3  -6    7.04    0.22
  -5  -3   6    7.22    0.23
  -5  -3   6    7.12    0.28
  -5  -3   6    7.27    0.24
  -5  -3   6    7.43    0.28
  -5  -3   6    7.63    0.27
   4   3  -6    0.03    0.04
   4   3  -6    0.09    0.04
   4   3  -6    0.00    0.03
   4   3  -6    0.01    0.04
  -4  -3   6   -0.02    0.04
  -4  -3   6    0.05    0.04
  -4  -3   6   -0.01    0.04
   3   3  -6   10.47    0.30
   3   3  -6   10.33    0.29
   3   3  -6   10.77    0.33
   3   3  -6   10.06    0.39
   3   3  -6    9.77    0.29
  -3  -3   6   10.14    0.29
  -3  -3   6   10.21    0.28
   2   3  -6    8.25    0.26
   2   3  -6    8.45    0.26
   2   3  -6    8.25    0.34
   2   3  -6    8.22    0.28
  -2  -3   6    8.48    0.25
  -2  -3   6    8.55    0.22
   1   3  -6   89.71    1.68
   1   3  -6   90.35    1.67
   1   3  -6   85.26    2.75
  -1  -3   6   88.65    1.62
  -1  -3   6   89.09    1.67
  -1  -3   6   90.16    1.62
   0   3  -6   25.45    0.57
   0   3  -6   25.08    0.91
   0   3  -6   25.40    0.60
   0   3  -6   25.63    0.57
   0  -3   6   25.90    0.53
   0  -3   6   25.59    0.57
   0  -3   6   26.04    0.50
  -1   3  -6   -0.05    0.03
  -1   3  -6    0.03    0.04
  -1   3  -6    0.08    0.07
  -1   3  -6    0.05    0.04
   1  -3   6    0.04    0.04
  -2   3  -6   11.90    0.34
  -2   3  -6   12.83    0.34
  -2   3  -6   11.84    0.28
  -2   3  -6   12.03    0.36
   2  -3   6   13.14    0.34
  -3   3  -6    8.76    0.28
  -3   3  -6    8.84    0.27
  -3   3  -6    8.80    0.30
   3  -3   6    8.51    0.20
   3  -3   6    7.91    0.27
  -4   3  -6   39.87    0.83
  -4   3  -6   38.31    0.82
  -4   3  -6   36.55    0.87
   4  -3   6   36.76    0.81
  -5   3  -6    3.83    0.18
  -5   3  -6    3.66    0.18
  -5   3  -6    3.36    0.19
  -5   3  -6    3.48    0.20
   5  -3   6    3.07    0.17
  -6   3  -6    0.81    0.11
  -6   3  -6    0.88    0.13
  -6   3  -6    0.86    0.11
  -6   3  -6    0.91    0.12
   6  -3   6    0.94    0.11
  -7   3  -6   12.53    0.46
  -7   3  -6   12.81    0.43
  -7   3  -6   12.91    0.39
  -7   3  -6   13.12    0.40
   7  -3   6   13.57    0.40
  -8   3  -6    0.01    0.07
  -8   3  -6   -0.02    0.06
  -9   3  -6    1.11    0.17
 -10   3  -6    0.61    0.15
 -10  -2   6    0.18    0.10
  -9  -2   6    0.02    0.07
  -9  -2   6   -0.05    0.06
  -9  -2   6    0.02    0.07
  -8  -2   6    1.41    0.16
  -8  -2   6    1.50    0.18
  -8  -2   6    1.32    0.15
  -7  -2   6   14.40    0.44
  -7  -2   6   14.00    0.46
  -7  -2   6   15.23    0.48
   6   2  -6    2.01    0.09
   6   2  -6    1.95    0.09
   6   2  -6    1.87    0.10
   6   2  -6    1.76    0.09
  -6  -2   6    1.69    0.10
  -6  -2   6    1.84    0.14
  -6  -2   6    1.64    0.14
  -6  -2   6    1.36    0.14
   5   2  -6   13.76    0.34
   5   2  -6   14.32    0.36
   5   2  -6   14.17    0.50
   5   2  -6   13.93    0.31
  -5  -2   6   13.74    0.32
  -5  -2   6   14.18    0.34
  -5  -2   6   13.94    0.41
  -5  -2   6   14.02    0.35
  -5  -2   6   14.13    0.41
  -5  -2   6   14.15    0.39
   4   2  -6    0.26    0.05
   4   2  -6    0.29    0.06
   4   2  -6    0.20    0.05
   4   2  -6    0.27    0.05
   4   2  -6    0.27    0.03
  -4  -2   6    0.22    0.06
  -4  -2   6    0.29    0.06
  -4  -2   6    0.26    0.05
  -4  -2   6    0.28    0.06
  -4  -2   6    0.22    0.06
  -4  -2   6    0.20    0.04
   3   2  -6   23.32    0.56
   3   2  -6   21.81    0.50
   3   2  -6   22.76    0.44
   3   2  -6   22.76    0.50
  -3  -2   6   22.78    0.52
  -3  -2   6   23.81    0.55
  -3  -2   6   22.43    0.52
  -3  -2   6   23.12    0.50
  -3  -2   6   22.30    0.51
   2   2  -6   40.44    0.75
   2   2  -6   39.97    0.81
   2   2  -6   39.33    0.80
  -2  -2   6   39.34    0.75
  -2  -2   6   40.86    0.80
  -2  -2   6   40.45    0.85
  -2  -2   6   40.20    0.80
   1   2  -6   49.39    1.01
   1   2  -6   48.44    0.95
   1   2  -6   48.69    0.91
   1   2  -6   48.19    0.95
  -1  -2   6   48.63    0.92
  -1  -2   6   49.64    1.52
  -1  -2   6   47.08    0.94
  -1  -2   6   46.03    0.99
  -1  -2   6   47.93    0.93
   0   2  -6   81.73    1.52
   0   2  -6   79.01    1.50
   0   2  -6   79.77    1.50
   0   2  -6   79.60    1.60
   0  -2   6   80.32    2.50
   0  -2   6   78.62    1.50
  -1   2  -6   12.76    0.33
  -1   2  -6   12.80    0.35
  -1   2  -6   12.57    0.33
   1  -2   6   12.11    0.33
  -2   2  -6   40.55    0.85
  -2   2  -6   42.15    0.92
  -2   2  -6   41.60    0.86
   2  -2   6   41.86    0.85
   2  -2   6   42.06    0.71
  -3   2  -6   21.93    0.51
  -3   2  -6   21.52    0.51
  -3   2  -6   20.81    0.54
   3  -2   6   20.98    0.51
   3  -2   6   21.26    0.44
  -4   2  -6   13.64    0.41
  -4   2  -6   13.58    0.41
  -4   2  -6   14.19    0.39
  -4   2  -6   14.39    0.39
   4  -2   6   13.66    0.38
  -5   2  -6    4.36    0.20
  -5   2  -6    4.79    0.22
  -5   2  -6    4.87    0.22
  -5   2  -6    4.73    0.21
   5  -2   6    4.86    0.21
  -6   2  -6    2.59    0.18
  -6   2  -6    2.65    0.17
  -6   2  -6    2.74    0.16
  -6   2  -6    2.66    0.16
   6  -2   6    2.44    0.16
  -7   2  -6    5.54    0.24
  -7   2  -6    5.37    0.26
  -7   2  -6    5.59    0.25
  -7   2  -6    5.43    0.27
   7  -2   6    5.29    0.24
  -8   2  -6    2.37    0.19
  -8   2  -6    1.86    0.19
   8  -2   6    1.86    0.15
  -9   2  -6    2.07    0.22
 -10  -1   6    0.41    0.12
 -10  -1   6    0.39    0.12
 -10  -1   6    0.47    0.11
  -9  -1   6    6.84    0.32
  -9  -1   6    6.84    0.33
  -9  -1   6    6.75    0.33
  -8  -1   6   -0.06    0.05
  -8  -1   6    0.05    0.07
  -8  -1   6    0.07    0.06
   7   1  -6    0.42    0.07
  -7  -1   6    0.60    0.11
  -7  -1   6    0.40    0.09
  -7  -1   6    0.58    0.10
   6   1  -6    6.34    0.20
   6   1  -6    5.97    0.15
   6   1  -6    6.62    0.18
   6   1  -6    6.13    0.16
  -6  -1   6    6.05    0.26
  -6  -1   6    5.82    0.24
  -6  -1   6    6.19    0.26
   5   1  -6    4.09    0.14
   5   1  -6    3.92    0.13
   5   1  -6    4.08    0.15
   5   1  -6    4.10    0.12
   5   1  -6    4.24    0.13
   5   1  -6    4.01    0.13
  -5  -1   6    3.79    0.13
  -5  -1   6    3.50    0.17
  -5  -1   6    4.12    0.19
  -5  -1   6    4.05    0.19
  -5  -1   6    3.96    0.13
  -5  -1   6    3.86    0.19
   4   1  -6   24.60    0.56
   4   1  -6   25.16    0.52
   4   1  -6   24.35    0.51
   4   1  -6   24.50    0.51
  -4  -1   6   25.06    0.59
  -4  -1   6   24.75    0.58
  -4  -1   6   24.89    0.51
  -4  -1   6   24.51    0.52
  -4  -1   6   23.86    0.53
  -4  -1   6   24.36    0.57
   3   1  -6   20.01    0.43
   3   1  -6   19.36    0.43
   3   1  -6   19.75    0.41
  -3  -1   6   19.47    0.43
  -3  -1   6   19.86    0.43
  -3  -1   6   19.44    0.45
  -3  -1   6   19.63    0.47
  -3  -1   6   20.13    0.48
  -3  -1   6   19.25    0.44
   2   1  -6    6.75    0.18
   2   1  -6    6.46    0.19
   2   1  -6    6.44    0.19
   2   1  -6    6.46    0.20
  -2  -1   6    6.27    0.18
  -2  -1   6    6.59    0.18
  -2  -1   6    6.32    0.19
  -2  -1   6    6.65    0.19
  -2  -1   6    6.67    0.20
  -2  -1   6    6.58    0.20
   1   1  -6    0.17    0.04
   1   1  -6    0.26    0.04
   1   1  -6    0.20    0.05
   1   1  -6    0.29    0.05
  -1  -1   6    0.25    0.05
  -1  -1   6    0.20    0.04
  -1  -1   6    0.26    0.05
  -1  -1   6    0.20    0.04
  -1  -1   6    0.25    0.04
  -1  -1   6    0.18    0.03
   0   1  -6    0.20    0.05
   0   1  -6    0.25    0.04
   0   1  -6    0.24    0.05
   0   1  -6    0.28    0.05
   0  -1   6    0.23    0.07
   0  -1   6    0.25    0.02
   0  -1   6    0.24    0.05
  -1   1  -6   14.02    0.38
  -1   1  -6   14.69    0.37
  -1   1  -6   13.64    0.35
  -1   1  -6   14.70    0.36
   1  -1   6   13.91    0.36
  -2   1  -6    8.42    0.27
  -2   1  -6    8.96    0.27
  -2   1  -6    8.96    0.27
  -2   1  -6    8.77    0.29
   2  -1   6    9.05    0.21
  -3   1  -6   16.15    0.45
  -3   1  -6   15.47    0.41
  -3   1  -6   15.66    0.41
   3  -1   6   15.98    0.41
  -4   1  -6    8.03    0.27
  -4   1  -6    7.27    0.28
  -4   1  -6    7.91    0.27
  -4   1  -6    7.63    0.27
   4  -1   6    7.49    0.26
  -5   1  -6    3.09    0.12
  -5   1  -6    2.91    0.16
  -5   1  -6    2.76    0.17
  -5   1  -6    2.56    0.16
  -5   1  -6    2.87    0.17
   5  -1   6    2.96    0.17
  -6   1  -6    1.42    0.14
  -6   1  -6    1.40    0.09
  -6   1  -6    1.52    0.16
  -6   1  -6    1.58    0.15
  -6   1  -6    1.51    0.13
   6  -1   6    1.23    0.13
  -7   1  -6   12.91    0.43
  -7   1  -6   12.21    0.39
  -7   1  -6   11.88    0.42
  -7   1  -6   11.82    0.39
   7  -1   6   11.65    0.39
  -8   1  -6    0.20    0.09
  -8   1  -6    0.22    0.09
  -8   1  -6    0.30    0.09
   8  -1   6    0.26    0.09
 -10   0   6    1.77    0.21
 -10   0   6    2.26    0.22
  -9   0   6    0.00    0.06
  -9   0   6    0.05    0.07
  -9   0   6   -0.05    0.06
   8   0  -6    5.95    0.24
  -8   0   6    5.89    0.27
  -8   0   6    5.04    0.27
  -8   0   6    5.17    0.27
   7   0  -6    3.83    0.18
  -7   0   6    3.50    0.19
  -7   0   6    4.03    0.21
  -7   0   6    3.57    0.21
   6   0  -6    1.50    0.10
  -6   0   6    1.36    0.13
  -6   0   6    1.29    0.14
  -6   0   6    1.40    0.15
  -6   0   6    1.20    0.12
   5   0  -6    2.31    0.12
   5   0  -6    2.39    0.08
   5   0  -6    2.55    0.09
   5   0  -6    2.35    0.08
   5   0  -6    2.67    0.08
   5   0  -6    2.52    0.08
  -5   0   6    2.36    0.14
  -5   0   6    2.32    0.14
  -5   0   6    2.14    0.14
  -5   0   6    2.44    0.15
  -5   0   6    2.38    0.08
  -5   0   6    2.24    0.08
   4   0  -6    9.18    0.22
   4   0  -6    8.52    0.24
   4   0  -6    8.87    0.21
   4   0  -6    9.30    0.22
   4   0  -6    8.43    0.20
  -4   0   6    8.83    0.20
  -4   0   6    8.58    0.21
  -4   0   6    9.05    0.29
  -4   0   6    8.80    0.21
  -4   0   6    8.84    0.27
  -4   0   6    8.77    0.29
  -4   0   6    8.68    0.26
   3   0  -6   59.38    1.07
   3   0  -6   59.46    1.15
   3   0  -6   59.44    1.11
   3   0  -6   59.93    1.11
   3   0  -6   60.41    1.17
   3   0  -6   60.70    1.12
  -3   0   6   59.30    1.09
  -3   0   6   56.91    1.15
  -3   0   6   60.08    1.09
  -3   0   6   60.45    1.11
  -3   0   6   60.58    1.11
  -3   0   6   60.80    1.19
  -3   0   6   59.45    1.20
   2   0  -6  106.48    2.01
   2   0  -6  103.61    1.89
   2   0  -6  105.31    1.95
   2   0  -6  104.24    1.91
  -2   0   6  105.75    1.96
  -2   0   6  105.67    1.97
  -2   0   6  101.97    1.79
  -2   0   6  103.40    1.89
  -2   0   6  103.64    1.90
   1   0  -6    0.47    0.06
   1   0  -6    0.58    0.07
   1   0  -6    0.55    0.07
   1   0  -6    0.50    0.05
   1   0  -6    0.39    0.06
  -1   0   6    0.47    0.06
  -1   0   6    0.58    0.04
  -1   0   6    0.58    0.04
   0   0  -6   89.74    1.78
   0   0  -6   93.41    1.69
   0   0  -6   89.49    1.71
   0   0  -6   89.27    1.67
   0   0   6   87.56    1.67
  -1   0  -6   26.32    0.59
  -1   0  -6   27.53    0.63
  -1   0  -6   25.78    0.59
   1   0   6   26.91    0.59
  -2   0  -6   51.71    1.04
  -2   0  -6   53.03    1.08
  -2   0  -6   50.91    1.03
  -2   0  -6   50.88    1.11
   2   0   6   52.92    1.05
  -3   0  -6   66.88    1.32
  -3   0  -6   66.60    1.41
  -3   0  -6   66.19    1.36
  -3   0  -6   67.30    1.14
  -3   0  -6   68.10    1.31
   3   0   6   66.12    1.32
  -4   0  -6    0.44    0.04
  -4   0  -6    0.32    0.08
  -4   0  -6    0.34    0.07
  -4   0  -6    0.44    0.07
   4   0   6    0.40    0.08
  -5   0  -6    5.45    0.17
  -5   0  -6    5.02    0.23
  -5   0  -6    5.06    0.21
  -5   0  -6    4.91    0.22
  -5   0  -6    5.24    0.25
  -5   0  -6    5.46    0.20
   5   0   6    5.30    0.23
  -6   0  -6    0.98    0.13
  -6   0  -6    1.31    0.09
  -6   0  -6    1.12    0.13
  -6   0  -6    1.25    0.15
  -6   0  -6    1.30    0.13
   6   0   6    1.18    0.13
  -7   0  -6    0.91    0.13
  -7   0  -6    0.94    0.13
  -7   0  -6    1.20    0.15
  -7   0  -6    1.35    0.15
   7   0   6    0.90    0.13
  -8   0  -6    4.43    0.24
  -8   0  -6    4.93    0.25
  -8   0  -6    5.34    0.28
   8   0   6    4.63    0.25
 -10   1   6   -0.04    0.06
 -10   1   6    0.01    0.07
   9  -1  -6    1.09    0.14
  -9   1   6    1.13    0.16
  -9   1   6    0.86    0.13
  -9   1   6    0.93    0.15
   8  -1  -6    9.41    0.33
  -8   1   6    9.27    0.35
  -8   1   6    9.51    0.38
  -8   1   6   10.84    0.39
   7  -1  -6    1.79    0.13
  -7   1   6    1.94    0.16
  -7   1   6    1.71    0.15
  -7   1   6    1.87    0.14
  -7   1   6    1.84    0.18
   6  -1  -6   12.69    0.36
  -6   1   6   12.78    0.41
  -6   1   6   11.25    0.39
  -6   1   6   12.63    0.38
  -6   1   6   12.67    0.37
   5  -1  -6    3.09    0.08
   5  -1  -6    2.83    0.14
  -5   1   6    2.53    0.14
  -5   1   6    2.70    0.16
  -5   1   6    2.65    0.15
  -5   1   6    2.57    0.16
   4  -1  -6   10.11    0.23
   4  -1  -6    9.96    0.23
   4  -1  -6    9.98    0.23
   4  -1  -6   10.27    0.23
   4  -1  -6   10.02    0.29
   4  -1  -6    9.56    0.22
   4  -1  -6   10.28    0.23
  -4   1   6   10.08    0.22
  -4   1   6    9.29    0.36
  -4   1   6    9.71    0.23
  -4   1   6    9.54    0.28
  -4   1   6   10.22    0.29
  -4   1   6   10.77    0.32
  -4   1   6   10.02    0.32
  -4   1   6    9.85    0.23
   3  -1  -6   33.07    0.63
   3  -1  -6   32.69    0.65
   3  -1  -6   33.71    0.65
   3  -1  -6   32.81    0.71
   3  -1  -6   33.13    0.68
   3  -1  -6   32.47    0.65
  -3   1   6   34.00    0.72
  -3   1   6   32.34    0.65
  -3   1   6   33.70    1.06
  -3   1   6   32.80    0.68
  -3   1   6   33.53    0.66
  -3   1   6   33.27    0.73
   2  -1  -6    1.57    0.09
   2  -1  -6    1.68    0.07
   2  -1  -6    1.63    0.10
   2  -1  -6    1.57    0.09
   2  -1  -6    1.49    0.09
  -2   1   6    1.34    0.10
  -2   1   6    1.49    0.07
  -2   1   6    1.56    0.09
  -2   1   6    1.54    0.09
   1  -1  -6   17.60    0.43
   1  -1  -6   18.21    0.35
   1  -1  -6   17.55    0.40
   1  -1  -6   17.85    0.41
   1  -1  -6   18.27    0.43
   1  -1  -6   17.90    0.41
  -1   1   6   17.20    0.41
   0  -1  -6   58.78    1.01
   0  -1  -6   59.15    1.15
   0  -1  -6   60.25    1.23
   0  -1  -6   58.76    1.18
   0  -1  -6   57.94    1.14
   0   1   6   57.46    1.15
   0   1   6   60.87    1.11
   0   1   6   59.87    1.14
  -1  -1  -6   81.14    1.59
  -1  -1  -6   79.94    1.65
  -1  -1  -6   83.26    1.55
  -1  -1  -6   81.10    1.54
   1   1   6   81.26    1.55
   1   1   6   82.52    1.54
   1   1   6   79.43    1.49
  -2  -1  -6   56.30    1.13
  -2  -1  -6   55.94    1.17
  -2  -1  -6   57.96    1.04
  -2  -1  -6   55.30    1.14
  -2  -1  -6   57.70    1.22
   2   1   6   56.71    1.14
   2   1   6   57.58    1.10
  -3  -1  -6    1.33    0.09
  -3  -1  -6    1.35    0.06
  -3  -1  -6    1.20    0.12
  -3  -1  -6    1.37    0.07
  -3  -1  -6    1.30    0.12
  -3  -1  -6    1.13    0.12
  -3  -1  -6    0.98    0.12
   3   1   6    1.30    0.12
   3   1   6    1.12    0.11
  -4  -1  -6   15.96    0.34
  -4  -1  -6   15.70    0.37
  -4  -1  -6   15.84    0.47
  -4  -1  -6   15.66    0.45
  -4  -1  -6   14.82    0.43
  -4  -1  -6   15.66    0.47
  -4  -1  -6   15.41    0.40
   4   1   6   15.63    0.45
   4   1   6   15.51    0.43
  -5  -1  -6    1.46    0.09
  -5  -1  -6    1.38    0.14
  -5  -1  -6    1.55    0.15
  -5  -1  -6    1.29    0.10
  -5  -1  -6    1.38    0.15
  -5  -1  -6    1.48    0.11
   5   1   6    1.21    0.14
   5   1   6    1.69    0.13
  -6  -1  -6    4.26    0.22
  -6  -1  -6    3.98    0.21
  -6  -1  -6    3.72    0.19
  -6  -1  -6    3.90    0.23
   6   1   6    3.75    0.21
  -7  -1  -6    0.13    0.07
  -7  -1  -6    0.04    0.07
  -7  -1  -6    0.01    0.06
  -7  -1  -6    0.13    0.08
   7   1   6    0.14    0.08
  -8  -1  -6    0.23    0.10
  -8  -1  -6    0.22    0.10
  -8  -1  -6    0.19    0.09
   8   1   6    0.04    0.08
 -10   2   6    1.38    0.18
   9  -2  -6    0.17    0.07
  -9   2   6    0.26    0.08
  -9   2   6    0.19    0.09
  -9   2   6    0.24    0.09
   8  -2  -6   18.56    0.55
  -8   2   6   19.03    0.55
  -8   2   6   19.48    0.59
  -8   2   6   20.26    0.59
  -8   2   6   19.86    0.61
   7  -2  -6    9.12    0.33
  -7   2   6    8.42    0.32
  -7   2   6    8.91    0.34
  -7   2   6    8.91    0.36
  -7   2   6    9.18    0.35
   6  -2  -6    0.45    0.08
  -6   2   6    0.43    0.09
  -6   2   6    0.44    0.09
  -6   2   6    0.51    0.09
  -6   2   6    0.48    0.09
   5  -2  -6   27.54    0.58
   5  -2  -6   25.59    0.64
  -5   2   6   27.45    0.69
  -5   2   6   28.20    0.62
  -5   2   6   28.13    0.64
  -5   2   6   26.89    0.95
  -5   2   6   27.88    0.66
   4  -2  -6    6.34    0.23
   4  -2  -6    6.69    0.18
   4  -2  -6    6.39    0.17
   4  -2  -6    6.58    0.18
   4  -2  -6    6.74    0.17
   4  -2  -6    6.47    0.17
  -4   2   6    6.60    0.17
  -4   2   6    6.40    0.24
  -4   2   6    6.66    0.17
  -4   2   6    6.70    0.26
  -4   2   6    6.57    0.31
  -4   2   6    6.50    0.17
   3  -2  -6    2.09    0.12
   3  -2  -6    1.92    0.10
   3  -2  -6    1.68    0.09
   3  -2  -6    1.83    0.09
  -3   2   6    1.82    0.15
  -3   2   6    1.85    0.11
  -3   2   6    1.90    0.09
  -3   2   6    1.83    0.13
   2  -2  -6   43.80    0.83
   2  -2  -6   44.21    0.85
   2  -2  -6   43.11    0.86
   2  -2  -6   43.22    0.91
  -2   2   6   43.15    0.87
  -2   2   6   42.87    0.85
  -2   2   6   43.77    0.92
  -2   2   6   42.60    0.82
   1  -2  -6   11.19    0.24
   1  -2  -6   10.89    0.30
   1  -2  -6   11.09    0.30
   1  -2  -6   11.07    0.32
  -1   2   6   10.75    0.30
  -1   2   6   10.95    0.28
  -1   2   6   10.76    0.29
  -1   2   6   10.99    0.29
   0  -2  -6   25.29    0.59
   0  -2  -6   24.78    0.56
   0  -2  -6   25.42    0.57
   0   2   6   24.97    0.57
   0   2   6   25.25    0.55
   0   2   6   25.12    0.54
  -1  -2  -6   17.87    0.45
  -1  -2  -6   17.68    0.34
  -1  -2  -6   17.17    0.44
  -1  -2  -6   17.66    0.46
   1   2   6   17.45    0.43
   1   2   6   17.42    0.41
   1   2   6   17.04    0.45
  -2  -2  -6   38.14    0.85
  -2  -2  -6   38.14    0.71
  -2  -2  -6   37.30    0.82
  -2  -2  -6   37.73    0.81
   2   2   6   36.39    0.82
   2   2   6   36.12    0.79
  -3  -2  -6   19.61    0.52
  -3  -2  -6   19.51    0.53
  -3  -2  -6   20.34    0.51
  -3  -2  -6   19.46    0.42
  -3  -2  -6   18.95    0.43
   3   2   6   18.97    0.49
   3   2   6   18.29    0.51
  -4  -2  -6    2.90    0.13
  -4  -2  -6    2.94    0.13
  -4  -2  -6    2.82    0.17
  -4  -2  -6    2.77    0.18
  -4  -2  -6    2.89    0.18
   4   2   6    2.92    0.17
   4   2   6    2.77    0.17
  -5  -2  -6    1.78    0.17
  -5  -2  -6    1.48    0.10
  -5  -2  -6    1.38    0.11
  -5  -2  -6    1.80    0.15
  -5  -2  -6    1.27    0.15
   5   2   6    1.56    0.15
   5   2   6    1.57    0.16
  -6  -2  -6    1.26    0.16
  -6  -2  -6    1.34    0.16
  -6  -2  -6    1.24    0.13
  -6  -2  -6    1.14    0.14
   6   2   6    0.98    0.13
   6   2   6    1.07    0.14
  -7  -2  -6    4.79    0.26
  -7  -2  -6    4.20    0.24
  -7  -2  -6    4.64    0.27
   7   2   6    4.70    0.26
  -8  -2  -6    0.70    0.14
  -8  -2  -6    0.72    0.13
  -8  -2  -6    0.92    0.15
   8   2   6    0.74    0.13
  10  -3  -6    1.62    0.19
   9  -3  -6   15.87    0.52
   8  -3  -6    2.57    0.18
  -8   3   6    2.09    0.18
  -8   3   6    2.51    0.20
   7  -3  -6    0.12    0.06
  -7   3   6    0.01    0.05
  -7   3   6    0.14    0.07
   6  -3  -6    0.08    0.06
  -6   3   6    0.00    0.06
  -6   3   6    0.12    0.06
  -6   3   6    0.08    0.06
   5  -3  -6    7.79    0.19
   5  -3  -6    7.77    0.23
   5  -3  -6    7.69    0.18
   5  -3  -6    7.66    0.19
   5  -3  -6    7.80    0.29
  -5   3   6    7.93    0.29
  -5   3   6    7.39    0.30
  -5   3   6    7.46    0.18
  -5   3   6    8.05    0.39
   4  -3  -6   29.44    0.63
   4  -3  -6   28.77    0.70
   4  -3  -6   30.44    0.60
   4  -3  -6   30.29    0.60
  -4   3   6   29.46    0.72
  -4   3   6   29.96    0.58
  -4   3   6   30.51    1.07
  -4   3   6   29.54    0.60
  -4   3   6   29.88    0.68
   3  -3  -6    0.44    0.06
   3  -3  -6    0.33    0.07
   3  -3  -6    0.53    0.06
  -3   3   6    0.40    0.06
  -3   3   6    0.42    0.06
  -3   3   6    0.76    0.15
  -3   3   6    0.50    0.08
  -3   3   6    0.50    0.07
   2  -3  -6   23.39    0.54
   2  -3  -6   24.77    0.59
   2  -3  -6   23.46    0.53
  -2   3   6   24.20    0.54
  -2   3   6   24.70    0.52
  -2   3   6   24.21    0.53
  -2   3   6   23.95    0.59
   1  -3  -6    9.50    0.28
   1  -3  -6   10.07    0.29
   1  -3  -6    9.42    0.31
   1  -3  -6    9.62    0.23
  -1   3   6    9.78    0.29
  -1   3   6    9.79    0.29
  -1   3   6    9.75    0.28
  -1   3   6    9.66    0.29
  -1   3   6    9.32    0.24
   0  -3  -6   15.08    0.43
   0  -3  -6   15.57    0.42
   0  -3  -6   16.08    0.41
   0  -3  -6   15.27    0.35
   0   3   6   15.90    0.40
   0   3   6   14.95    0.33
   0   3   6   15.34    0.39
   0   3   6   15.99    0.42
   0   3   6   14.88    0.41
  -1  -3  -6   28.40    0.67
  -1  -3  -6   28.58    0.69
  -1  -3  -6   28.23    0.57
  -1  -3  -6   28.58    0.66
   1   3   6   28.03    0.54
   1   3   6   28.45    0.64
   1   3   6   28.76    0.64
   1   3   6   28.88    0.68
   1   3   6   28.03    0.66
  -2  -3  -6    8.68    0.30
  -2  -3  -6    7.93    0.29
  -2  -3  -6    8.01    0.21
  -2  -3  -6    7.57    0.29
   2   3   6    7.51    0.28
   2   3   6    8.21    0.28
   2   3   6    7.86    0.30
  -3  -3  -6    6.12    0.26
  -3  -3  -6    6.94    0.29
  -3  -3  -6    6.84    0.20
  -3  -3  -6    7.06    0.28
   3   3   6    6.80    0.28
   3   3   6    6.53    0.26
   3   3   6    6.87    0.28
  -4  -3  -6    1.82    0.17
  -4  -3  -6    2.05    0.16
  -4  -3  -6    2.09    0.16
  -4  -3  -6    1.89    0.11
   4   3   6    2.12    0.16
   4   3   6    1.88    0.17
  -5  -3  -6    1.09    0.14
  -5  -3  -6    0.93    0.14
  -5  -3  -6    1.02    0.11
  -5  -3  -6    1.20    0.15
   5   3   6    0.78    0.12
   5   3   6    0.91    0.12
  -6  -3  -6   11.34    0.42
  -6  -3  -6   11.37    0.41
  -6  -3  -6   10.50    0.43
   6   3   6   11.10    0.40
   6   3   6   11.28    0.42
  -7  -3  -6    0.44    0.12
  -7  -3  -6    0.35    0.11
  -7  -3  -6    0.40    0.11
   7   3   6    0.24    0.10
   7   3   6    0.31    0.09
  -8  -3  -6    1.00    0.16
   8   3   6    1.18    0.17
  10  -4  -6    0.96    0.16
   9  -4  -6    0.08    0.08
  -9   4   6    0.07    0.08
   8  -4  -6    2.05    0.18
  -8   4   6    1.89    0.21
   7  -4  -6    1.79    0.18
  -7   4   6    2.40    0.19
  -7   4   6    2.04    0.17
   6  -4  -6    4.35    0.23
  -6   4   6    4.03    0.23
  -6   4   6    4.19    0.22
  -6   4   6    3.99    0.30
   5  -4  -6    0.19    0.04
   5  -4  -6    0.20    0.05
   5  -4  -6    0.25    0.07
  -5   4   6    0.14    0.03
  -5   4   6    0.22    0.07
  -5   4   6    0.14    0.06
  -5   4   6    0.14    0.04
  -5   4   6    0.11    0.09
   4  -4  -6    0.10    0.06
   4  -4  -6    0.07    0.05
   4  -4  -6   -0.01    0.04
   4  -4  -6    0.03    0.04
  -4   4   6    0.02    0.03
  -4   4   6    0.05    0.06
  -4   4   6    0.08    0.08
  -4   4   6    0.06    0.04
  -4   4   6    0.05    0.03
   3  -4  -6   47.93    0.95
   3  -4  -6   46.48    1.03
   3  -4  -6   46.52    0.94
  -3   4   6   46.49    0.91
  -3   4   6   47.25    1.66
  -3   4   6   46.81    0.94
  -3   4   6   46.11    1.03
  -3   4   6   47.07    0.96
  -3   4   6   48.06    0.96
   2  -4  -6    0.05    0.04
   2  -4  -6    0.04    0.04
   2  -4  -6    0.05    0.05
  -2   4   6    0.04    0.05
  -2   4   6    0.11    0.04
  -2   4   6    0.08    0.05
  -2   4   6    0.05    0.04
  -2   4   6    0.06    0.05
  -2   4   6    0.04    0.04
   1  -4  -6   38.75    0.89
   1  -4  -6   37.92    0.83
   1  -4  -6   38.65    0.84
  -1   4   6   39.48    0.81
  -1   4   6   40.34    0.85
  -1   4   6   41.21    0.87
  -1   4   6   38.24    0.87
  -1   4   6   38.99    0.77
   0  -4  -6    1.21    0.12
   0  -4  -6    1.50    0.13
   0  -4  -6    1.63    0.13
   0   4   6    1.34    0.13
   0   4   6    1.70    0.12
   0   4   6    1.51    0.12
   0   4   6    1.56    0.06
   0   4   6    1.52    0.12
  -1  -4  -6    0.21    0.07
  -1  -4  -6    0.16    0.06
  -1  -4  -6    0.05    0.05
   1   4   6    0.08    0.06
   1   4   6    0.05    0.05
   1   4   6    0.08    0.05
   1   4   6    0.12    0.06
  -2  -4  -6   17.60    0.51
  -2  -4  -6   17.60    0.50
  -2  -4  -6   18.13    0.52
  -2  -4  -6   18.54    0.41
   2   4   6   18.27    0.52
   2   4   6   18.11    0.51
   2   4   6   17.23    0.49
  -3  -4  -6    2.94    0.19
  -3  -4  -6    3.53    0.21
  -3  -4  -6    2.92    0.19
  -3  -4  -6    2.83    0.13
   3   4   6    3.12    0.19
   3   4   6    2.88    0.20
   3   4   6    2.84    0.19
  -4  -4  -6    1.12    0.14
  -4  -4  -6    1.21    0.16
  -4  -4  -6    1.04    0.14
   4   4   6    1.35    0.16
   4   4   6    1.19    0.14
   4   4   6    0.81    0.13
  -5  -4  -6    0.01    0.07
  -5  -4  -6    0.00    0.08
  -5  -4  -6    0.06    0.07
   5   4   6   -0.08    0.07
   5   4   6    0.08    0.07
  -6  -4  -6    2.13    0.21
  -6  -4  -6    2.37    0.19
   6   4   6    2.56    0.20
   6   4   6    2.19    0.22
  -7  -4  -6    0.63    0.14
  -7  -4  -6    0.60    0.13
   7   4   6    0.77    0.15
   7   4   6    1.04    0.15
  10  -5  -6    0.15    0.09
   9  -5  -6    0.46    0.12
  -9   5   6    0.43    0.12
   8  -5  -6    1.32    0.17
  -8   5   6    1.38    0.19
   7  -5  -6   12.06    0.44
  -7   5   6   12.56    0.63
  -7   5   6   12.50    0.46
  -7   5   6   11.36    0.44
   6  -5  -6    0.62    0.12
  -6   5   6    0.61    0.11
  -6   5   6    0.48    0.11
  -6   5   6    0.77    0.18
   5  -5  -6   22.43    0.63
   5  -5  -6   22.34    0.50
   5  -5  -6   22.49    0.50
  -5   5   6   23.02    0.48
  -5   5   6   22.35    0.64
  -5   5   6   23.06    0.96
  -5   5   6   21.92    0.49
   4  -5  -6    3.24    0.15
   4  -5  -6    3.25    0.15
   4  -5  -6    3.56    0.21
  -4   5   6    3.25    0.17
  -4   5   6    3.33    0.15
  -4   5   6    3.30    0.30
  -4   5   6    3.51    0.15
  -4   5   6    3.12    0.20
  -4   5   6    3.38    0.15
   3  -5  -6    2.92    0.15
   3  -5  -6    2.87    0.18
   3  -5  -6    2.93    0.15
  -3   5   6    2.87    0.15
  -3   5   6    2.90    0.14
  -3   5   6    2.82    0.28
  -3   5   6    2.75    0.15
  -3   5   6    3.01    0.15
  -3   5   6    2.90    0.18
  -3   5   6    3.05    0.18
   2  -5  -6    0.92    0.12
   2  -5  -6    0.68    0.10
   2  -5  -6    0.71    0.10
  -2   5   6    1.01    0.12
  -2   5   6    0.88    0.10
  -2   5   6    0.83    0.10
  -2   5   6    0.71    0.10
  -2   5   6    0.80    0.11
   1  -5  -6    2.99    0.18
   1  -5  -6    2.93    0.17
   1  -5  -6    3.00    0.17
  -1   5   6    3.07    0.17
  -1   5   6    3.18    0.17
  -1   5   6    3.08    0.17
  -1   5   6    3.15    0.18
   0  -5  -6   18.62    0.51
   0  -5  -6   17.85    0.52
   0  -5  -6   16.87    0.49
   0   5   6   18.29    0.48
   0   5   6   18.23    0.50
   0   5   6   17.26    0.49
   0   5   6   17.42    0.50
  -1  -5  -6    7.90    0.31
  -1  -5  -6    7.61    0.30
  -1  -5  -6    7.58    0.32
   1   5   6    7.63    0.31
   1   5   6    7.75    0.29
   1   5   6    7.55    0.29
   1   5   6    7.52    0.31
  -2  -5  -6   -0.04    0.06
  -2  -5  -6    0.06    0.06
  -2  -5  -6   -0.06    0.05
   2   5   6    0.05    0.06
   2   5   6    0.09    0.06
   2   5   6   -0.01    0.06
  -3  -5  -6    1.91    0.19
  -3  -5  -6    1.77    0.18
  -3  -5  -6    1.94    0.19
   3   5   6    1.83    0.19
   3   5   6    1.88    0.19
   3   5   6    1.52    0.16
  -4  -5  -6    1.45    0.17
  -4  -5  -6    1.39    0.17
  -4  -5  -6    1.67    0.19
   4   5   6    1.36    0.17
   4   5   6    1.39    0.17
   4   5   6    1.80    0.18
  -5  -5  -6    0.38    0.11
  -5  -5  -6    0.61    0.13
  -5  -5  -6    0.45    0.12
   5   5   6    0.46    0.11
   5   5   6    0.35    0.12
   5   5   6    0.42    0.12
  -6  -5  -6    0.85    0.16
  -6  -5  -6    0.79    0.15
   6   5   6    0.65    0.13
   6   5   6    0.66    0.14
  -7  -5  -6   -0.08    0.08
   9  -6  -6    1.64    0.21
  -9   6   6    1.50    0.21
   8  -6  -6    0.41    0.11
  -8   6   6    0.16    0.09
  -8   6   6    0.28    0.10
   7  -6  -6    0.22    0.09
  -7   6   6    0.05    0.07
  -7   6   6    0.18    0.13
  -7   6   6    0.21    0.09
   6  -6  -6    4.95    0.28
  -6   6   6    5.12    0.26
  -6   6   6    5.25    0.40
  -6   6   6    5.28    0.28
   5  -6  -6    2.24    0.18
   5  -6  -6    2.56    0.14
   5  -6  -6    2.52    0.14
  -5   6   6    2.73    0.13
  -5   6   6    2.37    0.18
  -5   6   6    2.38    0.28
   4  -6  -6   16.95    0.54
   4  -6  -6   18.23    0.46
   4  -6  -6   17.84    0.45
  -4   6   6   17.11    0.43
  -4   6   6   17.43    0.46
  -4   6   6   16.86    0.83
  -4   6   6   16.61    0.45
  -4   6   6   18.15    0.54
   3  -6  -6    0.95    0.11
   3  -6  -6    0.79    0.11
   3  -6  -6    0.95    0.14
  -3   6   6    0.97    0.11
  -3   6   6    1.04    0.23
  -3   6   6    1.08    0.11
  -3   6   6    0.96    0.13
  -3   6   6    0.84    0.13
  -3   6   6    0.76    0.11
   2  -6  -6    9.83    0.34
   2  -6  -6    9.90    0.34
   2  -6  -6    9.84    0.37
  -2   6   6    9.98    0.36
  -2   6   6    9.82    0.33
  -2   6   6    9.89    0.34
  -2   6   6   10.10    0.34
  -2   6   6   10.12    0.37
   1  -6  -6   14.16    0.43
   1  -6  -6   13.76    0.43
   1  -6  -6   13.72    0.46
  -1   6   6   13.96    0.43
  -1   6   6   13.68    0.43
  -1   6   6   13.96    0.42
  -1   6   6   13.65    0.44
   0  -6  -6    6.61    0.29
   0  -6  -6    7.02    0.29
   0  -6  -6    7.22    0.32
   0   6   6    7.37    0.30
   0   6   6    7.18    0.30
   0   6   6    7.60    0.30
   0   6   6    6.97    0.30
  -1  -6  -6    0.03    0.07
  -1  -6  -6   -0.04    0.06
  -1  -6  -6    0.04    0.07
   1   6   6   -0.03    0.05
   1   6   6   -0.06    0.06
   1   6   6   -0.03    0.06
   1   6   6    0.03    0.07
  -2  -6  -6    1.89    0.19
  -2  -6  -6    2.06    0.17
  -2  -6  -6    1.87    0.19
   2   6   6    2.43    0.19
   2   6   6    1.99    0.19
   2   6   6    2.00    0.20
  -3  -6  -6    2.39    0.20
  -3  -6  -6    2.06    0.21
  -3  -6  -6    2.82    0.21
   3   6   6    2.38    0.19
   3   6   6    2.17    0.21
   3   6   6    2.42    0.21
  -4  -6  -6    2.04    0.21
  -4  -6  -6    2.09    0.22
  -4  -6  -6    1.86    0.21
   4   6   6    1.87    0.21
   4   6   6    2.03    0.22
   4   6   6    1.91    0.20
  -5  -6  -6    0.34    0.11
  -5  -6  -6    0.27    0.10
  -5  -6  -6    0.49    0.12
   5   6   6    0.41    0.12
   5   6   6    0.37    0.12
   5   6   6    0.44    0.12
   9  -7  -6    0.40    0.13
  -9   7   6    0.35    0.13
   8  -7  -6    4.89    0.31
  -8   7   6    5.06    0.30
  -8   7   6    4.50    0.29
   7  -7  -6    0.03    0.08
  -7   7   6   -0.02    0.07
  -7   7   6   -0.01    0.07
   6  -7  -6    1.01    0.16
  -6   7   6    1.14    0.25
  -6   7   6    1.26    0.17
  -6   7   6    0.95    0.14
   5  -7  -6    1.47    0.14
   5  -7  -6    1.20    0.17
  -5   7   6    1.66    0.31
  -5   7   6    1.53    0.18
   4  -7  -6    5.56    0.24
   4  -7  -6    6.49    0.26
   4  -7  -6    5.84    0.31
  -4   7   6    6.34    0.24
  -4   7   6    6.06    0.25
  -4   7   6    6.15    0.30
  -4   7   6    6.22    0.48
  -4   7   6    6.03    0.25
   3  -7  -6   11.18    0.37
   3  -7  -6   11.28    0.43
   3  -7  -6   10.86    0.37
  -3   7   6   11.52    0.37
  -3   7   6   10.70    0.35
  -3   7   6    9.89    0.64
  -3   7   6   11.19    0.42
  -3   7   6   11.09    0.37
  -3   7   6   10.59    0.40
   2  -7  -6   18.74    0.54
   2  -7  -6   19.24    0.59
   2  -7  -6   19.40    0.55
  -2   7   6   18.46    0.54
  -2   7   6   19.53    0.53
  -2   7   6   19.99    0.58
  -2   7   6   19.55    0.59
  -2   7   6   19.00    0.55
   1  -7  -6    0.87    0.13
   1  -7  -6    0.52    0.11
   1  -7  -6    0.55    0.11
  -1   7   6    0.55    0.11
  -1   7   6    0.64    0.11
  -1   7   6    0.68    0.13
  -1   7   6    0.90    0.13
   0  -7  -6    3.08    0.22
   0  -7  -6    3.17    0.21
   0  -7  -6    2.64    0.20
   0   7   6    2.85    0.20
   0   7   6    3.04    0.21
   0   7   6    3.13    0.21
   0   7   6    3.07    0.20
  -1  -7  -6    1.43    0.18
  -1  -7  -6    1.37    0.17
  -1  -7  -6    1.24    0.16
   1   7   6    1.35    0.17
   1   7   6    1.33    0.17
   1   7   6    1.51    0.18
   1   7   6    1.30    0.16
  -2  -7  -6    0.99    0.15
  -2  -7  -6    1.13    0.16
  -2  -7  -6    0.83    0.14
   2   7   6    1.14    0.17
   2   7   6    0.98    0.15
   2   7   6    1.01    0.14
  -3  -7  -6    3.33    0.24
  -3  -7  -6    3.19    0.24
  -3  -7  -6    2.84    0.22
   3   7   6    2.88    0.22
   3   7   6    2.80    0.23
   3   7   6    2.89    0.23
  -4  -7  -6   -0.11    0.07
  -4  -7  -6   -0.06    0.07
  -4  -7  -6    0.08    0.09
   4   7   6    0.08    0.09
   4   7   6    0.15    0.10
   4   7   6   -0.05    0.07
  -5  -7  -6   -0.06    0.08
   8  -8  -6    1.60    0.22
  -8   8   6    1.62    0.22
   7  -8  -6    4.35    0.29
  -7   8   6    4.16    0.28
   6  -8  -6    3.69    0.27
  -6   8   6    3.90    0.26
  -6   8   6    4.15    0.42
   5  -8  -6    1.26    0.18
  -5   8   6    1.25    0.29
  -5   8   6    1.40    0.18
   4  -8  -6    2.88    0.19
   4  -8  -6    2.66    0.22
   4  -8  -6    3.03    0.20
  -4   8   6    2.35    0.33
  -4   8   6    3.11    0.19
  -4   8   6    3.07    0.22
  -4   8   6    2.67    0.17
  -4   8   6    2.96    0.18
  -4   8   6    3.19    0.23
   3  -8  -6    1.37    0.16
   3  -8  -6    1.55    0.19
   3  -8  -6    1.27    0.15
  -3   8   6    1.52    0.16
  -3   8   6    1.21    0.16
  -3   8   6    1.31    0.17
  -3   8   6    1.86    0.35
  -3   8   6    1.72    0.17
  -3   8   6    1.60    0.16
   2  -8  -6    6.58    0.34
   2  -8  -6    6.81    0.31
   2  -8  -6    6.71    0.31
  -2   8   6    6.51    0.33
  -2   8   6    6.57    0.31
  -2   8   6    7.37    0.31
  -2   8   6    7.06    0.32
  -2   8   6    6.55    0.30
   1  -8  -6    1.73    0.19
   1  -8  -6    1.94    0.20
   1  -8  -6    1.69    0.20
  -1   8   6    2.28    0.20
  -1   8   6    2.23    0.18
  -1   8   6    2.02    0.20
  -1   8   6    1.91    0.20
  -1   8   6    2.04    0.20
   0  -8  -6    0.84    0.14
   0  -8  -6    0.74    0.14
   0  -8  -6    0.70    0.14
   0   8   6    1.02    0.16
   0   8   6    1.07    0.15
   0   8   6    1.10    0.17
   0   8   6    0.87    0.15
  -1  -8  -6    1.18    0.17
  -1  -8  -6    1.28    0.18
  -1  -8  -6    1.26    0.18
   1   8   6    0.90    0.14
   1   8   6    0.84    0.15
   1   8   6    1.22    0.18
   1   8   6    1.20    0.17
  -2  -8  -6    0.29    0.12
  -2  -8  -6    0.25    0.11
  -2  -8  -6    0.49    0.13
   2   8   6    0.46    0.13
   2   8   6    0.62    0.14
   2   8   6    0.29    0.12
   2   8   6    0.51    0.12
  -3  -8  -6    0.03    0.09
  -3  -8  -6   -0.10    0.08
  -3  -8  -6    0.07    0.09
   3   8   6    0.02    0.09
   3   8   6    0.14    0.10
  -4  -8  -6    4.11    0.29
  -7   9   6    2.88    0.25
   6  -9  -6    1.32    0.20
  -6   9   6    1.40    0.33
  -6   9   6    1.55    0.20
   5  -9  -6    0.66    0.15
  -5   9   6    0.91    0.16
  -5   9   6    1.05    0.29
   4  -9  -6    0.24    0.11
   4  -9  -6    0.32    0.10
   4  -9  -6    0.31    0.10
  -4   9   6    0.21    0.10
  -4   9   6    0.25    0.09
  -4   9   6    0.19    0.19
  -4   9   6    0.24    0.10
  -4   9   6    0.12    0.07
   3  -9  -6    3.87    0.27
   3  -9  -6    4.58    0.26
   3  -9  -6    3.95    0.25
  -3   9   6    4.21    0.28
  -3   9   6    4.08    0.45
  -3   9   6    4.34    0.27
  -3   9   6    4.58    0.25
  -3   9   6    4.32    0.25
   2  -9  -6    1.12    0.17
   2  -9  -6    0.95    0.15
   2  -9  -6    1.05    0.16
  -2   9   6    1.15    0.17
  -2   9   6    0.89    0.14
  -2   9   6    1.20    0.17
  -2   9   6    1.44    0.34
  -2   9   6    1.12    0.15
  -2   9   6    1.13    0.18
   1  -9  -6    1.16    0.18
   1  -9  -6    1.45    0.19
   1  -9  -6    1.12    0.17
  -1   9   6    1.28    0.18
  -1   9   6    1.29    0.18
  -1   9   6    1.33    0.17
  -1   9   6    1.31    0.19
  -1   9   6    1.16    0.17
   0  -9  -6    0.80    0.15
   0  -9  -6    0.93    0.17
   0  -9  -6    0.87    0.16
   0   9   6    0.64    0.14
   0   9   6    0.65    0.15
   0   9   6    0.51    0.13
   0   9   6    0.64    0.13
  -1  -9  -6    0.03    0.09
  -1  -9  -6    0.07    0.09
  -1  -9  -6    0.09    0.10
   1   9   6   -0.02    0.09
   1   9   6    0.17    0.09
   1   9   6    0.06    0.09
   1   9   6    0.04    0.09
  -2  -9  -6    0.83    0.16
   2   9   6    0.79    0.16
  -6  10   6    0.95    0.17
  -6  10   6    1.35    0.35
  -5  10   6    0.21    0.10
  -5  10   6    0.10    0.20
   4 -10  -6    0.57    0.15
   4 -10  -6    0.61    0.13
  -4  10   6    0.60    0.15
  -4  10   6    0.53    0.25
  -4  10   6    0.60    0.14
   3 -10  -6    0.08    0.09
   3 -10  -6    0.10    0.10
   3 -10  -6    0.05    0.09
  -3  10   6    0.15    0.09
  -3  10   6    0.11    0.09
  -3  10   6    0.13    0.09
  -3  10   6    0.10    0.10
  -3  10   6    0.07    0.18
  -3  10   6    0.07    0.08
   2 -10  -6    2.22    0.23
   2 -10  -6    1.92    0.23
   2 -10  -6    2.09    0.23
  -2  10   6    1.70    0.23
  -2  10   6    2.54    0.46
  -2  10   6    1.90    0.22
  -2  10   6    2.11    0.23
  -2  10   6    1.99    0.22
  -2  10   6    2.15    0.22
   1 -10  -6    3.93    0.28
   1 -10  -6    3.44    0.27
   1 -10  -6    3.88    0.28
  -1  10   6    3.73    0.27
  -1  10   6    3.39    0.27
  -1  10   6    3.29    0.26
   0 -10  -6   -0.07    0.08
   0  10   6   -0.09    0.08
   0  10   6   -0.02    0.09
   1  12  -7    0.83    0.21
   0  12  -7    0.80    0.20
  -1  12  -7    1.36    0.21
  -1  12  -7    1.78    0.33
  -1  12  -7    1.43    0.21
  -2  12  -7    0.08    0.11
  -2  12  -7    0.11    0.11
  -2  12  -7    0.76    0.20
  -2  12  -7    0.09    0.10
   2 -12   7    0.24    0.11
   2 -12   7   -0.03    0.09
  -3  12  -7   -0.02    0.09
  -3  12  -7   -0.04    0.09
  -3  12  -7    0.52    0.18
  -3  12  -7   -0.04    0.08
  -3  12  -7    0.04    0.08
   3 -12   7    0.06    0.10
  -4  12  -7    1.31    0.20
  -4  12  -7    1.57    0.21
  -4  12  -7    1.15    0.19
  -4  12  -7    1.32    0.19
   4 -12   7    1.38    0.20
  -5  12  -7    0.42    0.13
  -5  12  -7    0.43    0.14
  -5  12  -7    0.39    0.13
   5 -12   7    0.37    0.13
   2  11  -7    1.01    0.23
   2  11  -7    0.42    0.13
   2  11  -7    0.58    0.15
  -2 -11   7    0.15    0.10
  -2 -11   7    0.43    0.13
   1  11  -7    2.16    0.24
   1  11  -7    2.72    0.25
   1  11  -7    3.59    0.37
   1  11  -7    2.23    0.25
  -1 -11   7    2.89    0.24
  -1 -11   7    2.61    0.26
   0  11  -7    5.05    0.31
   0  11  -7    5.90    0.49
   0  11  -7    5.75    0.34
   0 -11   7    5.04    0.31
  -1  11  -7    0.17    0.10
  -1  11  -7    0.32    0.12
  -1  11  -7    0.81    0.23
  -1  11  -7    0.48    0.13
   1 -11   7    0.42    0.12
  -2  11  -7    0.20    0.10
  -2  11  -7    0.42    0.16
  -2  11  -7    0.14    0.10
  -2  11  -7    0.12    0.11
  -2  11  -7    0.10    0.09
   2 -11   7   -0.03    0.09
  -3  11  -7    1.11    0.17
  -3  11  -7    1.02    0.17
  -3  11  -7    1.02    0.17
  -3  11  -7    1.04    0.17
  -3  11  -7    0.94    0.17
  -3  11  -7    1.94    0.34
   3 -11   7    1.00    0.17
  -4  11  -7    3.61    0.25
  -4  11  -7    3.49    0.26
  -4  11  -7    4.14    0.44
  -4  11  -7    3.73    0.26
  -4  11  -7    3.44    0.25
  -4  11  -7    3.02    0.25
   4 -11   7    2.71    0.23
  -5  11  -7    4.59    0.31
  -5  11  -7    4.94    0.29
  -5  11  -7    4.38    0.28
  -5  11  -7    3.87    0.27
  -5  11  -7    4.78    0.48
   5 -11   7    4.50    0.28
  -6  11  -7    0.06    0.09
  -6  11  -7    0.05    0.09
  -6  11  -7    0.06    0.10
   6 -11   7    0.07    0.09
   6 -11   7   -0.05    0.09
   4  10  -7    0.54    0.14
   4  10  -7    0.56    0.14
   4  10  -7    0.53    0.14
  -4 -10   7    0.75    0.15
  -4 -10   7    0.47    0.13
   3  10  -7    0.82    0.16
   3  10  -7    0.64    0.14
   3  10  -7    0.77    0.15
  -3 -10   7    0.88    0.16
  -3 -10   7    0.87    0.16
   2  10  -7    0.42    0.13
   2  10  -7    1.32    0.26
   2  10  -7    0.61    0.13
   2  10  -7    0.75    0.15
  -2 -10   7    0.87    0.15
  -2 -10   7    0.57    0.13
   1  10  -7    0.59    0.14
   1  10  -7    0.87    0.21
   1  10  -7    0.61    0.14
  -1 -10   7    0.82    0.15
  -1 -10   7    0.86    0.15
   0  10  -7   -0.05    0.07
   0  10  -7    0.13    0.09
   0  10  -7    0.24    0.14
   0  10  -7    0.02    0.07
   0 -10   7    0.13    0.09
  -1  10  -7    3.81    0.25
  -1  10  -7    4.01    0.26
  -1  10  -7    3.68    0.25
  -1  10  -7    3.37    0.24
  -1  10  -7    3.96    0.40
   1 -10   7    3.93    0.26
  -2  10  -7    0.75    0.14
  -2  10  -7    0.55    0.15
  -2  10  -7    0.65    0.14
  -2  10  -7    0.89    0.25
  -2  10  -7    0.63    0.14
  -2  10  -7    0.75    0.14
   2 -10   7    0.73    0.14
  -3  10  -7    6.49    0.54
  -3  10  -7    6.68    0.33
  -3  10  -7    6.87    0.33
  -3  10  -7    6.50    0.37
  -3  10  -7    6.64    0.33
  -3  10  -7    6.38    0.32
   3 -10   7    6.90    0.30
   3 -10   7    6.72    0.33
  -4  10  -7    0.05    0.08
  -4  10  -7    0.05    0.08
  -4  10  -7    0.08    0.09
  -4  10  -7    0.06    0.08
  -4  10  -7   -0.04    0.08
  -4  10  -7    0.17    0.14
   4 -10   7   -0.03    0.06
   4 -10   7    0.14    0.09
  -5  10  -7    0.05    0.08
  -5  10  -7   -0.07    0.07
  -5  10  -7    0.27    0.16
  -5  10  -7   -0.03    0.07
  -5  10  -7    0.04    0.08
  -5  10  -7    0.02    0.07
   5 -10   7    0.03    0.08
  -6  10  -7    2.60    0.27
  -6  10  -7    2.14    0.21
  -6  10  -7    2.37    0.20
  -6  10  -7    2.45    0.20
  -6  10  -7    2.91    0.38
   6 -10   7    2.50    0.20
  -7  10  -7    0.17    0.10
   6   9  -7    0.89    0.15
   6   9  -7    1.18    0.18
   6   9  -7    1.15    0.18
  -6  -9   7    1.14    0.18
   5   9  -7    0.52    0.13
   5   9  -7    0.40    0.13
   5   9  -7    0.66    0.13
  -5  -9   7    0.42    0.12
  -5  -9   7    0.51    0.13
   4   9  -7    0.01    0.08
   4   9  -7    0.00    0.07
   4   9  -7    0.05    0.09
  -4  -9   7    0.03    0.08
  -4  -9   7    0.09    0.08
   3   9  -7    0.39    0.12
   3   9  -7    0.56    0.12
   3   9  -7    1.07    0.21
   3   9  -7    0.28    0.11
  -3  -9   7    0.45    0.11
  -3  -9   7    0.44    0.12
   2   9  -7    2.77    0.22
   2   9  -7    2.32    0.22
   2   9  -7    3.20    0.32
   2   9  -7    3.18    0.22
  -2  -9   7    2.58    0.20
  -2  -9   7    2.84    0.21
   1   9  -7    6.95    0.33
   1   9  -7    6.36    0.32
   1   9  -7    6.95    0.34
   1   9  -7    7.05    0.50
   1   9  -7    6.75    0.36
  -1  -9   7    7.02    0.33
   0   9  -7    7.10    0.34
   0   9  -7    7.26    0.51
   0   9  -7    7.06    0.37
   0   9  -7    6.73    0.33
   0   9  -7    7.17    0.33
   0  -9   7    7.28    0.33
  -1   9  -7    0.10    0.13
  -1   9  -7    0.20    0.09
  -1   9  -7   -0.06    0.06
  -1   9  -7    0.04    0.07
  -1   9  -7    0.02    0.08
   1  -9   7    0.00    0.08
  -2   9  -7    6.86    0.32
  -2   9  -7    6.73    0.36
  -2   9  -7    6.96    0.32
  -2   9  -7    6.67    0.31
  -2   9  -7    5.85    0.29
  -2   9  -7    6.29    0.50
   2  -9   7    6.21    0.30
   2  -9   7    6.76    0.26
  -3   9  -7    2.18    0.36
  -3   9  -7    1.48    0.19
  -3   9  -7    1.55    0.17
  -3   9  -7    1.34    0.17
  -3   9  -7    1.79    0.19
  -3   9  -7    1.41    0.17
  -3   9  -7    1.66    0.18
   3  -9   7    1.68    0.18
  -4   9  -7    3.55    0.23
  -4   9  -7    3.59    0.39
  -4   9  -7    3.24    0.21
  -4   9  -7    3.11    0.25
  -4   9  -7    3.01    0.21
  -4   9  -7    3.69    0.22
   4  -9   7    3.01    0.21
  -5   9  -7    0.44    0.12
  -5   9  -7    0.48    0.12
  -5   9  -7    0.72    0.21
  -5   9  -7    0.54    0.12
  -5   9  -7    0.39    0.11
  -5   9  -7    0.36    0.11
   5  -9   7    0.58    0.12
  -6   9  -7    0.15    0.10
  -6   9  -7    0.01    0.12
  -6   9  -7    0.06    0.08
  -6   9  -7   -0.04    0.06
  -6   9  -7    0.05    0.08
  -6   9  -7    0.18    0.09
   6  -9   7    0.09    0.08
  -7   9  -7    2.10    0.39
  -7   9  -7    1.76    0.23
   6   8  -7   -0.02    0.08
   6   8  -7    0.02    0.07
   6   8  -7    0.01    0.08
  -6  -8   7    0.03    0.08
  -6  -8   7    0.00    0.07
   5   8  -7    0.77    0.15
   5   8  -7    0.60    0.12
   5   8  -7    0.54    0.12
  -5  -8   7    0.51    0.12
  -5  -8   7    0.54    0.12
   4   8  -7   -0.02    0.08
   4   8  -7    0.01    0.08
   4   8  -7    0.00    0.06
  -4  -8   7   -0.01    0.06
  -4  -8   7   -0.02    0.07
  -4  -8   7    0.12    0.09
   3   8  -7    5.91    0.42
   3   8  -7    5.43    0.29
   3   8  -7    5.43    0.29
  -3  -8   7    5.56    0.29
  -3  -8   7    5.19    0.27
   2   8  -7   11.12    0.61
   2   8  -7    9.70    0.43
   2   8  -7   10.09    0.40
   2   8  -7   10.93    0.41
   2   8  -7   10.49    0.40
  -2  -8   7   11.15    0.40
   1   8  -7    0.36    0.10
   1   8  -7    0.46    0.12
   1   8  -7    0.74    0.19
   1   8  -7    0.49    0.11
   1   8  -7    0.37    0.10
  -1  -8   7    0.44    0.10
   0   8  -7    4.22    0.36
   0   8  -7    4.05    0.24
   0   8  -7    4.14    0.24
   0   8  -7    4.29    0.24
   0   8  -7    4.40    0.27
   0  -8   7    3.91    0.23
  -1   8  -7    0.13    0.08
  -1   8  -7    0.12    0.07
  -1   8  -7    0.26    0.15
  -1   8  -7    0.15    0.09
  -1   8  -7    0.40    0.10
   1  -8   7    0.16    0.08
   1  -8   7    0.35    0.07
  -2   8  -7    1.18    0.15
  -2   8  -7    1.00    0.14
  -2   8  -7    0.88    0.14
  -2   8  -7    0.94    0.23
  -2   8  -7    0.89    0.12
  -2   8  -7    0.73    0.12
   2  -8   7    0.58    0.11
  -3   8  -7    5.27    0.26
  -3   8  -7    5.25    0.26
  -3   8  -7    5.27    0.25
  -3   8  -7    5.52    0.45
  -3   8  -7    5.15    0.26
  -3   8  -7    5.31    0.30
   3  -8   7    5.05    0.26
  -4   8  -7    0.38    0.17
  -4   8  -7    0.18    0.07
  -4   8  -7    0.28    0.09
  -4   8  -7    0.21    0.08
  -4   8  -7    0.22    0.10
   4  -8   7    0.28    0.09
  -5   8  -7   12.07    0.76
  -5   8  -7   11.48    0.41
  -5   8  -7   12.04    0.48
  -5   8  -7   11.94    0.42
  -5   8  -7   12.25    0.48
   5  -8   7   12.19    0.42
  -6   8  -7    0.00    0.07
  -6   8  -7    0.09    0.09
  -6   8  -7    0.20    0.14
  -6   8  -7    0.07    0.08
  -6   8  -7    0.15    0.08
   6  -8   7    0.11    0.07
  -7   8  -7    0.31    0.10
  -7   8  -7    0.36    0.11
  -7   8  -7    0.17    0.09
  -7   8  -7    0.43    0.13
   7  -8   7    0.27    0.10
  -8   8  -7    5.34    0.35
  -7  -7   7    0.39    0.12
   6   7  -7    1.60    0.17
   6   7  -7    1.65    0.19
   6   7  -7    1.39    0.16
  -6  -7   7    1.26    0.18
  -6  -7   7    1.47    0.17
  -6  -7   7    1.68    0.17
   5   7  -7   -0.01    0.05
   5   7  -7    0.02    0.07
   5   7  -7    0.03    0.07
  -5  -7   7    0.05    0.07
  -5  -7   7    0.07    0.06
  -5  -7   7    0.05    0.07
   4   7  -7    4.79    0.24
   4   7  -7    4.63    0.26
   4   7  -7    6.03    0.39
   4   7  -7    4.75    0.26
  -4  -7   7    4.92    0.26
  -4  -7   7    5.24    0.26
  -4  -7   7    4.60    0.23
   3   7  -7    1.70    0.18
   3   7  -7    2.10    0.24
   3   7  -7    1.89    0.18
   3   7  -7    1.65    0.18
   3   7  -7    1.65    0.19
  -3  -7   7    2.31    0.17
   2   7  -7    0.36    0.09
   2   7  -7    0.39    0.10
   2   7  -7    0.44    0.10
   2   7  -7    0.41    0.10
   2   7  -7    0.73    0.17
  -2  -7   7    0.47    0.10
   1   7  -7   10.67    0.37
   1   7  -7   10.27    0.38
   1   7  -7   10.67    0.42
   1   7  -7   10.85    0.58
   1   7  -7   10.85    0.38
  -1  -7   7   10.01    0.37
   0   7  -7    2.78    0.18
   0   7  -7    2.39    0.19
   0   7  -7    2.39    0.18
   0   7  -7    2.74    0.18
   0   7  -7    2.29    0.26
   0  -7   7    2.47    0.17
   0  -7   7    2.47    0.12
  -1   7  -7    5.53    0.26
  -1   7  -7    5.39    0.26
  -1   7  -7    5.93    0.42
  -1   7  -7    5.44    0.29
  -1   7  -7    5.94    0.27
   1  -7   7    5.63    0.26
  -2   7  -7    0.54    0.09
  -2   7  -7    0.69    0.11
  -2   7  -7    0.63    0.10
  -2   7  -7    0.73    0.13
  -2   7  -7    1.18    0.24
   2  -7   7    0.53    0.10
  -3   7  -7    0.82    0.21
  -3   7  -7    0.62    0.12
  -3   7  -7    0.47    0.09
  -3   7  -7    0.49    0.10
  -3   7  -7    0.70    0.10
   3  -7   7    0.60    0.11
  -4   7  -7   13.64    0.50
  -4   7  -7   13.28    0.43
  -4   7  -7   12.91    0.43
  -4   7  -7   13.86    0.41
  -4   7  -7   13.30    0.75
   4  -7   7   13.18    0.42
  -5   7  -7    0.18    0.14
  -5   7  -7    0.10    0.08
  -5   7  -7    0.08    0.07
  -5   7  -7    0.23    0.09
  -5   7  -7    0.00    0.06
   5  -7   7    0.14    0.07
  -6   7  -7    6.21    0.28
  -6   7  -7    5.95    0.28
  -6   7  -7    6.47    0.54
  -6   7  -7    7.05    0.34
  -6   7  -7    6.80    0.35
   6  -7   7    6.52    0.29
  -7   7  -7    0.58    0.12
  -7   7  -7    0.52    0.12
  -7   7  -7    0.54    0.13
  -7   7  -7    0.50    0.11
   7  -7   7    0.46    0.10
  -8   7  -7    0.09    0.09
  -7  -6   7    0.54    0.11
  -7  -6   7    0.62    0.13
  -7  -6   7    0.57    0.12
   6   6  -7    0.05    0.07
   6   6  -7    0.09    0.06
   6   6  -7    0.00    0.06
  -6  -6   7    0.08    0.07
  -6  -6   7    0.06    0.06
  -6  -6   7    0.14    0.07
  -6  -6   7    0.04    0.06
   5   6  -7    1.76    0.16
   5   6  -7    1.86    0.19
   5   6  -7    1.67    0.17
  -5  -6   7    1.90    0.15
  -5  -6   7    1.75    0.15
  -5  -6   7    1.72    0.17
   4   6  -7    0.19    0.09
   4   6  -7    0.04    0.07
   4   6  -7    0.03    0.06
   4   6  -7   -0.04    0.06
  -4  -6   7    0.03    0.06
  -4  -6   7   -0.01    0.05
   3   6  -7   16.20    0.49
   3   6  -7   16.47    0.53
   3   6  -7   15.23    0.47
   3   6  -7   16.56    0.71
   3   6  -7   16.70    0.49
  -3  -6   7   15.83    0.47
   2   6  -7   11.41    0.38
   2   6  -7   11.40    0.42
   2   6  -7   11.35    0.55
   2   6  -7   12.41    0.39
   2   6  -7   11.46    0.39
  -2  -6   7   12.00    0.38
   1   6  -7    0.86    0.12
   1   6  -7    1.00    0.13
   1   6  -7    0.80    0.13
   1   6  -7    1.07    0.13
   1   6  -7    1.03    0.19
  -1  -6   7    0.80    0.11
  -1  -6   7    0.92    0.05
   0   6  -7    0.43    0.10
   0   6  -7    0.34    0.08
   0   6  -7    0.45    0.13
   0   6  -7    0.24    0.08
   0  -6   7    0.33    0.08
  -1   6  -7    0.11    0.06
  -1   6  -7    0.05    0.05
  -1   6  -7    0.19    0.11
  -1   6  -7    0.06    0.06
   1  -6   7    0.18    0.07
  -2   6  -7   44.96    0.97
  -2   6  -7   43.41    1.63
  -2   6  -7   44.88    0.96
  -2   6  -7   43.37    1.10
  -2   6  -7   43.45    0.97
   2  -6   7   43.91    0.97
  -3   6  -7   16.70    0.48
  -3   6  -7   17.85    0.45
  -3   6  -7   16.42    0.82
  -3   6  -7   17.16    0.49
  -3   6  -7   17.30    0.56
   3  -6   7   16.79    0.48
  -4   6  -7    0.02    0.10
  -4   6  -7    0.01    0.06
  -4   6  -7   -0.02    0.06
  -4   6  -7    0.02    0.06
   4  -6   7   -0.01    0.06
  -5   6  -7    4.60    0.42
  -5   6  -7    4.73    0.23
  -5   6  -7    5.05    0.24
  -5   6  -7    5.08    0.27
  -5   6  -7    4.90    0.27
   5  -6   7    4.78    0.23
  -6   6  -7    3.31    0.20
  -6   6  -7    3.40    0.23
  -6   6  -7    3.66    0.21
  -6   6  -7    3.36    0.24
   6  -6   7    3.49    0.20
  -7   6  -7    2.04    0.16
  -7   6  -7    2.33    0.24
  -7   6  -7    2.39    0.20
  -7   6  -7    2.26    0.17
   7  -6   7    2.14    0.16
  -8   6  -7    3.55    0.27
  -9   6  -7   -0.02    0.09
  -8  -5   7    0.30    0.10
  -8  -5   7    0.20    0.10
  -8  -5   7    0.32    0.10
  -7  -5   7    1.46    0.17
  -7  -5   7    1.93    0.19
  -7  -5   7    2.12    0.21
   6   5  -7    1.69    0.13
   6   5  -7    1.88    0.15
   6   5  -7    1.96    0.16
  -6  -5   7    1.85    0.19
  -6  -5   7    1.84    0.16
  -6  -5   7    1.86    0.15
  -6  -5   7    1.83    0.14
   5   5  -7    0.26    0.07
   5   5  -7    0.24    0.08
   5   5  -7    0.24    0.08
  -5  -5   7    0.25    0.08
  -5  -5   7    0.27    0.08
  -5  -5   7    0.25    0.08
  -5  -5   7    0.23    0.08
   4   5  -7   10.86    0.50
   4   5  -7   10.89    0.35
   4   5  -7   10.67    0.36
   4   5  -7   10.65    0.34
   4   5  -7   10.50    0.38
  -4  -5   7   10.38    0.35
  -4  -5   7   10.53    0.35
   3   5  -7   17.52    0.54
   3   5  -7   18.55    0.49
   3   5  -7   18.21    0.72
   3   5  -7   18.14    0.49
   3   5  -7   18.08    0.51
  -3  -5   7   19.31    0.50
   2   5  -7    3.98    0.20
   2   5  -7    3.95    0.19
   2   5  -7    3.89    0.20
   2   5  -7    3.82    0.21
   2   5  -7    3.72    0.26
  -2  -5   7    3.95    0.19
   1   5  -7    0.05    0.05
   1   5  -7    0.03    0.07
   1   5  -7    0.04    0.05
   1   5  -7    0.04    0.05
  -1  -5   7    0.03    0.05
  -1  -5   7    0.03    0.02
   0   5  -7    3.00    0.17
   0   5  -7    3.22    0.17
   0   5  -7    2.84    0.24
   0   5  -7    3.07    0.19
   0  -5   7    3.08    0.17
  -1   5  -7   39.34    0.87
  -1   5  -7   39.88    0.98
  -1   5  -7   39.92    0.87
  -1   5  -7   38.31    1.42
   1  -5   7   39.51    0.86
  -2   5  -7   13.37    0.35
  -2   5  -7   12.69    0.64
  -2   5  -7   13.81    0.40
  -2   5  -7   13.24    0.39
   2  -5   7   13.85    0.29
   2  -5   7   13.11    0.39
  -3   5  -7    8.98    0.31
  -3   5  -7    8.90    0.53
  -3   5  -7    8.97    0.26
  -3   5  -7    9.53    0.31
   3  -5   7    8.72    0.30
  -4   5  -7    6.18    0.25
  -4   5  -7    5.97    0.27
  -4   5  -7    6.07    0.45
  -4   5  -7    6.41    0.26
   4  -5   7    6.55    0.26
  -5   5  -7    4.16    0.21
  -5   5  -7    3.68    0.22
  -5   5  -7    3.85    0.23
  -5   5  -7    3.73    0.20
   5  -5   7    4.06    0.20
  -6   5  -7   13.52    0.43
  -6   5  -7   14.54    0.51
  -6   5  -7   14.40    0.43
  -6   5  -7   15.01    0.48
   6  -5   7   13.89    0.43
  -7   5  -7    3.12    0.23
  -7   5  -7    2.98    0.19
  -7   5  -7    3.07    0.21
  -7   5  -7    3.50    0.20
   7  -5   7    3.46    0.20
  -8   5  -7    0.03    0.08
  -9   5  -7    1.80    0.23
  -9  -4   7    0.11    0.08
  -9  -4   7    0.04    0.08
  -9  -4   7    0.14    0.10
  -8  -4   7    4.30    0.26
  -8  -4   7    4.48    0.26
  -8  -4   7    4.20    0.27
  -7  -4   7    3.03    0.21
  -7  -4   7    3.04    0.21
  -7  -4   7    3.35    0.21
   6   4  -7    5.60    0.23
   6   4  -7    4.93    0.21
   6   4  -7    5.55    0.21
  -6  -4   7    5.80    0.26
  -6  -4   7    5.63    0.22
  -6  -4   7    5.15    0.27
  -6  -4   7    4.90    0.25
   5   4  -7    1.48    0.13
   5   4  -7    1.48    0.12
  -5  -4   7    1.38    0.11
  -5  -4   7    1.63    0.14
  -5  -4   7    1.36    0.14
  -5  -4   7    1.57    0.11
   4   4  -7    5.64    0.22
   4   4  -7    5.15    0.27
   4   4  -7    5.43    0.21
   4   4  -7    5.12    0.23
   4   4  -7    5.15    0.22
  -4  -4   7    5.23    0.21
  -4  -4   7    5.01    0.23
   3   4  -7    8.93    0.29
   3   4  -7    8.18    0.31
   3   4  -7    8.95    0.39
   3   4  -7    9.10    0.30
   3   4  -7    9.10    0.29
  -3  -4   7    9.72    0.30
   2   4  -7   19.41    0.48
   2   4  -7   18.56    0.48
   2   4  -7   18.48    0.53
   2   4  -7   18.23    0.69
  -2  -4   7   19.05    0.48
   1   4  -7   34.42    0.77
   1   4  -7   34.31    1.20
   1   4  -7   36.34    0.77
   1   4  -7   35.01    0.87
  -1  -4   7   35.35    0.67
  -1  -4   7   35.84    0.77
  -1  -4   7   34.67    0.67
   0   4  -7   29.39    0.66
   0   4  -7   28.23    1.04
   0   4  -7   28.84    0.66
   0  -4   7   28.41    0.65
   0  -4   7   28.43    0.55
  -1   4  -7   29.47    0.67
  -1   4  -7   28.62    1.09
  -1   4  -7   29.04    0.71
  -1   4  -7   30.42    0.68
   1  -4   7   29.71    0.67
  -2   4  -7   25.29    0.65
  -2   4  -7   26.80    0.62
  -2   4  -7   26.21    0.61
  -2   4  -7   25.11    1.02
  -2   4  -7   25.88    0.55
   2  -4   7   25.36    0.61
  -3   4  -7   18.38    0.47
  -3   4  -7   17.14    0.50
  -3   4  -7   18.64    0.48
   3  -4   7   17.96    0.47
  -4   4  -7    3.50    0.18
  -4   4  -7    3.64    0.20
  -4   4  -7    3.57    0.18
   4  -4   7    3.79    0.19
  -5   4  -7    8.43    0.34
  -5   4  -7    8.80    0.31
  -5   4  -7    9.42    0.32
  -5   4  -7    8.63    0.33
   5  -4   7    8.60    0.31
  -6   4  -7    1.19    0.13
  -6   4  -7    1.00    0.13
  -6   4  -7    1.22    0.16
  -6   4  -7    1.38    0.16
   6  -4   7    1.32    0.14
  -7   4  -7    2.78    0.21
  -7   4  -7    3.26    0.19
  -7   4  -7    3.75    0.22
  -7   4  -7    2.85    0.18
   7  -4   7    3.31    0.19
  -8   4  -7    1.96    0.19
  -8   4  -7    1.70    0.20
  -9   4  -7   -0.03    0.08
 -10  -3   7    1.97    0.22
  -9  -3   7    1.28    0.18
  -9  -3   7    1.47    0.18
  -9  -3   7    1.50    0.18
  -8  -3   7    1.42    0.17
  -8  -3   7    1.34    0.16
  -8  -3   7    1.56    0.18
  -7  -3   7    1.47    0.16
  -7  -3   7    1.57    0.18
  -7  -3   7    1.56    0.16
   6   3  -7    0.13    0.05
   6   3  -7    0.22    0.06
   6   3  -7    0.18    0.06
  -6  -3   7    0.12    0.05
  -6  -3   7    0.13    0.06
  -6  -3   7    0.22    0.07
  -6  -3   7    0.07    0.05
   5   3  -7   13.05    0.36
   5   3  -7   13.24    0.39
   5   3  -7   13.60    0.37
   5   3  -7   13.39    0.38
  -5  -3   7   13.62    0.39
  -5  -3   7   13.98    0.36
  -5  -3   7   13.57    0.42
  -5  -3   7   13.85    0.42
   4   3  -7   23.12    0.62
   4   3  -7   25.13    0.56
   4   3  -7   23.96    0.57
   4   3  -7   25.13    0.56
  -4  -3   7   24.87    0.62
  -4  -3   7   24.52    0.60
  -4  -3   7   24.48    0.56
   3   3  -7    1.08    0.10
   3   3  -7    1.13    0.11
   3   3  -7    1.16    0.09
   3   3  -7    1.10    0.10
  -3  -3   7    1.24    0.10
  -3  -3   7    1.22    0.08
   2   3  -7   10.08    0.30
   2   3  -7   10.02    0.29
   2   3  -7    9.25    0.37
   2   3  -7    9.64    0.32
  -2  -3   7   10.12    0.26
  -2  -3   7    9.91    0.29
   1   3  -7    1.52    0.13
   1   3  -7    1.32    0.10
   1   3  -7    1.60    0.11
  -1  -3   7    1.54    0.11
  -1  -3   7    1.50    0.08
  -1  -3   7    1.67    0.14
  -1  -3   7    1.47    0.07
   0   3  -7   86.25    2.70
   0   3  -7   86.19    1.64
   0   3  -7   85.70    1.62
   0   3  -7   83.31    1.73
   0  -3   7   85.39    1.62
  -1   3  -7   67.77    1.44
  -1   3  -7   71.77    1.36
  -1   3  -7   71.25    1.37
  -1   3  -7   69.01    1.32
   1  -3   7   67.63    1.35
  -2   3  -7    2.09    0.14
  -2   3  -7    2.26    0.14
  -2   3  -7    2.23    0.14
   2  -3   7    2.29    0.14
  -3   3  -7    1.84    0.13
  -3   3  -7    2.03    0.13
  -3   3  -7    2.24    0.15
   3  -3   7    1.80    0.13
   3  -3   7    1.98    0.07
  -4   3  -7    1.47    0.12
  -4   3  -7    1.71    0.14
  -4   3  -7    1.70    0.13
   4  -3   7    1.56    0.12
  -5   3  -7    0.04    0.05
  -5   3  -7    0.08    0.06
  -5   3  -7    0.05    0.06
  -5   3  -7   -0.06    0.05
   5  -3   7    0.02    0.05
  -6   3  -7   21.36    0.56
  -6   3  -7   20.78    0.61
  -6   3  -7   20.71    0.60
  -6   3  -7   20.75    0.56
   6  -3   7   20.75    0.55
  -7   3  -7    0.07    0.07
  -7   3  -7    0.01    0.06
  -7   3  -7   -0.01    0.06
  -7   3  -7   -0.02    0.06
   7  -3   7   -0.02    0.06
  -8   3  -7    1.26    0.17
  -8   3  -7    1.18    0.16
   8  -3   7    1.13    0.14
  -9   3  -7    0.09    0.09
 -10  -2   7    0.38    0.12
  -9  -2   7    1.01    0.16
  -9  -2   7    0.95    0.15
  -9  -2   7    0.94    0.15
  -8  -2   7    1.71    0.19
  -8  -2   7    1.82    0.18
  -8  -2   7    1.69    0.18
  -7  -2   7    2.63    0.18
  -7  -2   7    2.75    0.19
  -7  -2   7    2.76    0.18
   6   2  -7    0.75    0.06
   6   2  -7    0.56    0.06
   6   2  -7    0.86    0.07
  -6  -2   7    0.65    0.10
  -6  -2   7    0.51    0.10
  -6  -2   7    0.59    0.10
   5   2  -7    9.29    0.28
   5   2  -7    9.98    0.23
   5   2  -7    9.67    0.28
   5   2  -7    9.82    0.27
   5   2  -7    9.88    0.26
  -5  -2   7    9.46    0.32
  -5  -2   7    9.33    0.33
  -5  -2   7    9.51    0.30
  -5  -2   7    9.44    0.26
  -5  -2   7    9.60    0.32
   4   2  -7    5.54    0.14
   4   2  -7    5.61    0.21
   4   2  -7    5.67    0.19
   4   2  -7    5.55    0.20
   4   2  -7    5.44    0.19
  -4  -2   7    5.88    0.22
  -4  -2   7    5.22    0.19
  -4  -2   7    5.62    0.23
  -4  -2   7    5.66    0.21
  -4  -2   7    5.35    0.21
   3   2  -7   19.63    0.51
   3   2  -7   20.61    0.40
   3   2  -7   19.39    0.46
   3   2  -7   18.79    0.45
  -3  -2   7   20.28    0.45
  -3  -2   7   19.87    0.47
  -3  -2   7   19.07    0.46
  -3  -2   7   19.76    0.45
   2   2  -7    2.75    0.09
   2   2  -7    2.67    0.13
   2   2  -7    2.73    0.13
  -2  -2   7    2.52    0.13
  -2  -2   7    2.24    0.10
  -2  -2   7    2.63    0.12
   1   2  -7    1.15    0.09
   1   2  -7    0.97    0.09
   1   2  -7    1.16    0.09
   1   2  -7    1.17    0.07
  -1  -2   7    1.13    0.10
  -1  -2   7    1.17    0.07
  -1  -2   7    1.17    0.08
  -1  -2   7    1.18    0.09
   0   2  -7   33.99    0.72
   0   2  -7   32.88    0.72
   0   2  -7   33.33    0.76
   0   2  -7   34.06    0.70
   0  -2   7   34.27    0.72
  -1   2  -7    8.61    0.26
  -1   2  -7    9.30    0.28
  -1   2  -7    9.63    0.29
  -1   2  -7    9.72    0.31
   1  -2   7    9.12    0.28
  -2   2  -7   40.03    0.84
  -2   2  -7   39.78    0.89
  -2   2  -7   39.24    0.84
   2  -2   7   38.91    0.83
   2  -2   7   38.98    0.76
  -3   2  -7    3.96    0.18
  -3   2  -7    3.52    0.17
  -3   2  -7    3.59    0.19
   3  -2   7    4.00    0.18
  -4   2  -7   10.73    0.34
  -4   2  -7   10.16    0.36
  -4   2  -7   11.26    0.34
   4  -2   7   10.86    0.34
  -5   2  -7    0.38    0.09
  -5   2  -7    0.49    0.10
  -5   2  -7    0.46    0.09
  -5   2  -7    0.39    0.09
   5  -2   7    0.41    0.08
  -6   2  -7    0.52    0.10
  -6   2  -7    0.52    0.10
  -6   2  -7    0.46    0.10
  -6   2  -7    0.58    0.10
   6  -2   7    0.54    0.10
  -7   2  -7    8.22    0.32
  -7   2  -7    8.75    0.36
  -7   2  -7    8.37    0.35
  -7   2  -7    8.87    0.33
   7  -2   7    7.92    0.31
  -8   2  -7    0.30    0.09
  -8   2  -7    0.26    0.10
  -8   2  -7    0.35    0.11
   8  -2   7    0.24    0.08
 -10  -1   7    0.75    0.15
 -10  -1   7    0.59    0.14
  -9  -1   7    1.74    0.20
  -9  -1   7    1.55    0.19
  -9  -1   7    1.66    0.18
  -8  -1   7    0.01    0.06
  -8  -1   7    0.00    0.06
  -8  -1   7    0.00    0.05
  -7  -1   7    0.75    0.12
  -7  -1   7    0.59    0.10
  -7  -1   7    0.71    0.12
   6   1  -7    0.45    0.05
   6   1  -7    0.52    0.06
  -6  -1   7    0.32    0.08
  -6  -1   7    0.23    0.07
  -6  -1   7    0.26    0.07
  -6  -1   7    0.15    0.07
   5   1  -7    3.71    0.14
   5   1  -7    3.61    0.13
   5   1  -7    3.31    0.13
   5   1  -7    3.44    0.13
   5   1  -7    3.35    0.12
  -5  -1   7    3.46    0.17
  -5  -1   7    3.46    0.18
  -5  -1   7    3.62    0.17
  -5  -1   7    3.00    0.18
  -5  -1   7    3.25    0.12
   4   1  -7   24.45    0.52
   4   1  -7   24.06    0.57
   4   1  -7   24.35    0.52
   4   1  -7   25.38    0.52
  -4  -1   7   24.83    0.52
  -4  -1   7   23.65    0.53
  -4  -1   7   24.16    0.54
  -4  -1   7   23.49    0.58
  -4  -1   7   24.78    0.60
  -4  -1   7   25.11    0.57
   3   1  -7    1.38    0.07
   3   1  -7    1.49    0.09
   3   1  -7    1.25    0.09
  -3  -1   7    1.52    0.11
  -3  -1   7    1.31    0.09
  -3  -1   7    1.26    0.10
  -3  -1   7    1.43    0.09
  -3  -1   7    1.46    0.09
  -3  -1   7    1.24    0.08
   2   1  -7   52.31    1.01
   2   1  -7   51.97    1.06
   2   1  -7   51.99    1.00
   2   1  -7   51.21    1.00
  -2  -1   7   51.79    0.94
  -2  -1   7   51.16    1.03
  -2  -1   7   49.80    1.00
  -2  -1   7   50.85    0.99
  -2  -1   7   52.58    1.06
   1   1  -7   39.04    0.78
   1   1  -7   37.83    0.83
   1   1  -7   37.98    0.78
   1   1  -7   38.13    0.79
  -1  -1   7   38.26    0.69
  -1  -1   7   38.20    0.73
  -1  -1   7   38.77    0.78
  -1  -1   7   37.08    0.79
  -1  -1   7   39.67    1.24
   0   1  -7   54.30    1.07
   0   1  -7   52.63    1.08
   0   1  -7   53.74    1.07
   0   1  -7   54.82    1.14
   0   1  -7   55.14    1.02
   0  -1   7   55.17    1.07
   0  -1   7   54.09    0.92
  -1   1  -7   79.18    1.59
  -1   1  -7   76.98    1.51
  -1   1  -7   79.06    1.51
  -1   1  -7   77.77    1.49
   1  -1   7   74.61    1.49
   1  -1   7   78.78    1.39
  -2   1  -7    9.86    0.30
  -2   1  -7    9.82    0.30
  -2   1  -7    8.46    0.29
  -2   1  -7    9.21    0.31
   2  -1   7    9.47    0.21
   2  -1   7    9.51    0.30
  -3   1  -7    7.46    0.26
  -3   1  -7    6.85    0.27
  -3   1  -7    6.92    0.25
   3  -1   7    6.28    0.24
  -4   1  -7    6.25    0.25
  -4   1  -7    6.67    0.25
  -4   1  -7    6.67    0.28
  -4   1  -7    6.59    0.26
   4  -1   7    6.38    0.25
  -5   1  -7   17.88    0.50
  -5   1  -7   18.39    0.50
  -5   1  -7   17.74    0.53
  -5   1  -7   16.95    0.49
   5  -1   7   17.23    0.49
  -6   1  -7    1.18    0.14
  -6   1  -7    1.19    0.15
  -6   1  -7    1.38    0.14
  -6   1  -7    1.52    0.15
   6  -1   7    1.08    0.13
  -7   1  -7    0.35    0.10
  -7   1  -7    0.15    0.08
  -7   1  -7    0.19    0.08
  -7   1  -7    0.22    0.09
   7  -1   7    0.28    0.09
  -8   1  -7    2.43    0.20
  -8   1  -7    2.57    0.19
  -8   1  -7    2.68    0.19
   8  -1   7    2.72    0.19
 -10   0   7    0.01    0.07
 -10   0   7   -0.04    0.06
 -10   0   7    0.06    0.08
  -9   0   7    0.68    0.13
  -9   0   7    1.11    0.17
  -9   0   7    0.61    0.11
  -8   0   7    2.77    0.20
  -8   0   7    2.60    0.19
  -8   0   7    2.95    0.20
   7   0  -7    0.38    0.07
  -7   0   7    0.39    0.09
  -7   0   7    0.46    0.10
  -7   0   7    0.43    0.10
  -7   0   7    0.43    0.09
   6   0  -7   44.84    0.91
  -6   0   7   42.93    0.96
  -6   0   7   43.31    0.99
  -6   0   7   41.81    0.90
  -6   0   7   42.17    0.98
   5   0  -7    0.22    0.04
   5   0  -7    0.25    0.04
   5   0  -7    0.24    0.04
   5   0  -7    0.36    0.06
  -5   0   7    0.24    0.06
  -5   0   7    0.21    0.06
  -5   0   7    0.25    0.07
  -5   0   7    0.24    0.04
  -5   0   7    0.16    0.06
   4   0  -7   11.72    0.31
   4   0  -7   11.65    0.28
   4   0  -7   11.56    0.26
   4   0  -7   11.45    0.28
  -4   0   7   11.43    0.31
  -4   0   7   11.52    0.28
  -4   0   7   11.72    0.35
  -4   0   7   10.79    0.34
  -4   0   7   11.88    0.33
   3   0  -7   13.67    0.33
   3   0  -7   13.59    0.34
   3   0  -7   13.79    0.34
   3   0  -7   13.40    0.33
  -3   0   7   12.94    0.37
  -3   0   7   13.36    0.33
  -3   0   7   13.35    0.32
  -3   0   7   14.56    0.38
  -3   0   7   13.57    0.34
   2   0  -7   16.59    0.42
   2   0  -7   16.49    0.40
   2   0  -7   17.51    0.40
   2   0  -7   16.91    0.40
  -2   0   7   16.93    0.40
  -2   0   7   17.40    0.37
  -2   0   7   17.37    0.43
  -2   0   7   17.70    0.37
   1   0  -7   15.51    0.38
   1   0  -7   15.34    0.38
   1   0  -7   15.28    0.40
   1   0  -7   14.79    0.37
   1   0  -7   15.73    0.35
  -1   0   7   14.85    0.37
  -1   0   7   15.17    0.31
   0   0  -7   10.18    0.29
   0   0  -7   10.27    0.30
   0   0  -7   10.10    0.31
   0   0  -7   10.07    0.29
   0   0   7   10.47    0.29
  -1   0  -7   20.08    0.49
  -1   0  -7   20.36    0.49
  -1   0  -7   20.00    0.48
  -1   0  -7   19.05    0.51
   1   0   7   19.49    0.48
  -2   0  -7    6.86    0.25
  -2   0  -7    6.56    0.26
  -2   0  -7    6.35    0.24
  -2   0  -7    6.68    0.25
   2   0   7    6.24    0.24
  -3   0  -7    0.73    0.10
  -3   0  -7    0.89    0.11
  -3   0  -7    0.94    0.11
  -3   0  -7    0.85    0.11
   3   0   7    0.89    0.11
  -4   0  -7   16.76    0.47
  -4   0  -7   16.66    0.50
  -4   0  -7   16.73    0.33
  -4   0  -7   16.21    0.44
  -4   0  -7   16.73    0.47
   4   0   7   16.98    0.47
  -5   0  -7    5.02    0.24
  -5   0  -7    5.06    0.25
  -5   0  -7    5.12    0.22
  -5   0  -7    5.53    0.25
   5   0   7    4.62    0.23
  -6   0  -7    3.02    0.21
  -6   0  -7    2.96    0.20
  -6   0  -7    2.98    0.19
  -6   0  -7    3.69    0.19
   6   0   7    3.26    0.20
  -7   0  -7    0.76    0.13
  -7   0  -7    0.64    0.12
  -7   0  -7    0.37    0.11
   7   0   7    0.51    0.11
  -8   0  -7    0.25    0.10
  -8   0  -7    0.13    0.09
  -8   0  -7    0.18    0.09
   8   0   7    0.12    0.08
 -10   1   7    2.57    0.24
 -10   1   7    2.56    0.25
 -10   1   7    2.52    0.25
  -9   1   7    0.10    0.08
  -9   1   7    0.04    0.06
  -9   1   7    0.05    0.07
   8  -1  -7    2.71    0.17
  -8   1   7    2.89    0.20
  -8   1   7    2.59    0.20
  -8   1   7    3.10    0.22
  -8   1   7    2.60    0.19
   7  -1  -7    2.22    0.15
  -7   1   7    2.51    0.17
  -7   1   7    2.71    0.17
  -7   1   7    2.58    0.18
  -7   1   7    2.09    0.17
   6  -1  -7   14.72    0.42
  -6   1   7   15.26    0.44
  -6   1   7   14.84    0.47
  -6   1   7   15.26    0.43
   5  -1  -7   19.05    0.48
   5  -1  -7   19.80    0.39
   5  -1  -7   19.40    0.39
  -5   1   7   19.66    0.52
  -5   1   7   18.80    0.53
  -5   1   7   19.93    0.48
  -5   1   7   18.80    0.49
  -5   1   7   19.50    0.39
   4  -1  -7    4.28    0.18
   4  -1  -7    4.19    0.14
   4  -1  -7    3.97    0.13
   4  -1  -7    4.20    0.14
   4  -1  -7    4.25    0.14
  -4   1   7    4.19    0.14
  -4   1   7    4.06    0.18
  -4   1   7    3.85    0.18
  -4   1   7    4.21    0.20
  -4   1   7    4.19    0.17
  -4   1   7    4.19    0.17
   3  -1  -7   25.07    0.53
   3  -1  -7   25.12    0.58
   3  -1  -7   25.59    0.54
   3  -1  -7   26.39    0.56
  -3   1   7   25.29    0.59
  -3   1   7   24.89    0.53
  -3   1   7   25.44    0.54
  -3   1   7   25.73    0.84
  -3   1   7   24.86    0.53
  -3   1   7   24.85    0.61
   2  -1  -7    5.25    0.19
   2  -1  -7    5.02    0.19
   2  -1  -7    5.59    0.19
   2  -1  -7    5.36    0.18
  -2   1   7    5.64    0.21
  -2   1   7    5.35    0.19
  -2   1   7    5.17    0.18
   1  -1  -7   10.43    0.31
   1  -1  -7    9.87    0.29
   1  -1  -7   10.55    0.23
   1  -1  -7   10.45    0.29
   1  -1  -7   10.40    0.30
  -1   1   7    9.76    0.28
   0  -1  -7   45.41    1.01
   0  -1  -7   46.83    0.98
   0  -1  -7   46.15    0.95
   0  -1  -7   46.15    0.81
   0  -1  -7   47.94    0.95
   0   1   7   47.27    0.96
   0   1   7   47.62    0.92
  -1  -1  -7    6.17    0.23
  -1  -1  -7    6.14    0.23
  -1  -1  -7    6.22    0.13
  -1  -1  -7    6.01    0.24
  -1  -1  -7    6.16    0.23
   1   1   7    5.92    0.22
   1   1   7    6.15    0.22
   1   1   7    6.18    0.16
  -2  -1  -7   42.05    0.97
  -2  -1  -7   41.65    0.93
  -2  -1  -7   41.93    0.90
  -2  -1  -7   42.07    0.90
   2   1   7   42.43    0.91
   2   1   7   41.79    0.87
  -3  -1  -7   16.10    0.40
  -3  -1  -7   16.26    0.45
  -3  -1  -7   15.75    0.48
  -3  -1  -7   15.34    0.46
  -3  -1  -7   15.48    0.31
  -3  -1  -7   15.86    0.45
   3   1   7   15.36    0.43
   3   1   7   15.63    0.45
  -4  -1  -7    1.05    0.13
  -4  -1  -7    1.27    0.14
  -4  -1  -7    1.60    0.07
  -4  -1  -7    1.45    0.09
  -4  -1  -7    1.27    0.10
  -4  -1  -7    1.26    0.14
  -4  -1  -7    1.46    0.15
   4   1   7    1.37    0.14
  -5  -1  -7   12.63    0.42
  -5  -1  -7   12.75    0.35
  -5  -1  -7   13.36    0.42
  -5  -1  -7   13.59    0.38
  -5  -1  -7   13.38    0.46
   5   1   7   13.12    0.43
  -6  -1  -7    3.96    0.23
  -6  -1  -7    4.03    0.25
  -6  -1  -7    4.14    0.23
   6   1   7    3.87    0.23
  -7  -1  -7    1.29    0.16
  -7  -1  -7    1.60    0.19
  -7  -1  -7    1.12    0.16
   7   1   7    1.52    0.17
  -8  -1  -7    1.24    0.18
  -8  -1  -7    1.12    0.16
  -8  -1  -7    1.30    0.17
   8   1   7    1.06    0.16
   9  -2  -7    5.48    0.27
  -9   2   7    5.46    0.30
  -9   2   7    6.00    0.31
  -9   2   7    5.67    0.29
   8  -2  -7    0.05    0.06
  -8   2   7   -0.09    0.05
  -8   2   7   -0.02    0.07
  -8   2   7   -0.06    0.05
  -8   2   7   -0.05    0.06
   7  -2  -7   14.03    0.43
  -7   2   7   13.45    0.47
  -7   2   7   13.98    0.44
  -7   2   7   14.24    0.43
  -7   2   7   14.43    0.47
   6  -2  -7    0.59    0.09
  -6   2   7    0.35    0.08
  -6   2   7    0.41    0.08
  -6   2   7    0.55    0.10
  -6   2   7    0.35    0.09
   5  -2  -7    7.84    0.28
   5  -2  -7    7.86    0.18
   5  -2  -7    7.77    0.19
   5  -2  -7    7.73    0.19
  -5   2   7    7.95    0.19
  -5   2   7    7.60    0.30
  -5   2   7    7.85    0.29
  -5   2   7    7.91    0.35
  -5   2   7    7.85    0.27
   4  -2  -7   21.28    0.47
   4  -2  -7   20.85    0.53
   4  -2  -7   21.50    0.45
   4  -2  -7   21.19    0.45
  -4   2   7   21.08    0.75
  -4   2   7   20.35    0.45
  -4   2   7   20.83    0.56
  -4   2   7   21.29    0.53
   3  -2  -7    4.29    0.16
   3  -2  -7    4.14    0.16
   3  -2  -7    4.15    0.16
   3  -2  -7    4.05    0.19
   3  -2  -7    4.18    0.16
  -3   2   7    4.49    0.20
  -3   2   7    4.65    0.26
  -3   2   7    4.56    0.18
  -3   2   7    4.00    0.15
   2  -2  -7   50.44    0.94
   2  -2  -7   50.08    1.05
   2  -2  -7   48.34    0.98
   2  -2  -7   49.01    1.05
   2  -2  -7   49.06    0.99
  -2   2   7   50.30    0.99
  -2   2   7   51.87    0.96
  -2   2   7   50.70    1.06
  -2   2   7   49.60    1.00
   1  -2  -7   50.48    0.93
   1  -2  -7   50.52    1.09
   1  -2  -7   51.79    1.02
   1  -2  -7   51.37    1.03
   1  -2  -7   49.93    1.07
  -1   2   7   50.96    0.99
  -1   2   7   52.13    1.03
  -1   2   7   50.51    1.00
   0  -2  -7    4.38    0.19
   0  -2  -7    4.66    0.20
   0  -2  -7    4.65    0.19
   0   2   7    4.71    0.16
   0   2   7    4.75    0.20
   0   2   7    4.55    0.19
  -1  -2  -7   24.61    0.62
  -1  -2  -7   24.93    0.61
  -1  -2  -7   25.78    0.61
   1   2   7   25.64    0.55
   1   2   7   25.40    0.59
   1   2   7   26.87    0.62
  -2  -2  -7    0.64    0.10
  -2  -2  -7    0.62    0.10
  -2  -2  -7    0.77    0.04
  -2  -2  -7    0.56    0.09
   2   2   7    0.58    0.09
   2   2   7    0.68    0.09
  -3  -2  -7    1.83    0.15
  -3  -2  -7    1.64    0.09
  -3  -2  -7    2.06    0.09
  -3  -2  -7    1.77    0.14
  -3  -2  -7    1.72    0.14
   3   2   7    1.64    0.13
   3   2   7    1.50    0.15
  -4  -2  -7    1.61    0.09
  -4  -2  -7    1.71    0.08
  -4  -2  -7    0.94    0.14
  -4  -2  -7    1.16    0.14
  -4  -2  -7    1.09    0.13
  -4  -2  -7    1.37    0.15
   4   2   7    1.37    0.14
   4   2   7    1.19    0.14
  -5  -2  -7    3.30    0.22
  -5  -2  -7    3.23    0.20
  -5  -2  -7    3.13    0.20
  -5  -2  -7    2.79    0.21
   5   2   7    2.67    0.18
   5   2   7    3.53    0.22
  -6  -2  -7    1.62    0.17
  -6  -2  -7    1.73    0.18
  -6  -2  -7    1.70    0.19
   6   2   7    2.01    0.20
  -7  -2  -7    0.61    0.13
  -7  -2  -7    0.77    0.14
   7   2   7    0.67    0.13
  -8  -2  -7    0.91    0.15
  -8  -2  -7    1.02    0.16
   8   2   7    1.19    0.17
   9  -3  -7    1.00    0.14
  -9   3   7    0.99    0.16
  -9   3   7    0.75    0.15
   8  -3  -7    5.43    0.27
  -8   3   7    5.12    0.28
  -8   3   7    4.76    0.28
   7  -3  -7   10.31    0.37
  -7   3   7   10.11    0.40
  -7   3   7   10.16    0.38
   6  -3  -7    6.90    0.29
  -6   3   7    6.89    0.29
  -6   3   7    6.90    0.31
   5  -3  -7    0.03    0.05
   5  -3  -7    0.05    0.03
   5  -3  -7    0.08    0.03
   5  -3  -7    0.10    0.03
  -5   3   7    0.10    0.03
  -5   3   7   -0.01    0.04
  -5   3   7    0.15    0.06
  -5   3   7   -0.03    0.06
   4  -3  -7    3.32    0.18
   4  -3  -7    3.45    0.14
   4  -3  -7    3.33    0.14
   4  -3  -7    3.48    0.14
  -4   3   7    3.16    0.18
  -4   3   7    3.18    0.17
  -4   3   7    3.12    0.23
  -4   3   7    3.42    0.13
   3  -3  -7   32.53    0.77
   3  -3  -7   32.24    0.69
   3  -3  -7   33.16    0.70
  -3   3   7   34.07    0.68
  -3   3   7   34.52    0.73
  -3   3   7   32.36    0.78
  -3   3   7   33.28    0.70
   2  -3  -7   12.38    0.35
   2  -3  -7   12.64    0.35
   2  -3  -7   13.18    0.39
  -2   3   7   13.22    0.34
  -2   3   7   13.45    0.35
  -2   3   7   13.46    0.34
   1  -3  -7   46.70    1.03
   1  -3  -7   45.48    0.96
   1  -3  -7   47.24    0.98
   1  -3  -7   47.41    0.88
  -1   3   7   48.08    0.93
  -1   3   7   48.61    0.98
  -1   3   7   49.93    0.95
  -1   3   7   44.30    0.98
   0  -3  -7    0.28    0.07
   0  -3  -7    0.17    0.07
   0  -3  -7    0.09    0.06
   0   3   7    0.18    0.06
   0   3   7    0.18    0.06
   0   3   7    0.27    0.04
   0   3   7    0.30    0.06
  -1  -3  -7    2.46    0.16
  -1  -3  -7    2.35    0.08
  -1  -3  -7    1.89    0.14
  -1  -3  -7    2.35    0.15
   1   3   7    2.23    0.12
   1   3   7    2.35    0.15
   1   3   7    2.31    0.15
   1   3   7    2.30    0.09
  -2  -3  -7    4.02    0.21
  -2  -3  -7    4.12    0.21
  -2  -3  -7    4.16    0.13
  -2  -3  -7    3.98    0.21
   2   3   7    4.06    0.21
   2   3   7    4.25    0.21
  -3  -3  -7   19.25    0.54
  -3  -3  -7   18.35    0.53
  -3  -3  -7   19.11    0.56
   3   3   7   18.86    0.54
   3   3   7   18.54    0.52
  -4  -3  -7    0.35    0.09
  -4  -3  -7    0.43    0.10
  -4  -3  -7    0.26    0.09
   4   3   7    0.22    0.09
   4   3   7    0.26    0.08
  -5  -3  -7    3.40    0.22
  -5  -3  -7    2.72    0.20
  -5  -3  -7    3.11    0.23
  -5  -3  -7    3.33    0.23
   5   3   7    3.35    0.21
   5   3   7    3.28    0.22
  -6  -3  -7    0.19    0.10
  -6  -3  -7    0.20    0.09
  -6  -3  -7    0.26    0.11
   6   3   7    0.12    0.09
   6   3   7    0.12    0.08
  -7  -3  -7    0.42    0.12
  -7  -3  -7    0.30    0.11
   7   3   7    0.43    0.13
  -8  -3  -7    0.35    0.12
  10  -4  -7    3.41    0.24
   9  -4  -7    0.32    0.09
  -9   4   7    0.09    0.09
   8  -4  -7    1.73    0.19
  -8   4   7    1.84    0.21
   7  -4  -7    3.95    0.24
  -7   4   7    3.94    0.25
  -7   4   7    3.81    0.23
   6  -4  -7    4.32    0.23
  -6   4   7    3.85    0.29
  -6   4   7    4.21    0.24
  -6   4   7    4.30    0.22
   5  -4  -7   22.33    0.48
   5  -4  -7   21.49    0.60
   5  -4  -7   22.06    0.47
   5  -4  -7   21.87    0.50
  -5   4   7   22.09    0.62
  -5   4   7   21.64    0.57
  -5   4   7   22.04    0.47
  -5   4   7   21.38    0.88
   4  -4  -7    2.20    0.12
   4  -4  -7    2.12    0.15
   4  -4  -7    2.25    0.12
  -4   4   7    1.94    0.13
  -4   4   7    2.63    0.18
  -4   4   7    2.08    0.22
  -4   4   7    2.24    0.12
  -4   4   7    2.25    0.12
   3  -4  -7    0.89    0.10
   3  -4  -7    0.86    0.09
   3  -4  -7    0.97    0.12
  -3   4   7    0.91    0.12
  -3   4   7    0.94    0.09
  -3   4   7    0.63    0.08
  -3   4   7    0.92    0.10
   2  -4  -7    3.70    0.18
   2  -4  -7    3.38    0.17
   2  -4  -7    3.67    0.20
  -2   4   7    3.72    0.20
  -2   4   7    3.76    0.18
  -2   4   7    3.58    0.18
  -2   4   7    3.59    0.15
  -2   4   7    3.77    0.17
   1  -4  -7    1.21    0.12
   1  -4  -7    1.38    0.13
   1  -4  -7    1.15    0.13
  -1   4   7    1.32    0.12
  -1   4   7    1.29    0.11
  -1   4   7    1.34    0.08
  -1   4   7    1.31    0.13
  -1   4   7    1.29    0.13
   0  -4  -7    6.93    0.27
   0  -4  -7    7.32    0.29
   0  -4  -7    7.31    0.28
   0   4   7    7.10    0.28
   0   4   7    6.93    0.26
   0   4   7    7.16    0.18
   0   4   7    6.55    0.27
   0   4   7    6.84    0.25
  -1  -4  -7   23.30    0.61
  -1  -4  -7   22.44    0.61
  -1  -4  -7   23.47    0.64
   1   4   7   23.04    0.62
   1   4   7   24.40    0.59
   1   4   7   23.59    0.61
   1   4   7   24.31    0.60
  -2  -4  -7    4.51    0.23
  -2  -4  -7    4.34    0.23
  -2  -4  -7    4.70    0.24
   2   4   7    4.72    0.24
   2   4   7    4.54    0.23
   2   4   7    5.00    0.24
  -3  -4  -7    2.39    0.18
  -3  -4  -7    2.56    0.19
  -3  -4  -7    2.58    0.18
   3   4   7    2.69    0.18
   3   4   7    2.73    0.20
   3   4   7    2.61    0.19
  -4  -4  -7    5.72    0.29
  -4  -4  -7    6.07    0.29
  -4  -4  -7    6.55    0.32
   4   4   7    6.37    0.31
   4   4   7    6.84    0.30
  -5  -4  -7    2.09    0.22
  -5  -4  -7    1.85    0.20
  -5  -4  -7    1.95    0.20
   5   4   7    2.13    0.21
   5   4   7    1.68    0.18
  -6  -4  -7    2.74    0.22
  -6  -4  -7    2.66    0.22
   6   4   7    2.57    0.21
   6   4   7    2.79    0.23
  -7  -4  -7    0.08    0.09
  -7  -4  -7    0.08    0.10
   7   4   7    0.01    0.09
  10  -5  -7    0.18    0.09
   9  -5  -7    1.90    0.21
  -9   5   7    1.64    0.22
   8  -5  -7    1.88    0.20
  -8   5   7    1.85    0.21
   7  -5  -7    1.33    0.17
  -7   5   7    1.46    0.18
   6  -5  -7    0.86    0.14
  -6   5   7    0.82    0.12
  -6   5   7    1.15    0.21
  -6   5   7    1.10    0.16
   5  -5  -7    1.93    0.11
   5  -5  -7    1.72    0.11
   5  -5  -7    1.73    0.18
  -5   5   7    1.73    0.14
  -5   5   7    1.65    0.18
  -5   5   7    1.65    0.22
   4  -5  -7   21.56    0.51
   4  -5  -7   21.57    0.51
   4  -5  -7   19.94    0.60
  -4   5   7   21.25    0.92
  -4   5   7   21.27    0.49
  -4   5   7   20.94    0.61
  -4   5   7   21.33    0.54
  -4   5   7   21.77    0.51
   3  -5  -7   32.18    0.82
   3  -5  -7   32.01    0.73
   3  -5  -7   31.41    0.73
  -3   5   7   32.33    0.82
  -3   5   7   32.53    0.73
  -3   5   7   33.85    0.75
  -3   5   7   34.25    0.72
  -3   5   7   32.71    0.71
   2  -5  -7   12.62    0.38
   2  -5  -7   12.59    0.43
   2  -5  -7   13.08    0.39
  -2   5   7   13.33    0.41
  -2   5   7   13.04    0.38
  -2   5   7   13.06    0.43
  -2   5   7   13.09    0.33
  -2   5   7   12.68    0.39
  -2   5   7   12.92    0.39
   1  -5  -7    0.02    0.05
   1  -5  -7    0.00    0.05
   1  -5  -7   -0.04    0.05
  -1   5   7    0.04    0.05
  -1   5   7    0.01    0.04
  -1   5   7    0.14    0.06
  -1   5   7    0.06    0.06
   0  -5  -7   15.45    0.47
   0  -5  -7   15.53    0.47
   0  -5  -7   15.34    0.49
   0   5   7   15.79    0.45
   0   5   7   15.29    0.45
   0   5   7   14.90    0.47
   0   5   7   15.43    0.47
  -1  -5  -7    5.04    0.25
  -1  -5  -7    5.20    0.25
  -1  -5  -7    4.89    0.26
   1   5   7    5.02    0.24
   1   5   7    4.75    0.25
   1   5   7    4.96    0.25
   1   5   7    4.84    0.23
  -2  -5  -7   14.97    0.49
  -2  -5  -7   16.07    0.51
  -2  -5  -7   15.99    0.52
   2   5   7   16.76    0.50
   2   5   7   16.11    0.51
   2   5   7   16.29    0.52
  -3  -5  -7    0.00    0.06
  -3  -5  -7   -0.05    0.07
  -3  -5  -7   -0.05    0.07
   3   5   7    0.02    0.07
   3   5   7   -0.02    0.07
   3   5   7   -0.04    0.05
  -4  -5  -7    0.21    0.09
  -4  -5  -7    0.23    0.10
  -4  -5  -7    0.27    0.10
   4   5   7    0.30    0.11
   4   5   7    0.29    0.11
   4   5   7    0.25    0.09
  -5  -5  -7    0.13    0.09
  -5  -5  -7    0.22    0.10
  -5  -5  -7    0.39    0.12
   5   5   7    0.19    0.10
   5   5   7    0.05    0.07
  -6  -5  -7    0.87    0.16
  -6  -5  -7    1.08    0.17
   6   5   7    1.19    0.18
   9  -6  -7    6.28    0.35
  -9   6   7    6.12    0.36
   8  -6  -7    3.91    0.27
  -8   6   7    4.24    0.29
   7  -6  -7    2.70    0.22
  -7   6   7    2.98    0.23
   6  -6  -7    0.33    0.10
  -6   6   7    0.10    0.08
  -6   6   7    0.21    0.14
   5  -6  -7    3.58    0.24
   5  -6  -7    3.73    0.18
  -5   6   7    4.05    0.35
  -5   6   7    3.73    0.24
   4  -6  -7    4.85    0.21
   4  -6  -7    4.89    0.22
   4  -6  -7    4.97    0.27
  -4   6   7    4.98    0.21
  -4   6   7    4.78    0.40
  -4   6   7    5.16    0.22
  -4   6   7    5.07    0.21
  -4   6   7    4.80    0.26
   3  -6  -7    0.81    0.13
   3  -6  -7    0.93    0.12
   3  -6  -7    1.07    0.12
  -3   6   7    1.09    0.12
  -3   6   7    0.99    0.14
  -3   6   7    1.17    0.15
  -3   6   7    0.86    0.22
  -3   6   7    0.99    0.12
  -3   6   7    0.95    0.12
   2  -6  -7   15.40    0.46
   2  -6  -7   15.70    0.51
   2  -6  -7   15.65    0.46
  -2   6   7   16.00    0.46
  -2   6   7   15.54    0.50
  -2   6   7   14.95    0.44
  -2   6   7   15.86    0.47
  -2   6   7   14.67    0.48
   1  -6  -7    2.15    0.16
   1  -6  -7    2.37    0.18
   1  -6  -7    2.06    0.16
  -1   6   7    2.51    0.18
  -1   6   7    2.34    0.17
  -1   6   7    2.41    0.18
  -1   6   7    2.65    0.17
   0  -6  -7    6.96    0.32
   0  -6  -7    7.37    0.31
   0  -6  -7    7.14    0.31
   0   6   7    7.48    0.30
   0   6   7    7.28    0.32
   0   6   7    7.18    0.31
   0   6   7    7.15    0.31
  -1  -6  -7    4.01    0.24
  -1  -6  -7    3.95    0.24
  -1  -6  -7    3.67    0.23
   1   6   7    3.85    0.24
   1   6   7    3.65    0.22
   1   6   7    3.90    0.22
   1   6   7    4.02    0.24
  -2  -6  -7   -0.03    0.06
  -2  -6  -7    0.02    0.07
  -2  -6  -7   -0.09    0.06
   2   6   7    0.06    0.08
   2   6   7    0.04    0.07
   2   6   7    0.01    0.07
   2   6   7    0.01    0.06
  -3  -6  -7    2.55    0.21
  -3  -6  -7    2.57    0.21
  -3  -6  -7    2.63    0.21
   3   6   7    2.43    0.20
   3   6   7    2.63    0.22
   3   6   7    2.33    0.23
  -4  -6  -7    0.15    0.09
  -4  -6  -7    0.04    0.09
  -4  -6  -7    0.01    0.08
   4   6   7    0.17    0.11
   4   6   7    0.08    0.08
   4   6   7   -0.09    0.06
  -5  -6  -7    0.15    0.10
  -5  -6  -7   -0.04    0.08
  -5  -6  -7    0.14    0.10
   5   6   7   -0.11    0.08
   8  -7  -7    1.54    0.20
  -8   7   7    1.75    0.22
   7  -7  -7    0.19    0.10
  -7   7   7    0.13    0.09
   6  -7  -7    3.88    0.26
  -6   7   7    4.38    0.40
  -6   7   7    4.09    0.27
   5  -7  -7    0.55    0.13
  -5   7   7    0.37    0.18
  -5   7   7    0.29    0.10
   4  -7  -7    7.76    0.36
   4  -7  -7    7.45    0.29
   4  -7  -7    7.81    0.29
  -4   7   7    8.05    0.30
  -4   7   7    7.41    0.29
  -4   7   7    7.42    0.28
  -4   7   7    8.32    0.36
  -4   7   7    7.52    0.54
   3  -7  -7   12.14    0.40
   3  -7  -7   12.84    0.47
   3  -7  -7   12.33    0.40
  -3   7   7   12.03    0.45
  -3   7   7   11.23    0.38
  -3   7   7   11.18    0.37
  -3   7   7   11.16    0.39
  -3   7   7   11.04    0.69
  -3   7   7   11.72    0.44
   2  -7  -7    3.21    0.21
   2  -7  -7    3.64    0.24
   2  -7  -7    2.94    0.20
  -2   7   7    3.16    0.21
  -2   7   7    3.14    0.19
  -2   7   7    3.33    0.22
  -2   7   7    3.07    0.20
  -2   7   7    3.36    0.22
   1  -7  -7    0.35    0.10
   1  -7  -7    0.42    0.10
   1  -7  -7    0.32    0.10
  -1   7   7    0.23    0.09
  -1   7   7    0.22    0.08
  -1   7   7    0.34    0.10
  -1   7   7    0.20    0.08
   0  -7  -7    2.54    0.20
   0  -7  -7    2.70    0.20
   0  -7  -7    2.46    0.20
   0   7   7    2.71    0.20
   0   7   7    2.65    0.19
   0   7   7    2.40    0.19
   0   7   7    2.49    0.20
  -1  -7  -7    1.53    0.19
  -1  -7  -7    1.70    0.20
  -1  -7  -7    1.18    0.16
   1   7   7    1.28    0.17
   1   7   7    1.81    0.20
   1   7   7    1.57    0.18
   1   7   7    1.29    0.16
  -2  -7  -7    2.05    0.22
  -2  -7  -7    3.17    0.24
  -2  -7  -7    2.85    0.22
   2   7   7    2.59    0.22
   2   7   7    2.68    0.21
   2   7   7    2.31    0.20
   2   7   7    2.66    0.22
  -3  -7  -7   -0.07    0.07
  -3  -7  -7   -0.05    0.08
  -3  -7  -7    0.08    0.09
   3   7   7   -0.07    0.08
   3   7   7   -0.06    0.07
   3   7   7    0.03    0.09
  -4  -7  -7    1.94    0.23
  -8   8   7    0.06    0.09
   7  -8  -7    0.69    0.15
  -7   8   7    0.70    0.15
   6  -8  -7    0.56    0.14
  -6   8   7    0.75    0.24
  -6   8   7    0.84    0.15
   5  -8  -7    4.21    0.28
  -5   8   7    4.43    0.28
  -5   8   7    4.66    0.45
   4  -8  -7    1.78    0.17
   4  -8  -7    1.65    0.20
   4  -8  -7    1.31    0.15
  -4   8   7    1.63    0.34
  -4   8   7    1.77    0.16
  -4   8   7    1.61    0.20
  -4   8   7    1.38    0.15
   3  -8  -7    3.68    0.23
   3  -8  -7    4.11    0.23
   3  -8  -7    3.44    0.25
  -3   8   7    3.40    0.22
  -3   8   7    3.52    0.21
  -3   8   7    3.87    0.41
  -3   8   7    3.82    0.25
  -3   8   7    3.19    0.21
  -3   8   7    4.31    0.27
   2  -8  -7    1.59    0.19
   2  -8  -7    1.61    0.18
   2  -8  -7    1.58    0.18
  -2   8   7    1.37    0.16
  -2   8   7    1.46    0.19
  -2   8   7    1.89    0.20
  -2   8   7    2.12    0.20
  -2   8   7    1.74    0.19
   1  -8  -7    0.06    0.08
   1  -8  -7    0.10    0.09
   1  -8  -7   -0.04    0.07
  -1   8   7    0.04    0.08
  -1   8   7    0.08    0.08
  -1   8   7   -0.04    0.07
  -1   8   7   -0.01    0.06
  -1   8   7   -0.08    0.07
   0  -8  -7    1.75    0.22
   0  -8  -7    2.09    0.22
   0  -8  -7    1.94    0.21
   0   8   7    2.05    0.22
   0   8   7    1.76    0.20
   0   8   7    1.65    0.20
   0   8   7    1.62    0.18
  -1  -8  -7    1.17    0.18
  -1  -8  -7    1.10    0.18
  -1  -8  -7    1.10    0.18
   1   8   7    1.09    0.17
   1   8   7    1.15    0.18
   1   8   7    1.02    0.17
   1   8   7    1.42    0.18
  -2  -8  -7    1.23    0.18
  -2  -8  -7    1.31    0.19
  -2  -8  -7    1.42    0.20
   2   8   7    0.77    0.16
   2   8   7    0.88    0.16
   2   8   7    1.15    0.19
  -3  -8  -7    0.60    0.15
  -6   9   7    0.39    0.13
   5  -9  -7    0.25    0.11
  -5   9   7    0.32    0.12
  -5   9   7    0.04    0.16
   4  -9  -7    2.38    0.25
   4  -9  -7    2.37    0.20
  -4   9   7    3.06    0.40
  -4   9   7    2.39    0.24
   3  -9  -7    0.03    0.09
   3  -9  -7    0.16    0.09
   3  -9  -7   -0.04    0.07
  -3   9   7    0.09    0.08
  -3   9   7    0.01    0.08
  -3   9   7    0.03    0.09
  -3   9   7    0.01    0.17
  -3   9   7    0.00    0.07
  -3   9   7    0.03    0.08
   2  -9  -7    0.35    0.11
   2  -9  -7    0.61    0.14
   2  -9  -7    0.21    0.11
  -2   9   7    0.57    0.13
  -2   9   7    0.72    0.28
  -2   9   7    0.22    0.11
  -2   9   7    0.56    0.14
  -2   9   7    0.48    0.12
  -2   9   7    0.25    0.09
   1  -9  -7    0.10    0.09
   1  -9  -7   -0.10    0.08
   1  -9  -7    0.02    0.08
  -1   9   7    0.01    0.09
  -1   9   7    0.03    0.07
  -1   9   7    0.01    0.08
  -1   9   7    0.10    0.09
  -1   9   7   -0.03    0.07
   0  -9  -7    0.53    0.14
   0  -9  -7    0.31    0.12
   0  -9  -7    0.13    0.10
   0   9   7    0.52    0.13
   0   9   7    0.37    0.12
   0   9   7    0.39    0.13
   0   9   7    0.30    0.12
  -1  -9  -7    3.13    0.26
   1   9   7    2.80    0.23
  -5  10   7    0.32    0.23
  -5  10   7    0.30    0.12
  -4  10   7    0.09    0.10
  -4  10   7    0.12    0.20
   3 -10  -7   -0.03    0.08
   3 -10  -7    0.06    0.09
  -3  10   7    0.02    0.07
  -3  10   7    0.03    0.09
  -3  10   7    0.17    0.11
  -3  10   7    0.20    0.11
   2 -10  -7    2.16    0.24
   2 -10  -7    1.71    0.21
  -2  10   7    1.80    0.22
  -2  10   7    1.82    0.22
  -2  10   7    1.99    0.23
  -2  10   7    1.62    0.22
  -1  10   7    1.11    0.19
  -1  10   7    0.87    0.16
   1  12  -8    0.64    0.18
   0  12  -8    0.58    0.18
  -1  12  -8    0.69    0.16
  -1  12  -8    1.34    0.28
  -2  12  -8    1.31    0.20
  -2  12  -8    2.08    0.30
  -3  12  -8    0.18    0.11
  -3  12  -8    0.29    0.12
  -3  12  -8    0.27    0.13
  -4  12  -8    0.14    0.10
  -4  12  -8   -0.06    0.10
  -4  12  -8    0.12    0.10
   2  11  -8    0.25    0.13
   2  11  -8    0.45    0.13
  -2 -11   8    0.37    0.13
  -2 -11   8    0.23    0.12
   1  11  -8    0.03    0.10
   1  11  -8   -0.05    0.08
   1  11  -8   -0.06    0.09
   1  11  -8    0.53    0.15
  -1 -11   8    0.07    0.11
  -1 -11   8    0.15    0.09
   0  11  -8    0.06    0.10
   0  11  -8    0.11    0.11
   0  11  -8    0.56    0.18
   0 -11   8    0.24    0.12
  -1  11  -8    2.64    0.26
  -1  11  -8    2.33    0.25
  -1  11  -8    2.89    0.34
  -1  11  -8    2.47    0.25
  -1  11  -8    2.21    0.24
   1 -11   8    2.48    0.25
  -2  11  -8    0.51    0.14
  -2  11  -8    0.70    0.15
  -2  11  -8    0.40    0.12
  -2  11  -8    1.40    0.28
  -2  11  -8    0.54    0.14
   2 -11   8    0.59    0.14
  -3  11  -8    3.35    0.25
  -3  11  -8    3.17    0.24
  -3  11  -8    3.36    0.25
  -3  11  -8    4.08    0.42
  -3  11  -8    3.48    0.26
   3 -11   8    3.30    0.25
  -4  11  -8    0.13    0.10
  -4  11  -8    0.51    0.18
  -4  11  -8    0.23    0.11
  -4  11  -8    0.22    0.10
  -4  11  -8    0.25    0.11
  -4  11  -8    0.02    0.09
   4 -11   8    0.01    0.08
  -5  11  -8    0.70    0.21
  -5  11  -8    0.10    0.10
  -5  11  -8    0.37    0.12
  -5  11  -8    0.25    0.11
  -5  11  -8    0.32    0.12
   5 -11   8    0.27    0.11
   5 -11   8    0.15    0.10
  -6  11  -8    1.31    0.19
  -6  11  -8    1.18    0.18
   6 -11   8    1.11    0.17
   4  10  -8    1.33    0.18
   4  10  -8    1.22    0.19
   4  10  -8    0.87    0.17
  -4 -10   8    0.89    0.16
  -4 -10   8    1.06    0.17
   3  10  -8    0.62    0.13
   3  10  -8    0.67    0.15
   3  10  -8    0.82    0.17
  -3 -10   8    1.14    0.17
  -3 -10   8    0.95    0.16
   2  10  -8    0.70    0.14
   2  10  -8    0.67    0.16
   2  10  -8    0.77    0.15
   2  10  -8    1.43    0.26
  -2 -10   8    0.88    0.15
  -2 -10   8    0.81    0.15
   1  10  -8    1.32    0.19
   1  10  -8    1.41    0.19
   1  10  -8    2.02    0.26
  -1 -10   8    1.19    0.18
   0  10  -8    0.17    0.10
   0  10  -8    0.03    0.08
   0  10  -8    0.39    0.15
   0  10  -8    0.09    0.09
   0 -10   8    0.09    0.08
  -1  10  -8    0.49    0.13
  -1  10  -8    0.50    0.18
  -1  10  -8    0.54    0.14
  -1  10  -8    0.43    0.12
  -1  10  -8    0.41    0.12
   1 -10   8    0.32    0.10
  -2  10  -8    9.85    0.66
  -2  10  -8    8.67    0.39
  -2  10  -8    9.35    0.39
  -2  10  -8    9.26    0.40
  -2  10  -8    8.28    0.38
   2 -10   8    9.19    0.40
  -3  10  -8    0.03    0.08
  -3  10  -8    0.12    0.09
  -3  10  -8    0.02    0.07
  -3  10  -8   -0.01    0.08
  -3  10  -8    0.30    0.15
   3 -10   8    0.05    0.08
  -4  10  -8    4.13    0.28
  -4  10  -8    4.37    0.27
  -4  10  -8    4.26    0.26
  -4  10  -8    4.62    0.28
  -4  10  -8    4.69    0.46
  -4  10  -8    4.78    0.28
   4 -10   8    4.57    0.27
  -5  10  -8    0.32    0.11
  -5  10  -8    0.30    0.11
  -5  10  -8    0.66    0.21
  -5  10  -8    0.40    0.12
  -5  10  -8    0.43    0.13
  -5  10  -8    0.27    0.11
   5 -10   8    0.21    0.10
  -6  10  -8    0.10    0.09
  -6  10  -8    0.30    0.15
  -6  10  -8    0.08    0.09
  -6  10  -8    0.19    0.10
  -6  10  -8    0.06    0.08
   6 -10   8    0.01    0.09
   6   9  -8    0.01    0.09
   6   9  -8    0.10    0.09
   5   9  -8    1.87    0.23
   5   9  -8    2.17    0.22
   5   9  -8    2.12    0.23
  -5  -9   8    2.14    0.23
  -5  -9   8    2.18    0.23
   4   9  -8    1.11    0.18
   4   9  -8    1.27    0.18
   4   9  -8    1.21    0.16
  -4  -9   8    1.41    0.19
  -4  -9   8    1.15    0.17
   3   9  -8    0.94    0.16
   3   9  -8    0.93    0.15
   3   9  -8    0.96    0.16
  -3  -9   8    0.95    0.15
  -3  -9   8    0.93    0.15
   2   9  -8    0.30    0.11
   2   9  -8    0.47    0.12
   2   9  -8    0.60    0.16
   2   9  -8    0.29    0.11
  -2  -9   8    0.30    0.11
   1   9  -8    0.17    0.09
   1   9  -8    0.31    0.11
   1   9  -8    0.26    0.11
   1   9  -8    0.35    0.10
   1   9  -8    0.57    0.17
  -1  -9   8    0.13    0.08
   0   9  -8   11.52    0.44
   0   9  -8   11.66    0.44
   0   9  -8   11.75    0.50
   0   9  -8   12.04    0.69
   0   9  -8   11.70    0.45
   0  -9   8   11.55    0.44
  -1   9  -8    3.71    0.24
  -1   9  -8    3.98    0.38
  -1   9  -8    3.78    0.27
  -1   9  -8    3.52    0.23
  -1   9  -8    4.00    0.25
   1  -9   8    3.66    0.24
  -2   9  -8    0.36    0.11
  -2   9  -8    0.52    0.19
  -2   9  -8    0.23    0.10
  -2   9  -8    0.19    0.09
  -2   9  -8    0.30    0.11
  -2   9  -8    0.26    0.09
   2  -9   8    0.34    0.10
   2  -9   8    0.19    0.07
  -3   9  -8    0.44    0.12
  -3   9  -8    0.54    0.12
  -3   9  -8    0.46    0.12
  -3   9  -8    0.62    0.21
  -3   9  -8    0.51    0.11
  -3   9  -8    0.43    0.11
   3  -9   8    0.33    0.11
  -4   9  -8    0.02    0.06
  -4   9  -8   -0.05    0.07
  -4   9  -8   -0.02    0.07
  -4   9  -8    0.09    0.08
  -4   9  -8    0.18    0.13
  -4   9  -8   -0.07    0.06
   4  -9   8    0.13    0.08
  -5   9  -8    1.64    0.18
  -5   9  -8    1.51    0.20
  -5   9  -8    1.97    0.20
  -5   9  -8    1.60    0.18
  -5   9  -8    1.72    0.34
  -5   9  -8    1.37    0.19
   5  -9   8    1.59    0.18
  -6   9  -8    2.26    0.25
  -6   9  -8    2.33    0.20
  -6   9  -8    2.51    0.20
  -6   9  -8    2.17    0.39
   6  -9   8    2.31    0.22
  -7   9  -8    0.20    0.11
   7  -9   8    0.02    0.08
   6   8  -8    0.38    0.11
   6   8  -8    0.38    0.10
   6   8  -8    0.42    0.12
  -6  -8   8    0.31    0.11
  -6  -8   8    0.26    0.10
   5   8  -8    0.50    0.11
   5   8  -8    0.50    0.12
   5   8  -8    0.45    0.12
  -5  -8   8    0.42    0.11
  -5  -8   8    0.46    0.10
  -5  -8   8    0.61    0.13
   4   8  -8    1.43    0.18
   4   8  -8    1.49    0.18
   4   8  -8    1.08    0.15
  -4  -8   8    1.50    0.16
  -4  -8   8    1.23    0.16
  -4  -8   8    1.65    0.18
   3   8  -8    0.56    0.15
   3   8  -8    0.19    0.10
   3   8  -8    0.23    0.10
   3   8  -8    0.25    0.10
  -3  -8   8    0.17    0.09
   2   8  -8    1.78    0.19
   2   8  -8    2.16    0.20
   2   8  -8    2.55    0.27
   2   8  -8    1.73    0.18
   2   8  -8    2.27    0.22
  -2  -8   8    1.91    0.19
   1   8  -8    4.25    0.25
   1   8  -8    4.53    0.36
   1   8  -8    3.95    0.26
   1   8  -8    4.44    0.25
   1   8  -8    4.22    0.24
  -1  -8   8    4.48    0.25
   0   8  -8    3.50    0.22
   0   8  -8    3.46    0.22
   0   8  -8    3.51    0.25
   0   8  -8    3.48    0.33
   0   8  -8    3.00    0.21
   0   8  -8    3.29    0.21
   0  -8   8    3.14    0.21
  -1   8  -8    6.13    0.29
  -1   8  -8    5.95    0.29
  -1   8  -8    5.99    0.29
  -1   8  -8    5.30    0.31
  -1   8  -8    5.89    0.44
   1  -8   8    6.13    0.29
   1  -8   8    6.08    0.22
  -2   8  -8    2.35    0.29
  -2   8  -8    2.48    0.19
  -2   8  -8    2.41    0.18
  -2   8  -8    2.27    0.18
  -2   8  -8    2.29    0.20
  -2   8  -8    2.29    0.17
   2  -8   8    2.38    0.18
  -3   8  -8    0.69    0.14
  -3   8  -8    0.81    0.22
  -3   8  -8    0.54    0.11
  -3   8  -8    0.76    0.13
  -3   8  -8    0.70    0.11
   3  -8   8    0.62    0.12
  -4   8  -8    2.56    0.19
  -4   8  -8    2.63    0.22
  -4   8  -8    3.20    0.21
  -4   8  -8    3.07    0.35
  -4   8  -8    2.61    0.18
   4  -8   8    2.81    0.20
  -5   8  -8    2.77    0.20
  -5   8  -8    3.25    0.21
  -5   8  -8    2.72    0.35
  -5   8  -8    3.19    0.24
  -5   8  -8    2.76    0.23
   5  -8   8    2.91    0.21
  -6   8  -8    1.51    0.17
  -6   8  -8    1.56    0.32
  -6   8  -8    1.60    0.18
  -6   8  -8    1.36    0.19
  -6   8  -8    1.62    0.20
   6  -8   8    1.33    0.16
  -7   8  -8    4.48    0.25
  -7   8  -8    4.37    0.31
   7  -8   8    4.25    0.25
  -7  -7   8    0.02    0.07
   6   7  -8    0.30    0.09
   6   7  -8    0.16    0.08
   6   7  -8    0.19    0.09
  -6  -7   8    0.15    0.09
  -6  -7   8    0.13    0.08
  -6  -7   8    0.24    0.10
   5   7  -8    2.69    0.19
   5   7  -8    2.35    0.18
   5   7  -8    2.42    0.20
  -5  -7   8    2.45    0.19
  -5  -7   8    2.73    0.19
  -5  -7   8    2.76    0.19
   4   7  -8    4.55    0.28
   4   7  -8    4.78    0.25
   4   7  -8    5.25    0.28
  -4  -7   8    5.08    0.25
  -4  -7   8    5.10    0.26
   3   7  -8    0.69    0.12
   3   7  -8    0.57    0.12
   3   7  -8    1.15    0.16
   3   7  -8    0.52    0.11
   3   7  -8    0.75    0.14
  -3  -7   8    0.95    0.13
   2   7  -8    1.16    0.15
   2   7  -8    1.12    0.16
   2   7  -8    1.02    0.13
   2   7  -8    1.30    0.19
   2   7  -8    1.42    0.16
  -2  -7   8    1.10    0.14
   1   7  -8    2.03    0.23
   1   7  -8    1.69    0.19
   1   7  -8    1.45    0.16
   1   7  -8    1.84    0.18
   1   7  -8    1.47    0.16
  -1  -7   8    1.96    0.16
   0   7  -8   11.36    0.61
   0   7  -8   11.24    0.45
   0   7  -8   11.82    0.40
   0   7  -8   11.19    0.39
   0   7  -8   10.69    0.39
   0  -7   8   11.58    0.29
   0  -7   8   11.22    0.39
  -1   7  -8   12.20    0.65
  -1   7  -8   12.10    0.41
  -1   7  -8   11.81    0.41
  -1   7  -8   11.61    0.46
   1  -7   8   12.29    0.41
  -2   7  -8    0.45    0.10
  -2   7  -8    0.60    0.09
  -2   7  -8    0.67    0.19
  -2   7  -8    0.53    0.12
  -2   7  -8    0.58    0.11
   2  -7   8    0.60    0.11
  -3   7  -8    8.98    0.31
  -3   7  -8    9.22    0.35
  -3   7  -8    9.06    0.35
  -3   7  -8    8.92    0.39
  -3   7  -8    9.19    0.59
   3  -7   8    8.97    0.34
  -4   7  -8    9.00    0.35
  -4   7  -8    9.34    0.40
  -4   7  -8    9.54    0.36
  -4   7  -8    9.19    0.62
   4  -7   8    9.27    0.35
  -5   7  -8   13.38    0.51
  -5   7  -8   13.18    0.80
  -5   7  -8   13.72    0.51
  -5   7  -8   13.66    0.45
  -5   7  -8   14.00    0.45
   5  -7   8   13.63    0.45
  -6   7  -8    4.00    0.23
  -6   7  -8    4.10    0.28
  -6   7  -8    3.85    0.26
   6  -7   8    3.58    0.22
  -7   7  -8    0.05    0.08
  -7   7  -8   -0.01    0.07
  -7   7  -8    0.07    0.08
  -7   7  -8    0.21    0.10
   7  -7   8    0.08    0.08
  -8   7  -8    0.75    0.16
  -7  -6   8    2.31    0.22
  -7  -6   8    2.51    0.25
  -7  -6   8    2.32    0.19
   6   6  -8    3.49    0.20
   6   6  -8    3.19    0.20
   6   6  -8    3.19    0.21
  -6  -6   8    3.43    0.24
  -6  -6   8    3.32    0.20
  -6  -6   8    3.12    0.21
   5   6  -8    0.08    0.07
   5   6  -8   -0.01    0.06
   5   6  -8    0.09    0.06
  -5  -6   8    0.01    0.06
  -5  -6   8   -0.02    0.06
  -5  -6   8    0.03    0.06
  -5  -6   8    0.02    0.06
   4   6  -8    2.09    0.18
   4   6  -8    2.05    0.17
   4   6  -8    2.20    0.17
   4   6  -8    1.65    0.17
  -4  -6   8    1.85    0.15
  -4  -6   8    1.86    0.16
   3   6  -8    5.42    0.28
   3   6  -8    5.17    0.34
   3   6  -8    4.74    0.24
   3   6  -8    5.44    0.26
   3   6  -8    5.32    0.25
  -3  -6   8    5.50    0.25
   2   6  -8   14.65    0.45
   2   6  -8   14.11    0.49
   2   6  -8   14.21    0.44
   2   6  -8   13.95    0.44
   2   6  -8   14.06    0.64
  -2  -6   8   14.16    0.44
   1   6  -8   31.79    0.76
   1   6  -8   31.01    0.77
   1   6  -8   31.28    0.85
   1   6  -8   30.94    1.17
   1   6  -8   31.31    0.76
  -1  -6   8   30.84    0.75
   0   6  -8    0.08    0.10
   0   6  -8   -0.05    0.04
   0   6  -8    0.01    0.05
   0   6  -8   -0.02    0.05
   0  -6   8    0.09    0.06
  -1   6  -8    2.95    0.18
  -1   6  -8    3.12    0.21
  -1   6  -8    2.88    0.18
  -1   6  -8    3.21    0.29
   1  -6   8    2.72    0.17
  -2   6  -8    1.83    0.12
  -2   6  -8    1.78    0.15
  -2   6  -8    1.93    0.15
  -2   6  -8    1.90    0.24
  -2   6  -8    1.34    0.16
   2  -6   8    1.83    0.15
  -3   6  -8   10.01    0.30
  -3   6  -8    9.40    0.58
  -3   6  -8   10.20    0.36
  -3   6  -8   10.04    0.40
  -3   6  -8   10.15    0.35
   3  -6   8    9.86    0.35
  -4   6  -8   15.39    0.53
  -4   6  -8   15.25    0.81
  -4   6  -8   14.95    0.46
  -4   6  -8   14.47    0.46
   4  -6   8   14.74    0.46
  -5   6  -8   -0.10    0.05
  -5   6  -8   -0.06    0.05
  -5   6  -8    0.04    0.06
   5  -6   8   -0.02    0.06
  -6   6  -8    2.36    0.18
  -6   6  -8    2.51    0.21
  -6   6  -8    2.73    0.19
   6  -6   8    2.61    0.19
  -7   6  -8    0.52    0.11
  -7   6  -8    0.67    0.14
  -7   6  -8    0.46    0.10
  -7   6  -8    0.50    0.12
   7  -6   8    0.59    0.11
  -8   6  -8    0.38    0.12
  -9  -5   8    0.02    0.07
  -8  -5   8    0.31    0.10
  -8  -5   8    0.42    0.11
  -8  -5   8    0.14    0.09
  -7  -5   8    0.29    0.10
  -7  -5   8    0.37    0.11
  -7  -5   8    0.45    0.11
   6   5  -8    2.61    0.17
   6   5  -8    3.32    0.20
   6   5  -8    2.71    0.17
  -6  -5   8    2.89    0.20
  -6  -5   8    2.75    0.21
  -6  -5   8    2.46    0.19
  -6  -5   8    2.55    0.17
   5   5  -8   15.41    0.48
   5   5  -8   16.93    0.47
   5   5  -8   16.57    0.52
  -5  -5   8   17.35    0.52
  -5  -5   8   17.28    0.53
  -5  -5   8   16.51    0.47
   4   5  -8    1.50    0.14
   4   5  -8    1.17    0.14
   4   5  -8    1.11    0.13
   4   5  -8    1.01    0.12
  -4  -5   8    1.16    0.14
  -4  -5   8    1.48    0.14
   3   5  -8    0.69    0.11
   3   5  -8    0.74    0.11
   3   5  -8    0.65    0.10
   3   5  -8    0.72    0.13
   3   5  -8    0.70    0.11
  -3  -5   8    0.71    0.10
   2   5  -8    0.35    0.09
   2   5  -8    0.26    0.07
   2   5  -8    0.29    0.10
   2   5  -8    0.20    0.07
  -2  -5   8    0.19    0.07
   1   5  -8   21.50    0.55
   1   5  -8   20.73    0.62
   1   5  -8   21.48    0.84
   1   5  -8   21.62    0.56
  -1  -5   8   21.02    0.55
   0   5  -8   28.58    0.69
   0   5  -8   29.38    1.09
   0   5  -8   29.08    0.78
   0   5  -8   27.17    0.68
   0  -5   8   29.68    0.69
  -1   5  -8    0.85    0.17
  -1   5  -8    0.86    0.11
  -1   5  -8    0.64    0.10
   1  -5   8    0.93    0.05
   1  -5   8    0.52    0.09
  -2   5  -8    5.78    0.39
  -2   5  -8    5.73    0.24
  -2   5  -8    5.58    0.24
  -2   5  -8    5.61    0.19
   2  -5   8    5.42    0.24
  -3   5  -8    1.04    0.22
  -3   5  -8    1.12    0.13
  -3   5  -8    0.92    0.12
  -3   5  -8    1.17    0.14
   3  -5   8    0.96    0.12
  -4   5  -8    0.01    0.06
  -4   5  -8    0.18    0.08
  -4   5  -8    0.15    0.07
   4  -5   8   -0.02    0.06
  -5   5  -8   20.31    0.60
  -5   5  -8   22.16    0.65
  -5   5  -8   20.53    0.56
  -5   5  -8   19.95    0.56
   5  -5   8   20.32    0.56
  -6   5  -8    0.53    0.11
  -6   5  -8    0.42    0.10
  -6   5  -8    0.66    0.12
  -6   5  -8    0.37    0.11
   6  -5   8    0.45    0.10
  -7   5  -8    2.38    0.21
  -7   5  -8    2.18    0.17
  -7   5  -8    2.19    0.19
  -7   5  -8    2.27    0.18
   7  -5   8    2.03    0.17
  -8   5  -8    0.24    0.11
  -9   5  -8    1.69    0.23
  -9  -4   8    0.49    0.12
  -8  -4   8    0.96    0.15
  -8  -4   8    0.95    0.15
  -8  -4   8    1.04    0.16
  -7  -4   8    3.93    0.23
  -7  -4   8    3.60    0.23
  -7  -4   8    3.82    0.24
   6   4  -8    9.42    0.33
   6   4  -8    9.18    0.29
   6   4  -8    9.30    0.31
  -6  -4   8    9.42    0.37
  -6  -4   8   10.23    0.32
  -6  -4   8    9.65    0.35
  -6  -4   8    9.92    0.38
   5   4  -8    0.41    0.08
   5   4  -8    0.46    0.08
   5   4  -8    0.41    0.09
   5   4  -8    0.19    0.07
  -5  -4   8    0.28    0.07
  -5  -4   8    0.24    0.07
  -5  -4   8    0.32    0.09
  -5  -4   8    0.38    0.09
   4   4  -8    0.89    0.11
   4   4  -8    0.70    0.10
   4   4  -8    0.78    0.10
   4   4  -8    0.92    0.12
  -4  -4   8    0.72    0.11
  -4  -4   8    0.81    0.10
  -4  -4   8    0.85    0.11
   3   4  -8    3.92    0.19
   3   4  -8    4.55    0.20
   3   4  -8    4.65    0.21
   3   4  -8    4.15    0.22
   3   4  -8    4.25    0.21
  -3  -4   8    4.82    0.20
   2   4  -8    5.71    0.26
   2   4  -8    5.69    0.29
   2   4  -8    6.07    0.24
   2   4  -8    6.07    0.23
  -2  -4   8    6.27    0.18
  -2  -4   8    5.94    0.23
   1   4  -8   15.29    0.43
   1   4  -8   15.18    0.47
   1   4  -8   15.57    0.43
   1   4  -8   14.71    0.61
  -1  -4   8   15.81    0.34
  -1  -4   8   15.46    0.34
  -1  -4   8   15.47    0.42
   0   4  -8    1.34    0.13
   0   4  -8    1.51    0.12
   0   4  -8    1.29    0.16
   0  -4   8    1.61    0.07
   0  -4   8    1.44    0.12
  -1   4  -8   29.65    0.69
  -1   4  -8   29.42    0.74
  -1   4  -8   29.99    1.12
  -1   4  -8   30.11    0.70
   1  -4   8   28.77    0.68
  -2   4  -8    0.03    0.05
  -2   4  -8    0.05    0.05
  -2   4  -8    0.08    0.03
  -2   4  -8    0.11    0.06
   2  -4   8    0.10    0.05
  -3   4  -8   34.83    0.80
  -3   4  -8   35.78    0.80
  -3   4  -8   34.30    0.84
   3  -4   8   33.86    0.79
  -4   4  -8    3.81    0.20
  -4   4  -8    4.02    0.20
  -4   4  -8    3.88    0.22
   4  -4   8    4.03    0.21
  -5   4  -8    0.94    0.14
  -5   4  -8    1.10    0.14
  -5   4  -8    0.91    0.12
  -5   4  -8    1.02    0.13
   5  -4   8    1.36    0.14
  -6   4  -8    9.32    0.39
  -6   4  -8    9.43    0.35
  -6   4  -8    9.75    0.38
  -6   4  -8    9.77    0.35
   6  -4   8    9.75    0.35
  -7   4  -8    0.60    0.12
  -7   4  -8    0.56    0.12
  -7   4  -8    0.53    0.11
  -7   4  -8    0.34    0.10
   7  -4   8    0.47    0.10
  -8   4  -8    1.36    0.19
  -8   4  -8    1.57    0.19
   8  -4   8    1.45    0.16
  -9   4  -8    0.84    0.16
  -9  -3   8    0.19    0.09
  -9  -3   8    0.14    0.09
  -9  -3   8    0.14    0.09
  -8  -3   8    3.12    0.22
  -8  -3   8    3.24    0.23
  -8  -3   8    3.47    0.23
  -7  -3   8    0.00    0.06
  -7  -3   8   -0.01    0.06
  -7  -3   8   -0.02    0.05
   6   3  -8    0.06    0.05
   6   3  -8    0.02    0.04
   6   3  -8    0.04    0.04
  -6  -3   8    0.07    0.05
  -6  -3   8    0.00    0.05
  -6  -3   8    0.02    0.05
   5   3  -8    0.27    0.07
   5   3  -8    0.26    0.06
   5   3  -8    0.21    0.06
   5   3  -8    0.36    0.07
  -5  -3   8    0.34    0.08
  -5  -3   8    0.28    0.07
  -5  -3   8    0.36    0.07
  -5  -3   8    0.25    0.08
   4   3  -8    0.65    0.09
   4   3  -8    0.56    0.09
   4   3  -8    0.64    0.09
   4   3  -8    0.63    0.09
  -4  -3   8    0.66    0.09
  -4  -3   8    0.67    0.08
  -4  -3   8    0.60    0.10
  -4  -3   8    0.64    0.08
  -4  -3   8    0.65    0.09
   3   3  -8   34.86    0.76
   3   3  -8   34.74    0.75
   3   3  -8   33.53    0.84
  -3  -3   8   34.07    0.73
  -3  -3   8   35.90    0.75
   2   3  -8    0.72    0.09
   2   3  -8    0.65    0.09
  -2  -3   8    0.68    0.09
  -2  -3   8    0.68    0.07
  -2  -3   8    0.60    0.05
   1   3  -8   19.58    0.50
   1   3  -8   20.53    0.50
   1   3  -8   19.55    0.52
  -1  -3   8   20.59    0.50
  -1  -3   8   20.08    0.44
  -1  -3   8   19.93    0.72
   0   3  -8   24.40    0.58
   0   3  -8   23.94    0.61
   0   3  -8   25.42    0.58
   0  -3   8   24.98    0.58
  -1   3  -8    3.82    0.18
  -1   3  -8    3.76    0.19
  -1   3  -8    3.50    0.10
  -1   3  -8    3.76    0.18
   1  -3   8    3.59    0.17
  -2   3  -8   17.21    0.46
  -2   3  -8   17.20    0.49
  -2   3  -8   16.64    0.45
   2  -3   8   16.41    0.45
   2  -3   8   16.84    0.31
  -3   3  -8   -0.01    0.05
  -3   3  -8    0.02    0.05
  -3   3  -8    0.04    0.05
   3  -3   8    0.02    0.05
  -4   3  -8   10.89    0.35
  -4   3  -8   10.03    0.37
  -4   3  -8   10.28    0.35
   4  -3   8   10.82    0.35
  -5   3  -8    0.65    0.11
  -5   3  -8    0.34    0.08
  -5   3  -8    0.56    0.11
  -5   3  -8    0.35    0.09
   5  -3   8    0.51    0.10
  -6   3  -8    0.02    0.07
  -6   3  -8    0.09    0.07
  -6   3  -8    0.07    0.07
  -6   3  -8    0.06    0.07
   6  -3   8   -0.01    0.06
  -7   3  -8    1.67    0.17
  -7   3  -8    1.70    0.17
  -7   3  -8    1.41    0.17
  -7   3  -8    1.76    0.19
   7  -3   8    1.53    0.16
  -8   3  -8    0.92    0.15
  -8   3  -8    0.98    0.16
   8  -3   8    0.92    0.14
  -9   3  -8    1.15    0.18
  -9  -2   8    1.25    0.17
  -9  -2   8    1.78    0.19
  -9  -2   8    1.35    0.18
  -8  -2   8   -0.04    0.06
  -8  -2   8   -0.01    0.06
  -8  -2   8   -0.02    0.06
  -7  -2   8    5.59    0.26
  -7  -2   8    4.84    0.26
  -7  -2   8    5.39    0.27
   6   2  -8    1.30    0.09
  -6  -2   8    1.05    0.12
  -6  -2   8    1.08    0.13
  -6  -2   8    0.73    0.12
   5   2  -8    1.75    0.11
   5   2  -8    1.83    0.12
   5   2  -8    1.78    0.12
   5   2  -8    2.16    0.08
   5   2  -8    1.92    0.10
  -5  -2   8    1.84    0.15
  -5  -2   8    1.68    0.11
  -5  -2   8    1.79    0.13
  -5  -2   8    1.95    0.14
  -5  -2   8    1.93    0.14
   4   2  -8    9.03    0.27
   4   2  -8    9.35    0.22
   4   2  -8    9.38    0.27
   4   2  -8    9.08    0.30
  -4  -2   8    9.11    0.30
  -4  -2   8    9.23    0.28
  -4  -2   8    8.95    0.27
  -4  -2   8    9.39    0.32
  -4  -2   8    9.91    0.31
   3   2  -8    3.81    0.17
   3   2  -8    4.09    0.12
   3   2  -8    4.03    0.17
  -3  -2   8    4.12    0.16
  -3  -2   8    3.89    0.17
  -3  -2   8    3.77    0.17
  -3  -2   8    4.12    0.17
   2   2  -8   32.79    0.72
   2   2  -8   34.51    0.73
   2   2  -8   34.73    0.68
   2   2  -8   33.15    0.76
  -2  -2   8   32.98    0.71
  -2  -2   8   34.38    0.72
  -2  -2   8   34.02    0.66
   1   2  -8    0.69    0.09
   1   2  -8    0.74    0.06
   1   2  -8    0.69    0.09
   1   2  -8    0.57    0.08
  -1  -2   8    0.73    0.07
  -1  -2   8    0.67    0.09
  -1  -2   8    0.77    0.06
  -1  -2   8    0.74    0.09
   0   2  -8   40.21    0.91
   0   2  -8   39.46    0.83
   0   2  -8   41.30    0.86
   0   2  -8   41.00    0.86
   0  -2   8   42.21    0.86
   0  -2   8   40.08    0.71
  -1   2  -8    5.19    0.22
  -1   2  -8    5.25    0.21
  -1   2  -8    4.75    0.19
  -1   2  -8    5.20    0.21
   1  -2   8    4.91    0.20
  -2   2  -8   23.61    0.61
  -2   2  -8   22.90    0.57
  -2   2  -8   23.50    0.57
   2  -2   8   22.90    0.56
   2  -2   8   22.42    0.47
  -3   2  -8    6.82    0.26
  -3   2  -8    6.95    0.27
  -3   2  -8    7.31    0.29
   3  -2   8    6.84    0.26
  -4   2  -8   10.76    0.35
  -4   2  -8   11.70    0.39
  -4   2  -8   10.22    0.35
   4  -2   8   11.03    0.36
  -5   2  -8    0.68    0.12
  -5   2  -8    0.55    0.10
  -5   2  -8    0.66    0.11
  -5   2  -8    0.55    0.10
   5  -2   8    0.49    0.09
  -6   2  -8    0.48    0.10
  -6   2  -8    0.68    0.12
  -6   2  -8    0.50    0.10
  -6   2  -8    0.48    0.11
   6  -2   8    0.55    0.11
  -7   2  -8    0.05    0.07
  -7   2  -8    0.22    0.09
  -7   2  -8    0.16    0.08
  -7   2  -8    0.09    0.08
   7  -2   8    0.12    0.08
  -8   2  -8    3.73    0.24
  -8   2  -8    3.47    0.22
  -8   2  -8    3.50    0.23
  -8   2  -8    3.64    0.25
   8  -2   8    3.48    0.22
 -10  -1   8    0.04    0.08
  -9  -1   8    3.41    0.23
  -9  -1   8    3.85    0.26
  -9  -1   8    3.43    0.24
  -8  -1   8    0.60    0.11
  -8  -1   8    0.57    0.12
  -8  -1   8    0.61    0.12
  -7  -1   8    0.97    0.14
  -7  -1   8    1.09    0.14
  -7  -1   8    1.13    0.14
   6   1  -8    7.13    0.21
  -6  -1   8    6.35    0.29
  -6  -1   8    6.60    0.27
  -6  -1   8    6.71    0.27
  -6  -1   8    6.45    0.28
   5   1  -8    2.45    0.12
   5   1  -8    2.87    0.12
   5   1  -8    2.62    0.12
   5   1  -8    2.69    0.12
   5   1  -8    2.52    0.12
  -5  -1   8    2.52    0.12
  -5  -1   8    2.73    0.16
  -5  -1   8    2.56    0.16
  -5  -1   8    2.41    0.16
  -5  -1   8    2.61    0.15
   4   1  -8   59.87    1.13
   4   1  -8   58.25    1.14
   4   1  -8   57.79    1.13
  -4  -1   8   57.70    1.21
  -4  -1   8   59.89    1.12
  -4  -1   8   58.55    1.23
  -4  -1   8   56.99    1.12
  -4  -1   8   58.01    1.18
  -4  -1   8   59.36    1.18
   3   1  -8    8.99    0.28
   3   1  -8    9.64    0.27
   3   1  -8    9.45    0.27
   3   1  -8    9.69    0.25
  -3  -1   8    9.29    0.29
  -3  -1   8    9.35    0.27
  -3  -1   8    9.78    0.27
  -3  -1   8    9.30    0.26
   2   1  -8    5.86    0.21
   2   1  -8    5.72    0.21
   2   1  -8    6.48    0.22
   2   1  -8    6.29    0.19
  -2  -1   8    5.79    0.21
  -2  -1   8    6.18    0.23
  -2  -1   8    5.91    0.21
  -2  -1   8    5.62    0.17
  -2  -1   8    6.05    0.18
   1   1  -8   11.93    0.34
   1   1  -8   12.37    0.32
   1   1  -8   11.72    0.35
   1   1  -8   11.86    0.33
  -1  -1   8   12.10    0.33
  -1  -1   8   12.21    0.27
  -1  -1   8   12.32    0.26
  -1  -1   8   12.90    0.34
  -1  -1   8   13.04    0.48
   0   1  -8    6.76    0.23
   0   1  -8    7.78    0.25
   0   1  -8    7.32    0.26
   0   1  -8    7.41    0.25
   0  -1   8    7.24    0.24
   0  -1   8    7.06    0.16
  -1   1  -8    9.66    0.31
  -1   1  -8    9.74    0.30
  -1   1  -8    9.23    0.32
  -1   1  -8   10.07    0.31
   1  -1   8    9.89    0.31
  -2   1  -8   78.20    1.65
  -2   1  -8   77.18    1.54
  -2   1  -8   79.76    1.56
  -2   1  -8   79.42    1.58
   2  -1   8   78.88    1.42
   2  -1   8   78.93    1.55
  -3   1  -8    0.45    0.09
  -3   1  -8    0.30    0.08
  -3   1  -8    0.37    0.08
   3  -1   8    0.31    0.08
  -4   1  -8    8.86    0.35
  -4   1  -8   10.08    0.34
  -4   1  -8    9.00    0.33
   4  -1   8    9.15    0.33
  -5   1  -8    4.74    0.23
  -5   1  -8    4.58    0.22
  -5   1  -8    4.74    0.24
  -5   1  -8    4.30    0.24
   5  -1   8    4.33    0.22
  -6   1  -8   10.30    0.37
  -6   1  -8   10.40    0.40
  -6   1  -8   10.76    0.38
  -6   1  -8    9.85    0.37
   6  -1   8    9.97    0.38
  -7   1  -8    4.65    0.27
  -7   1  -8    4.38    0.24
  -7   1  -8    4.41    0.25
  -7   1  -8    4.39    0.24
   7  -1   8    4.12    0.24
  -8   1  -8    0.13    0.09
  -8   1  -8    0.02    0.07
  -8   1  -8    0.07    0.08
   8  -1   8    0.05    0.08
 -10   0   8    1.96    0.22
 -10   0   8    2.11    0.23
  -9   0   8    1.47    0.19
  -9   0   8    1.26    0.17
  -9   0   8    1.42    0.17
  -8   0   8    0.60    0.12
  -8   0   8    0.68    0.12
  -8   0   8    0.76    0.12
   7   0  -8    0.34    0.07
  -7   0   8    0.34    0.08
  -7   0   8    0.28    0.09
  -7   0   8    0.35    0.09
  -7   0   8    0.29    0.09
   6   0  -8    0.70    0.09
  -6   0   8    0.60    0.11
  -6   0   8    0.68    0.10
  -6   0   8    0.69    0.10
  -6   0   8    0.72    0.11
   5   0  -8   35.82    0.70
   5   0  -8   36.24    0.78
   5   0  -8   35.26    0.71
   5   0  -8   35.67    0.77
  -5   0   8   35.75    0.83
  -5   0   8   35.89    0.70
  -5   0   8   35.63    0.76
  -5   0   8   35.73    0.80
  -5   0   8   33.90    0.83
   4   0  -8    6.66    0.22
   4   0  -8    6.45    0.20
   4   0  -8    6.68    0.20
  -4   0   8    6.54    0.26
  -4   0   8    6.67    0.25
  -4   0   8    6.36    0.20
  -4   0   8    6.47    0.23
  -4   0   8    6.95    0.23
   3   0  -8   14.97    0.38
   3   0  -8   15.18    0.39
   3   0  -8   15.72    0.38
   3   0  -8   15.02    0.38
  -3   0   8   15.30    0.42
  -3   0   8   15.51    0.37
  -3   0   8   15.15    0.42
  -3   0   8   15.80    0.37
  -3   0   8   15.70    0.38
   2   0  -8   58.37    1.19
   2   0  -8   55.98    1.14
   2   0  -8   56.38    1.12
   2   0  -8   54.66    1.12
  -2   0   8   57.59    1.04
  -2   0   8   58.20    1.17
  -2   0   8   57.34    1.12
  -2   0   8   59.67    1.08
   1   0  -8    0.16    0.05
   1   0  -8    0.17    0.05
   1   0  -8    0.20    0.05
   1   0  -8    0.23    0.06
   1   0  -8    0.21    0.04
  -1   0   8    0.19    0.02
  -1   0   8    0.25    0.06
   0   0  -8   15.55    0.42
   0   0  -8   16.48    0.42
   0   0  -8   15.91    0.42
   0   0  -8   15.56    0.44
   0   0   8   15.76    0.42
  -1   0  -8   34.92    0.78
  -1   0  -8   35.10    0.77
  -1   0  -8   34.93    0.78
  -1   0  -8   33.44    0.81
   1   0   8   34.99    0.77
  -2   0  -8    6.18    0.24
  -2   0  -8    6.21    0.25
  -2   0  -8    5.75    0.24
  -2   0  -8    6.19    0.26
   2   0   8    5.84    0.24
  -3   0  -8    1.09    0.13
  -3   0  -8    1.06    0.13
  -3   0  -8    1.00    0.12
  -3   0  -8    0.88    0.11
   3   0   8    0.84    0.11
  -4   0  -8   30.57    0.71
  -4   0  -8   29.47    0.72
  -4   0  -8   29.77    0.73
  -4   0  -8   28.84    0.77
   4   0   8   28.73    0.72
  -5   0  -8    6.31    0.28
  -5   0  -8    6.23    0.30
  -5   0  -8    6.07    0.27
  -5   0  -8    6.06    0.25
   5   0   8    6.00    0.27
  -6   0  -8    3.46    0.22
  -6   0  -8    3.09    0.21
  -6   0  -8    3.24    0.22
   6   0   8    3.80    0.22
  -7   0  -8    0.25    0.09
  -7   0  -8    0.31    0.10
  -7   0  -8    0.27    0.10
   7   0   8    0.18    0.09
  -8   0  -8    1.75    0.20
  -8   0  -8    1.77    0.21
  -8   0  -8    1.45    0.18
   8   0   8    1.70    0.19
 -10   1   8    0.11    0.09
 -10   1   8    0.03    0.08
 -10   1   8    0.02    0.08
  -9   1   8    2.78    0.21
  -9   1   8    3.32    0.24
  -9   1   8    3.49    0.24
   8  -1  -8   11.19    0.37
  -8   1   8   11.78    0.41
  -8   1   8   11.22    0.41
  -8   1   8   11.29    0.44
  -8   1   8   11.09    0.43
   7  -1  -8   18.05    0.49
  -7   1   8   16.82    0.55
  -7   1   8   16.96    0.53
  -7   1   8   17.26    0.51
  -7   1   8   17.67    0.50
   6  -1  -8    2.32    0.14
  -6   1   8    2.47    0.17
  -6   1   8    2.39    0.16
  -6   1   8    2.41    0.15
  -6   1   8    2.43    0.18
   5  -1  -8    5.12    0.16
   5  -1  -8    4.93    0.15
   5  -1  -8    4.82    0.21
  -5   1   8    5.12    0.24
  -5   1   8    4.87    0.21
  -5   1   8    5.01    0.15
  -5   1   8    5.33    0.25
  -5   1   8    5.13    0.21
   4  -1  -8   44.71    0.92
   4  -1  -8   45.28    0.88
   4  -1  -8   44.83    0.89
   4  -1  -8   44.72    0.95
  -4   1   8   45.48    0.92
  -4   1   8   44.47    1.00
  -4   1   8   44.60    0.88
  -4   1   8   45.54    0.90
  -4   1   8   45.89    0.98
   3  -1  -8   38.87    0.78
   3  -1  -8   37.96    0.82
   3  -1  -8   37.71    0.77
   3  -1  -8   37.23    0.82
  -3   1   8   37.11    0.77
  -3   1   8   37.04    1.23
  -3   1   8   38.37    0.77
  -3   1   8   37.28    0.85
  -3   1   8   39.91    0.83
   2  -1  -8    4.07    0.17
   2  -1  -8    3.98    0.18
   2  -1  -8    4.32    0.17
   2  -1  -8    4.27    0.18
  -2   1   8    4.10    0.17
  -2   1   8    4.18    0.19
  -2   1   8    4.30    0.17
   1  -1  -8   13.53    0.40
   1  -1  -8   14.13    0.38
   1  -1  -8   14.25    0.39
   1  -1  -8   13.80    0.37
  -1   1   8   14.56    0.38
   0  -1  -8   18.06    0.50
   0  -1  -8   19.35    0.48
   0  -1  -8   18.05    0.48
   0  -1  -8   18.66    0.48
   0  -1  -8   19.24    0.35
   0   1   8   18.70    0.48
  -1  -1  -8   21.24    0.58
  -1  -1  -8   21.66    0.54
  -1  -1  -8   21.62    0.55
  -1  -1  -8   21.53    0.54
   1   1   8   21.84    0.55
  -2  -1  -8   13.80    0.42
  -2  -1  -8   14.39    0.41
  -2  -1  -8   14.08    0.41
  -2  -1  -8   12.88    0.43
   2   1   8   14.29    0.42
   2   1   8   13.50    0.30
  -3  -1  -8    1.54    0.15
  -3  -1  -8    1.68    0.14
  -3  -1  -8    1.71    0.15
  -3  -1  -8    1.52    0.16
   3   1   8    1.64    0.16
  -4  -1  -8    1.47    0.15
  -4  -1  -8    1.89    0.16
  -4  -1  -8    1.69    0.17
  -4  -1  -8    1.61    0.11
  -4  -1  -8    1.73    0.17
   4   1   8    1.73    0.17
  -5  -1  -8    0.00    0.07
  -5  -1  -8   -0.02    0.06
   5   1   8   -0.06    0.06
  -6  -1  -8    1.82    0.19
  -6  -1  -8    1.71    0.20
  -6  -1  -8    1.72    0.18
   6   1   8    1.77    0.18
  -7  -1  -8    3.05    0.22
  -7  -1  -8    2.83    0.21
  -7  -1  -8    3.03    0.24
   7   1   8    2.80    0.21
  -8  -1  -8    0.19    0.10
  -8  -1  -8    0.39    0.12
   8   1   8    0.16    0.10
 -10   2   8    0.08    0.09
  -9   2   8    0.10    0.09
  -9   2   8    0.31    0.10
  -9   2   8    0.18    0.09
   8  -2  -8    3.42    0.21
  -8   2   8    3.68    0.23
  -8   2   8    3.75    0.22
  -8   2   8    3.68    0.24
  -8   2   8    3.74    0.25
   7  -2  -8    0.41    0.09
  -7   2   8    0.51    0.11
  -7   2   8    0.41    0.10
  -7   2   8    0.44    0.10
   6  -2  -8    9.04    0.32
  -6   2   8    9.45    0.35
  -6   2   8    9.25    0.32
  -6   2   8    9.59    0.37
   5  -2  -8   26.55    0.54
   5  -2  -8   26.87    0.55
   5  -2  -8   26.39    0.66
   5  -2  -8   26.50    0.56
  -5   2   8   26.35    0.69
  -5   2   8   26.59    0.67
  -5   2   8   26.56    0.54
   4  -2  -8   10.02    0.27
   4  -2  -8    9.97    0.27
   4  -2  -8    9.92    0.32
   4  -2  -8   10.06    0.28
  -4   2   8   10.29    0.36
  -4   2   8   10.31    0.33
  -4   2   8    9.64    0.26
  -4   2   8    9.86    0.42
   3  -2  -8    7.44    0.28
   3  -2  -8    8.39    0.25
   3  -2  -8    8.29    0.26
   3  -2  -8    8.00    0.25
  -3   2   8    8.55    0.25
  -3   2   8    8.46    0.28
  -3   2   8    8.00    0.30
   2  -2  -8    0.48    0.08
   2  -2  -8    0.49    0.07
   2  -2  -8    0.47    0.08
   2  -2  -8    0.75    0.05
   2  -2  -8    0.54    0.08
  -2   2   8    0.66    0.08
  -2   2   8    0.50    0.07
  -2   2   8    0.48    0.09
   1  -2  -8    5.84    0.24
   1  -2  -8    5.81    0.24
   1  -2  -8    5.96    0.23
   1  -2  -8    6.19    0.23
  -1   2   8    6.40    0.23
  -1   2   8    6.05    0.22
  -1   2   8    5.72    0.20
   0  -2  -8   41.53    0.90
   0  -2  -8   42.62    0.97
   0  -2  -8   42.08    0.95
   0  -2  -8   42.24    0.91
   0   2   8   42.29    0.87
   0   2   8   42.39    0.91
   0   2   8   42.80    0.88
  -1  -2  -8   12.95    0.39
  -1  -2  -8   12.58    0.39
  -1  -2  -8   12.64    0.42
  -1  -2  -8   12.81    0.40
   1   2   8   13.85    0.33
   1   2   8   12.81    0.38
   1   2   8   13.12    0.40
  -2  -2  -8    1.83    0.15
  -2  -2  -8    1.86    0.16
  -2  -2  -8    2.12    0.15
  -2  -2  -8    1.99    0.15
   2   2   8    2.14    0.11
   2   2   8    1.86    0.15
   2   2   8    2.04    0.14
  -3  -2  -8   17.17    0.52
  -3  -2  -8   16.19    0.53
  -3  -2  -8   17.52    0.50
  -3  -2  -8   17.66    0.51
   3   2   8   16.72    0.50
   3   2   8   16.68    0.48
  -4  -2  -8    5.82    0.27
  -4  -2  -8    6.02    0.29
  -4  -2  -8    5.66    0.27
  -4  -2  -8    5.50    0.29
   4   2   8    5.35    0.27
   4   2   8    5.47    0.26
  -5  -2  -8   13.36    0.49
  -5  -2  -8   13.44    0.46
  -5  -2  -8   13.83    0.50
  -5  -2  -8   13.75    0.46
   5   2   8   13.21    0.47
  -6  -2  -8    1.10    0.17
  -6  -2  -8    1.05    0.15
  -6  -2  -8    0.76    0.14
   6   2   8    1.11    0.16
  -7  -2  -8    1.23    0.17
  -7  -2  -8    1.29    0.18
   7   2   8    1.26    0.18
  -8  -2  -8    0.03    0.09
  -8  -2  -8    0.11    0.10
   8   2   8   -0.05    0.08
   9  -3  -8    0.82    0.13
  -9   3   8    0.56    0.13
  -9   3   8    0.61    0.14
   8  -3  -8    0.10    0.07
  -8   3   8    0.11    0.08
  -8   3   8    0.19    0.09
   7  -3  -8    0.03    0.06
  -7   3   8   -0.01    0.06
  -7   3   8    0.02    0.07
   6  -3  -8   11.65    0.40
  -6   3   8   12.18    0.41
  -6   3   8   12.33    0.44
   5  -3  -8    6.04    0.18
   5  -3  -8    5.81    0.18
   5  -3  -8    5.62    0.26
  -5   3   8    5.49    0.25
  -5   3   8    5.63    0.27
  -5   3   8    5.81    0.32
   4  -3  -8   43.82    0.89
   4  -3  -8   42.90    0.87
   4  -3  -8   44.14    0.93
   4  -3  -8   43.97    0.87
   4  -3  -8   41.38    0.98
  -4   3   8   43.40    0.87
  -4   3   8   45.43    0.96
  -4   3   8   45.43    1.50
  -4   3   8   42.36    1.00
   3  -3  -8    9.74    0.30
   3  -3  -8    9.51    0.29
   3  -3  -8    9.68    0.29
   3  -3  -8    9.47    0.33
  -3   3   8    9.44    0.29
  -3   3   8    9.92    0.30
  -3   3   8    9.67    0.28
  -3   3   8    9.28    0.34
   2  -3  -8    0.59    0.09
   2  -3  -8    0.62    0.09
   2  -3  -8    0.43    0.08
  -2   3   8    0.55    0.10
  -2   3   8    0.65    0.09
  -2   3   8    0.57    0.08
  -2   3   8    0.53    0.07
   1  -3  -8    7.49    0.29
   1  -3  -8    7.22    0.26
   1  -3  -8    7.29    0.27
  -1   3   8    7.14    0.22
  -1   3   8    7.67    0.26
  -1   3   8    7.47    0.27
   0  -3  -8    0.13    0.06
   0  -3  -8    0.09    0.06
   0  -3  -8    0.23    0.07
   0   3   8    0.12    0.05
   0   3   8    0.16    0.05
   0   3   8    0.09    0.03
   0   3   8    0.04    0.06
  -1  -3  -8   16.16    0.47
  -1  -3  -8   15.94    0.49
  -1  -3  -8   16.24    0.48
   1   3   8   16.63    0.36
   1   3   8   16.79    0.46
   1   3   8   16.67    0.42
   1   3   8   16.75    0.48
  -2  -3  -8    2.89    0.19
  -2  -3  -8    3.04    0.19
  -2  -3  -8    3.22    0.20
   2   3   8    2.82    0.19
   2   3   8    3.10    0.15
   2   3   8    2.99    0.18
  -3  -3  -8    1.27    0.15
  -3  -3  -8    1.07    0.14
  -3  -3  -8    0.99    0.14
   3   3   8    1.34    0.15
   3   3   8    1.17    0.15
  -4  -3  -8   -0.02    0.06
  -4  -3  -8   -0.04    0.06
  -4  -3  -8   -0.09    0.06
  -4  -3  -8   -0.05    0.07
   4   3   8   -0.01    0.07
   4   3   8    0.04    0.07
  -5  -3  -8    1.65    0.20
  -5  -3  -8    1.85    0.19
  -5  -3  -8    1.76    0.20
  -5  -3  -8    2.00    0.21
   5   3   8    1.77    0.20
   5   3   8    1.67    0.18
  -6  -3  -8    3.85    0.27
  -6  -3  -8    3.69    0.25
  -6  -3  -8    3.77    0.25
   6   3   8    3.92    0.25
   6   3   8    3.85    0.26
  -7  -3  -8    0.47    0.13
   7   3   8    0.64    0.14
  10  -4  -8    4.22    0.27
   9  -4  -8   -0.02    0.06
  -9   4   8    0.06    0.08
   8  -4  -8    2.72    0.20
  -8   4   8    2.94    0.23
  -8   4   8    2.44    0.20
   7  -4  -8    2.29    0.18
  -7   4   8    2.16    0.18
  -7   4   8    2.03    0.21
   6  -4  -8    9.44    0.37
  -6   4   8    9.32    0.35
  -6   4   8    9.39    0.39
   5  -4  -8    7.67    0.32
   5  -4  -8    8.10    0.24
  -5   4   8    8.32    0.44
  -5   4   8    8.08    0.31
  -5   4   8    8.13    0.34
   4  -4  -8    0.35    0.09
   4  -4  -8    0.25    0.06
   4  -4  -8    0.35    0.07
   4  -4  -8    0.23    0.06
  -4   4   8    0.26    0.06
  -4   4   8    0.13    0.06
  -4   4   8    0.24    0.06
  -4   4   8    0.30    0.12
  -4   4   8    0.14    0.07
   3  -4  -8    9.26    0.30
   3  -4  -8    9.77    0.31
   3  -4  -8   10.45    0.37
  -3   4   8    9.10    0.29
  -3   4   8   10.09    0.37
  -3   4   8   10.54    0.31
  -3   4   8   10.39    0.31
   2  -4  -8    9.64    0.32
   2  -4  -8    9.87    0.32
   2  -4  -8    9.37    0.35
  -2   4   8    9.60    0.32
  -2   4   8    9.66    0.36
  -2   4   8    9.82    0.31
  -2   4   8    9.94    0.28
   1  -4  -8    7.98    0.29
   1  -4  -8    7.56    0.28
   1  -4  -8    7.50    0.31
  -1   4   8    7.31    0.27
  -1   4   8    7.97    0.29
  -1   4   8    7.65    0.28
  -1   4   8    7.53    0.22
   0  -4  -8   29.69    0.72
   0  -4  -8   29.47    0.73
   0  -4  -8   30.38    0.77
   0   4   8   28.90    0.70
   0   4   8   30.81    0.71
   0   4   8   30.74    0.74
  -1  -4  -8    0.46    0.10
  -1  -4  -8    0.64    0.11
  -1  -4  -8    0.46    0.10
   1   4   8    0.50    0.10
   1   4   8    0.56    0.09
   1   4   8    0.44    0.09
  -2  -4  -8    7.03    0.31
  -2  -4  -8    7.05    0.31
  -2  -4  -8    7.14    0.32
   2   4   8    7.04    0.30
   2   4   8    6.81    0.26
   2   4   8    7.40    0.32
  -3  -4  -8    0.17    0.08
  -3  -4  -8    0.02    0.07
  -3  -4  -8    0.00    0.07
   3   4   8    0.02    0.08
   3   4   8    0.16    0.07
  -4  -4  -8    1.85    0.21
  -4  -4  -8    1.61    0.19
  -4  -4  -8    1.81    0.19
   4   4   8    1.71    0.18
   4   4   8    2.07    0.21
  -5  -4  -8    2.18    0.22
  -5  -4  -8    1.97    0.22
  -5  -4  -8    2.11    0.22
   5   4   8    2.17    0.21
   5   4   8    2.22    0.23
  -6  -4  -8    0.24    0.11
  -6  -4  -8    0.09    0.09
   6   4   8    0.11    0.09
   6   4   8    0.11    0.10
  10  -5  -8    2.16    0.23
   9  -5  -8    4.67    0.29
  -9   5   8    4.17    0.30
   8  -5  -8    0.06    0.08
  -8   5   8    0.11    0.08
   7  -5  -8   13.28    0.49
  -7   5   8   13.10    0.50
   6  -5  -8    0.31    0.10
  -6   5   8    0.29    0.10
  -6   5   8    0.23    0.08
   5  -5  -8    1.89    0.19
  -5   5   8    1.80    0.14
  -5   5   8    1.92    0.24
  -5   5   8    1.58    0.18
   4  -5  -8    6.63    0.24
   4  -5  -8    6.86    0.25
   4  -5  -8    6.65    0.31
  -4   5   8    6.60    0.45
  -4   5   8    6.94    0.25
  -4   5   8    6.67    0.26
  -4   5   8    6.68    0.31
  -4   5   8    7.04    0.24
   3  -5  -8    4.46    0.21
   3  -5  -8    4.16    0.20
   3  -5  -8    4.40    0.24
  -3   5   8    4.36    0.19
  -3   5   8    4.35    0.20
  -3   5   8    4.41    0.24
  -3   5   8    4.22    0.20
   2  -5  -8    0.65    0.12
   2  -5  -8    0.60    0.10
   2  -5  -8    0.88    0.12
  -2   5   8    0.61    0.12
  -2   5   8    0.79    0.08
  -2   5   8    0.67    0.10
  -2   5   8    0.63    0.11
  -2   5   8    0.40    0.09
   1  -5  -8    0.48    0.10
   1  -5  -8    0.47    0.11
   1  -5  -8    0.28    0.08
  -1   5   8    0.33    0.09
  -1   5   8    0.34    0.08
  -1   5   8    0.45    0.10
  -1   5   8    0.52    0.09
   0  -5  -8   10.78    0.38
   0  -5  -8   10.27    0.37
   0  -5  -8    9.72    0.39
   0   5   8   10.08    0.37
   0   5   8   10.31    0.38
   0   5   8   10.00    0.34
   0   5   8   10.52    0.36
  -1  -5  -8    5.67    0.28
  -1  -5  -8    5.51    0.28
  -1  -5  -8    5.77    0.29
   1   5   8    5.87    0.28
   1   5   8    5.63    0.27
   1   5   8    6.00    0.29
   1   5   8    5.50    0.25
  -2  -5  -8    0.04    0.07
  -2  -5  -8    0.05    0.08
  -2  -5  -8   -0.01    0.06
   2   5   8    0.07    0.08
   2   5   8    0.04    0.06
   2   5   8    0.03    0.07
   2   5   8    0.10    0.07
  -3  -5  -8    3.49    0.24
  -3  -5  -8    3.62    0.25
  -3  -5  -8    3.70    0.24
   3   5   8    3.66    0.24
   3   5   8    3.63    0.23
  -4  -5  -8    0.82    0.15
  -4  -5  -8    0.57    0.13
  -4  -5  -8    0.72    0.14
   4   5   8    0.89    0.15
   4   5   8    0.74    0.14
  -5  -5  -8    1.15    0.17
  -5  -5  -8    0.48    0.13
  -5  -5  -8    0.79    0.16
   5   5   8    0.58    0.13
   5   5   8    0.85    0.15
   9  -6  -8    0.52    0.13
   8  -6  -8    0.05    0.08
  -8   6   8    0.05    0.09
   7  -6  -8    0.62    0.13
  -7   6   8    0.64    0.14
   6  -6  -8    3.41    0.24
  -6   6   8    3.17    0.23
   5  -6  -8    5.32    0.29
  -5   6   8    5.57    0.43
  -5   6   8    6.04    0.31
   4  -6  -8    7.37    0.27
   4  -6  -8    6.86    0.33
   4  -6  -8    6.82    0.27
  -4   6   8    7.42    0.27
  -4   6   8    6.63    0.48
  -4   6   8    7.41    0.34
  -4   6   8    7.09    0.26
   3  -6  -8    3.47    0.20
   3  -6  -8    3.50    0.23
   3  -6  -8    3.38    0.19
  -3   6   8    3.36    0.19
  -3   6   8    3.62    0.23
  -3   6   8    3.29    0.19
   2  -6  -8    0.20    0.08
   2  -6  -8    0.15    0.08
   2  -6  -8    0.12    0.08
  -2   6   8    0.09    0.07
  -2   6   8    0.07    0.07
  -2   6   8    0.22    0.08
  -2   6   8    0.18    0.07
  -2   6   8    0.07    0.07
   1  -6  -8   13.22    0.47
   1  -6  -8   12.43    0.43
   1  -6  -8   13.81    0.45
  -1   6   8   13.20    0.42
  -1   6   8   12.72    0.43
  -1   6   8   13.05    0.43
  -1   6   8   12.55    0.44
   0  -6  -8    3.36    0.22
   0  -6  -8    3.15    0.23
   0  -6  -8    3.29    0.22
   0   6   8    3.42    0.22
   0   6   8    3.31    0.21
   0   6   8    3.16    0.20
   0   6   8    3.21    0.22
  -1  -6  -8    1.91    0.21
  -1  -6  -8    2.27    0.19
  -1  -6  -8    2.27    0.19
   1   6   8    2.08    0.21
   1   6   8    2.25    0.19
   1   6   8    1.88    0.19
   1   6   8    1.78    0.16
  -2  -6  -8    0.07    0.08
  -2  -6  -8   -0.04    0.07
  -2  -6  -8    0.04    0.07
   2   6   8    0.06    0.08
   2   6   8    0.05    0.07
   2   6   8   -0.01    0.07
  -3  -6  -8    0.03    0.08
  -3  -6  -8    0.13    0.09
  -3  -6  -8    0.08    0.09
   3   6   8    0.06    0.09
   3   6   8    0.03    0.08
   3   6   8    0.05    0.08
  -4  -6  -8    1.66    0.21
  -4  -6  -8    1.34    0.19
  -4  -6  -8    1.41    0.20
   4   6   8    1.49    0.19
   4   6   8    1.59    0.21
   8  -7  -8    0.02    0.09
  -8   7   8    0.05    0.09
   7  -7  -8    0.68    0.15
  -7   7   8    0.82    0.16
   6  -7  -8    0.56    0.13
  -6   7   8    0.78    0.15
   5  -7  -8    2.52    0.22
  -5   7   8    2.26    0.30
  -5   7   8    2.05    0.22
   4  -7  -8    0.25    0.08
   4  -7  -8    0.08    0.08
   4  -7  -8    0.37    0.09
  -4   7   8    0.24    0.08
  -4   7   8    0.17    0.16
  -4   7   8    0.13    0.09
  -4   7   8    0.27    0.08
   3  -7  -8    7.31    0.31
   3  -7  -8    7.86    0.32
   3  -7  -8    6.81    0.35
  -3   7   8    7.73    0.30
  -3   7   8    7.32    0.31
  -3   7   8    6.83    0.34
  -3   7   8    6.97    0.54
  -3   7   8    7.23    0.30
   2  -7  -8    1.79    0.19
   2  -7  -8    1.76    0.18
   2  -7  -8    1.80    0.20
  -2   7   8    1.63    0.17
  -2   7   8    1.88    0.19
  -2   7   8    1.72    0.18
  -2   7   8    1.69    0.20
  -2   7   8    1.90    0.19
   1  -7  -8    0.45    0.11
   1  -7  -8    0.45    0.12
   1  -7  -8    0.29    0.11
  -1   7   8    0.52    0.11
  -1   7   8    0.44    0.11
  -1   7   8    0.54    0.12
  -1   7   8    0.55    0.12
   0  -7  -8    0.69    0.13
   0  -7  -8    0.58    0.13
   0  -7  -8    0.73    0.14
   0   7   8    0.49    0.11
   0   7   8    0.39    0.11
   0   7   8    0.51    0.11
   0   7   8    0.67    0.13
  -1  -7  -8    1.00    0.16
  -1  -7  -8    1.37    0.19
  -1  -7  -8    1.35    0.18
   1   7   8    1.41    0.17
   1   7   8    1.28    0.18
   1   7   8    1.04    0.16
   1   7   8    1.20    0.18
  -2  -7  -8    0.10    0.10
  -2  -7  -8    0.09    0.09
  -2  -7  -8    0.06    0.09
   2   7   8    0.12    0.08
   2   7   8    0.16    0.10
   2   7   8    0.04    0.08
  -3  -7  -8    0.92    0.17
  -3  -7  -8    0.78    0.16
  -3  -7  -8    0.79    0.15
   3   7   8    0.79    0.16
   3   7   8    0.59    0.15
  -7   8   8    1.94    0.24
   6  -8  -8    0.32    0.12
  -6   8   8    0.24    0.11
   5  -8  -8    0.22    0.11
  -5   8   8    0.28    0.11
  -5   8   8    0.32    0.19
   4  -8  -8    0.70    0.12
   4  -8  -8    0.76    0.13
   4  -8  -8    0.93    0.16
  -4   8   8    0.69    0.14
  -4   8   8    0.42    0.22
   3  -8  -8    3.94    0.24
   3  -8  -8    4.18    0.28
   3  -8  -8    4.13    0.25
  -3   8   8    4.26    0.24
  -3   8   8    4.06    0.24
  -3   8   8    3.99    0.43
  -3   8   8    4.12    0.25
  -3   8   8    4.09    0.27
  -3   8   8    4.59    0.28
   2  -8  -8    0.86    0.15
   2  -8  -8    0.63    0.14
   2  -8  -8    0.63    0.13
  -2   8   8    0.65    0.14
  -2   8   8    0.58    0.13
  -2   8   8    0.64    0.14
  -2   8   8    0.55    0.12
  -2   8   8    0.69    0.12
   1  -8  -8    0.16    0.10
   1  -8  -8    0.18    0.10
   1  -8  -8    0.08    0.09
  -1   8   8    0.23    0.11
  -1   8   8    0.21    0.09
  -1   8   8    0.02    0.08
  -1   8   8    0.12    0.09
  -1   8   8    0.06    0.08
   0  -8  -8    0.24    0.11
   0  -8  -8    0.30    0.12
   0  -8  -8    0.26    0.11
   0   8   8    0.38    0.12
   0   8   8    0.25    0.11
   0   8   8    0.39    0.11
   0   8   8    0.35    0.11
  -1  -8  -8    2.53    0.26
  -1  -8  -8    2.66    0.26
  -1  -8  -8    2.50    0.26
   1   8   8    2.12    0.23
   1   8   8    2.51    0.26
  -2  -8  -8    0.87    0.16
  -5   9   8    1.12    0.19
   4  -9  -8    0.33    0.12
  -4   9   8    0.14    0.19
  -4   9   8    0.16    0.10
   3  -9  -8    0.28    0.10
   3  -9  -8    0.29    0.11
   3  -9  -8    0.39    0.13
  -3   9   8    0.44    0.11
  -3   9   8    0.44    0.12
  -3   9   8    0.10    0.08
  -3   9   8    0.27    0.12
  -3   9   8    0.37    0.12
  -3   9   8    0.19    0.20
   2  -9  -8    3.41    0.25
   2  -9  -8    3.94    0.26
   2  -9  -8    3.76    0.28
  -2   9   8    3.94    0.25
  -2   9   8    4.14    0.27
  -2   9   8    3.88    0.28
  -2   9   8    3.85    0.27
  -2   9   8    3.79    0.26
  -2   9   8    3.66    0.45
   1  -9  -8    0.20    0.11
   1  -9  -8    0.19    0.11
   1  -9  -8    0.05    0.10
  -1   9   8    0.15    0.10
  -1   9   8    0.15    0.11
  -1   9   8    0.10    0.10
  -1   9   8    0.33    0.12
   0   9   8    0.89    0.16
   3 -10  -8    0.14    0.11
   0  12  -9    0.78    0.20
   0  12  -9    0.14    0.12
  -1  12  -9    1.16    0.26
  -1  12  -9    0.41    0.13
  -2  12  -9    0.63    0.18
  -2  12  -9    0.02    0.08
  -3  12  -9    1.14    0.18
   1  11  -9    0.87    0.17
   1  11  -9    0.95    0.18
  -1 -11   9    0.97    0.18
   0  11  -9    1.79    0.22
   0  11  -9    1.33    0.20
   0  11  -9    1.44    0.20
   0 -11   9    1.50    0.20
  -1  11  -9    0.17    0.11
  -1  11  -9    0.06    0.09
  -1  11  -9   -0.01    0.09
  -1  11  -9    0.35    0.14
  -1  11  -9   -0.01    0.09
   1 -11   9    0.06    0.09
  -2  11  -9    0.66    0.15
  -2  11  -9    0.60    0.15
  -2  11  -9    0.88    0.23
  -2  11  -9    0.61    0.14
  -2  11  -9    0.38    0.12
   2 -11   9    0.46    0.14
  -3  11  -9   -0.04    0.09
  -3  11  -9    0.39    0.16
  -3  11  -9   -0.07    0.09
  -3  11  -9    0.00    0.09
  -3  11  -9    0.04    0.08
   3 -11   9   -0.08    0.07
  -4  11  -9    2.28    0.25
  -4  11  -9    2.28    0.24
  -4  11  -9    2.73    0.35
  -4  11  -9    2.25    0.24
  -4  11  -9    2.18    0.24
   4 -11   9    2.21    0.24
  -5  11  -9    1.13    0.18
  -5  11  -9    0.88    0.16
  -5  11  -9    1.49    0.20
   5 -11   9    0.86    0.16
  -6  11  -9   -0.05    0.08
  -6  11  -9    0.03    0.09
   4  10  -9    0.07    0.10
   4  10  -9    0.02    0.09
  -4 -10   9    0.13    0.10
  -4 -10   9    0.19    0.11
   3  10  -9    0.67    0.14
   3  10  -9    0.65    0.15
   3  10  -9    0.82    0.16
  -3 -10   9    1.08    0.18
  -3 -10   9    0.76    0.15
   2  10  -9    2.74    0.23
   2  10  -9    2.59    0.26
  -2 -10   9    3.26    0.25
   1  10  -9    2.94    0.24
   1  10  -9    2.66    0.26
   1  10  -9    3.08    0.24
   1  10  -9    3.14    0.32
  -1 -10   9    3.02    0.24
   0  10  -9    0.00    0.09
   0  10  -9   -0.01    0.08
   0  10  -9   -0.01    0.09
   0  10  -9    0.48    0.16
   0 -10   9    0.14    0.09
  -1  10  -9    0.19    0.10
  -1  10  -9    0.22    0.11
  -1  10  -9    0.26    0.10
  -1  10  -9    0.10    0.08
  -1  10  -9    0.58    0.19
   1 -10   9    0.13    0.09
  -2  10  -9    0.94    0.16
  -2  10  -9    1.12    0.16
  -2  10  -9    1.72    0.31
  -2  10  -9    1.00    0.15
  -2  10  -9    1.12    0.17
   2 -10   9    1.01    0.16
  -3  10  -9    4.19    0.27
  -3  10  -9    3.53    0.25
  -3  10  -9    4.42    0.43
  -3  10  -9    3.72    0.24
  -3  10  -9    4.25    0.27
   3 -10   9    3.53    0.25
  -4  10  -9    1.74    0.21
  -4  10  -9    1.85    0.21
  -4  10  -9    1.87    0.21
  -4  10  -9    2.45    0.33
   4 -10   9    1.59    0.19
  -5  10  -9    0.22    0.10
  -5  10  -9    0.16    0.11
  -5  10  -9    0.65    0.20
  -5  10  -9    0.33    0.12
  -5  10  -9    0.35    0.12
   5 -10   9    0.40    0.12
  -6  10  -9    2.27    0.23
  -6  10  -9    2.44    0.28
  -6  10  -9    3.04    0.38
  -6  10  -9    2.29    0.24
   6 -10   9    2.49    0.21
   5   9  -9    0.22    0.10
   5   9  -9    0.19    0.11
   5   9  -9    0.15    0.09
  -5  -9   9    0.23    0.10
  -5  -9   9    0.12    0.10
   4   9  -9    0.17    0.11
   4   9  -9    0.12    0.09
   4   9  -9    0.05    0.09
  -4  -9   9    0.07    0.07
  -4  -9   9    0.17    0.10
  -4  -9   9   -0.03    0.08
   3   9  -9    1.15    0.17
   3   9  -9    1.44    0.20
  -3  -9   9    1.46    0.19
   2   9  -9    0.03    0.09
   2   9  -9    0.00    0.08
   2   9  -9    0.15    0.10
   2   9  -9    0.06    0.08
  -2  -9   9   -0.03    0.07
   1   9  -9    1.09    0.23
   1   9  -9    0.60    0.13
   1   9  -9    0.58    0.12
   1   9  -9    0.46    0.13
   1   9  -9    0.55    0.13
  -1  -9   9    0.44    0.12
   0   9  -9    1.42    0.26
   0   9  -9    0.84    0.15
   0   9  -9    1.03    0.16
   0   9  -9    0.63    0.13
   0   9  -9    1.09    0.17
   0  -9   9    0.94    0.15
  -1   9  -9    1.18    0.26
  -1   9  -9    0.71    0.16
  -1   9  -9    0.76    0.14
  -1   9  -9    0.85    0.14
  -1   9  -9    0.98    0.15
   1  -9   9    0.66    0.13
  -2   9  -9   10.07    0.46
  -2   9  -9   10.69    0.39
  -2   9  -9    9.89    0.64
  -2   9  -9    9.40    0.40
  -2   9  -9    9.37    0.40
  -2   9  -9    9.86    0.40
   2  -9   9    9.58    0.40
  -3   9  -9    0.02    0.08
  -3   9  -9    0.09    0.09
  -3   9  -9    0.24    0.10
  -3   9  -9    0.27    0.14
  -3   9  -9    0.07    0.07
  -3   9  -9    0.11    0.09
   3  -9   9    0.11    0.08
  -4   9  -9    2.05    0.29
  -4   9  -9    1.78    0.20
  -4   9  -9    1.87    0.20
  -4   9  -9    1.54    0.19
   4  -9   9    1.60    0.19
  -5   9  -9    3.52    0.24
  -5   9  -9    3.50    0.27
  -5   9  -9    4.29    0.44
  -5   9  -9    3.58    0.25
   5  -9   9    3.50    0.24
  -6   9  -9   -0.01    0.08
  -6   9  -9    0.14    0.13
  -6   9  -9   -0.04    0.07
  -6   9  -9    0.07    0.09
   6  -9   9    0.03    0.07
   7  -9   9    0.48    0.12
   6   8  -9    0.18    0.10
  -6  -8   9    0.07    0.09
   5   8  -9    0.07    0.07
   5   8  -9    0.00    0.08
   5   8  -9   -0.01    0.08
  -5  -8   9    0.02    0.07
  -5  -8   9    0.06    0.08
  -5  -8   9    0.02    0.08
   4   8  -9    0.68    0.14
   4   8  -9    0.95    0.15
   4   8  -9    0.50    0.13
  -4  -8   9    0.81    0.13
  -4  -8   9    0.66    0.13
  -4  -8   9    0.82    0.13
   3   8  -9    2.91    0.22
   3   8  -9    2.72    0.21
   3   8  -9    3.08    0.24
   3   8  -9    2.58    0.21
  -3  -8   9    2.85    0.21
   2   8  -9   11.34    0.48
   2   8  -9   10.80    0.43
   2   8  -9   11.55    0.43
   2   8  -9   11.88    0.62
   2   8  -9   11.49    0.42
  -2  -8   9   11.04    0.42
   1   8  -9    0.11    0.08
   1   8  -9    0.52    0.16
   1   8  -9    0.21    0.10
   1   8  -9    0.24    0.09
   1   8  -9    0.23    0.10
  -1  -8   9    0.14    0.08
   0   8  -9    2.92    0.24
   0   8  -9    3.45    0.32
   0   8  -9    3.05    0.21
   0   8  -9    3.13    0.22
   0   8  -9    3.13    0.22
   0  -8   9    3.50    0.22
  -1   8  -9    0.69    0.15
  -1   8  -9    1.20    0.24
  -1   8  -9    0.94    0.14
  -1   8  -9    0.99    0.15
  -1   8  -9    1.00    0.14
   1  -8   9    0.93    0.14
  -2   8  -9    0.46    0.11
  -2   8  -9    0.66    0.20
  -2   8  -9    0.46    0.09
  -2   8  -9    0.55    0.12
  -2   8  -9    0.49    0.11
   2  -8   9    0.44    0.11
  -3   8  -9   10.23    0.35
  -3   8  -9   10.84    0.41
  -3   8  -9   10.80    0.67
  -3   8  -9    9.93    0.45
  -3   8  -9    9.83    0.39
   3  -8   9   10.43    0.40
  -4   8  -9    0.71    0.22
  -4   8  -9    0.28    0.10
  -4   8  -9    0.62    0.12
  -4   8  -9    0.33    0.11
   4  -8   9    0.66    0.12
  -5   8  -9    3.29    0.25
  -5   8  -9    3.05    0.22
  -5   8  -9    3.62    0.23
  -5   8  -9    3.38    0.39
  -5   8  -9    3.12    0.24
   5  -8   9    3.50    0.23
  -6   8  -9    0.05    0.08
  -6   8  -9    0.06    0.08
  -6   8  -9    0.03    0.09
   6  -8   9    0.07    0.08
  -7   8  -9    0.08    0.09
  -7   8  -9    0.31    0.12
  -7   8  -9    0.04    0.08
   7  -8   9    0.11    0.09
  -7  -7   9   -0.09    0.06
   6   7  -9    0.42    0.11
   6   7  -9    0.43    0.11
  -6  -7   9    0.57    0.13
  -6  -7   9    0.66    0.13
   5   7  -9    1.90    0.19
   5   7  -9    1.52    0.18
   5   7  -9    1.48    0.16
  -5  -7   9    1.51    0.17
  -5  -7   9    1.68    0.18
  -5  -7   9    1.53    0.18
   4   7  -9    2.29    0.20
   4   7  -9    2.33    0.19
   4   7  -9    2.02    0.20
   4   7  -9    2.24    0.18
  -4  -7   9    2.01    0.17
  -4  -7   9    2.03    0.17
   3   7  -9    5.16    0.29
   3   7  -9    4.63    0.25
   3   7  -9    4.72    0.26
   3   7  -9    5.01    0.27
  -3  -7   9    4.56    0.25
   2   7  -9    3.84    0.29
   2   7  -9    3.18    0.23
   2   7  -9    3.07    0.21
   2   7  -9    3.44    0.22
   2   7  -9    3.53    0.21
  -2  -7   9    3.58    0.21
   1   7  -9    9.33    0.52
   1   7  -9   10.06    0.37
   1   7  -9    8.51    0.39
   1   7  -9    9.27    0.37
   1   7  -9    9.12    0.36
  -1  -7   9    9.25    0.35
   0   7  -9    0.02    0.07
   0   7  -9    0.02    0.06
   0   7  -9    0.11    0.10
   0   7  -9   -0.06    0.06
   0  -7   9    0.00    0.06
  -1   7  -9    4.79    0.25
  -1   7  -9    4.09    0.26
  -1   7  -9    4.93    0.25
  -1   7  -9    4.63    0.37
   1  -7   9    4.81    0.25
  -2   7  -9    2.50    0.15
  -2   7  -9    2.56    0.29
  -2   7  -9    2.54    0.19
  -2   7  -9    2.13    0.19
  -2   7  -9    2.73    0.19
   2  -7   9    2.59    0.18
  -3   7  -9    1.82    0.25
  -3   7  -9    1.38    0.18
  -3   7  -9    1.56    0.17
  -3   7  -9    1.33    0.12
  -3   7  -9    1.53    0.17
   3  -7   9    1.37    0.16
  -4   7  -9    5.31    0.46
  -4   7  -9    4.48    0.25
  -4   7  -9    4.82    0.29
  -4   7  -9    5.03    0.27
   4  -7   9    4.77    0.25
  -5   7  -9    0.03    0.08
  -5   7  -9    0.05    0.08
  -5   7  -9    0.02    0.07
   5  -7   9   -0.02    0.06
  -6   7  -9    4.60    0.26
  -6   7  -9    4.01    0.28
  -6   7  -9    4.74    0.26
  -6   7  -9    4.35    0.29
   6  -7   9    4.78    0.26
  -7   7  -9    0.87    0.14
  -7   7  -9    0.71    0.15
  -7   7  -9    0.74    0.14
   7  -7   9    0.77    0.14
  -8   7  -9    0.52    0.14
  -8  -6   9   -0.03    0.07
  -7  -6   9    0.29    0.11
  -7  -6   9    0.47    0.12
  -7  -6   9    0.46    0.12
   6   6  -9    0.54    0.11
   6   6  -9    0.55    0.11
  -6  -6   9    0.60    0.12
  -6  -6   9    0.50    0.12
   5   6  -9    4.18    0.25
   5   6  -9    3.70    0.23
   5   6  -9    4.22    0.23
  -5  -6   9    4.42    0.25
  -5  -6   9    4.45    0.23
  -5  -6   9    4.03    0.25
   4   6  -9    0.12    0.07
   4   6  -9    0.10    0.07
   4   6  -9   -0.03    0.06
   4   6  -9   -0.01    0.06
  -4  -6   9    0.10    0.07
  -4  -6   9    0.00    0.05
   3   6  -9    4.42    0.24
   3   6  -9    5.02    0.25
   3   6  -9    5.21    0.25
   3   6  -9    5.18    0.28
  -3  -6   9    5.18    0.25
   2   6  -9    2.25    0.22
   2   6  -9    2.47    0.18
   2   6  -9    2.66    0.18
   2   6  -9    2.19    0.18
   2   6  -9    2.72    0.18
  -2  -6   9    2.93    0.18
   1   6  -9    0.65    0.11
   1   6  -9    0.81    0.12
   1   6  -9    0.89    0.17
   1   6  -9    0.77    0.13
  -1  -6   9    0.75    0.11
   0   6  -9   13.67    0.66
   0   6  -9   14.27    0.50
   0   6  -9   14.26    0.45
   0   6  -9   14.34    0.45
   0  -6   9   14.44    0.44
  -1   6  -9    1.56    0.16
  -1   6  -9    1.74    0.16
  -1   6  -9    1.66    0.21
  -1   6  -9    1.41    0.15
   1  -6   9    1.67    0.16
  -2   6  -9   12.13    0.46
  -2   6  -9   11.68    0.40
  -2   6  -9   12.01    0.34
  -2   6  -9   12.06    0.65
  -2   6  -9   12.19    0.40
   2  -6   9   10.81    0.39
  -3   6  -9    2.67    0.14
  -3   6  -9    2.91    0.19
  -3   6  -9    2.86    0.31
  -3   6  -9    2.91    0.19
   3  -6   9    2.62    0.18
  -4   6  -9    0.13    0.07
  -4   6  -9    0.20    0.08
   4  -6   9    0.19    0.08
  -5   6  -9   11.08    0.40
  -5   6  -9   10.96    0.39
   5  -6   9   11.12    0.40
  -6   6  -9    1.13    0.17
  -6   6  -9    1.44    0.17
  -6   6  -9    0.97    0.14
   6  -6   9    1.05    0.15
  -7   6  -9    1.99    0.20
  -7   6  -9    1.85    0.22
  -7   6  -9    2.07    0.20
   7  -6   9    1.58    0.18
  -8   6  -9    0.02    0.08
  -8  -5   9    0.07    0.07
  -8  -5   9    0.00    0.07
  -8  -5   9   -0.01    0.08
  -7  -5   9    0.30    0.10
  -7  -5   9    0.25    0.10
  -7  -5   9    0.29    0.09
   6   5  -9    0.69    0.11
   6   5  -9    0.44    0.10
  -6  -5   9    0.55    0.11
  -6  -5   9    0.75    0.13
  -6  -5   9    0.50    0.10
   5   5  -9    2.84    0.18
   5   5  -9    3.10    0.20
   5   5  -9    2.66    0.17
   5   5  -9    3.13    0.20
  -5  -5   9    2.68    0.20
  -5  -5   9    3.14    0.21
  -5  -5   9    3.08    0.19
   4   5  -9   17.09    0.51
   4   5  -9   17.47    0.50
   4   5  -9   17.99    0.55
   4   5  -9   18.57    0.51
  -4  -5   9   17.82    0.50
  -4  -5   9   17.93    0.53
   3   5  -9    6.65    0.27
   3   5  -9    6.50    0.33
   3   5  -9    7.15    0.29
   3   5  -9    6.89    0.30
   3   5  -9    6.65    0.28
  -3  -5   9    6.86    0.27
   2   5  -9    0.30    0.08
   2   5  -9    0.39    0.11
   2   5  -9    0.39    0.09
   2   5  -9    0.43    0.10
  -2  -5   9    0.39    0.08
   1   5  -9    1.39    0.14
   1   5  -9    1.47    0.17
   1   5  -9    1.80    0.15
   1   5  -9    1.67    0.15
  -1  -5   9    1.71    0.14
  -1  -5   9    1.84    0.07
   0   5  -9    2.13    0.16
   0   5  -9    2.15    0.16
   0   5  -9    1.98    0.17
   0   5  -9    2.42    0.22
   0  -5   9    2.47    0.08
   0  -5   9    2.27    0.16
  -1   5  -9   14.63    0.68
  -1   5  -9   14.64    0.44
  -1   5  -9   14.75    0.44
   1  -5   9   13.81    0.43
   1  -5   9   14.90    0.32
  -2   5  -9    2.16    0.16
  -2   5  -9    2.40    0.16
  -2   5  -9    2.30    0.11
   2  -5   9    2.40    0.16
  -3   5  -9   16.89    0.51
  -3   5  -9   17.44    0.50
  -3   5  -9   17.81    0.55
   3  -5   9   17.19    0.50
  -4   5  -9   -0.02    0.06
  -4   5  -9    0.03    0.06
  -4   5  -9    0.10    0.07
   4  -5   9    0.11    0.07
  -5   5  -9    1.06    0.14
  -5   5  -9    0.85    0.13
  -5   5  -9    0.84    0.13
   5  -5   9    0.83    0.13
  -6   5  -9    2.82    0.20
  -6   5  -9    2.87    0.20
  -6   5  -9    3.22    0.23
  -6   5  -9    2.83    0.21
   6  -5   9    3.14    0.21
  -7   5  -9    3.89    0.23
  -7   5  -9    3.66    0.26
  -7   5  -9    3.61    0.24
  -7   5  -9    4.35    0.25
   7  -5   9    3.54    0.23
  -8   5  -9    0.79    0.14
  -8   5  -9    0.80    0.15
  -9  -4   9    0.08    0.08
  -8  -4   9    1.11    0.16
  -8  -4   9    1.35    0.18
  -8  -4   9    1.54    0.19
  -7  -4   9   -0.02    0.06
  -7  -4   9   -0.03    0.06
  -7  -4   9    0.16    0.08
   6   4  -9    9.82    0.34
  -6  -4   9    9.92    0.39
  -6  -4   9   10.04    0.39
  -6  -4   9   10.29    0.37
   5   4  -9    4.53    0.21
   5   4  -9    4.46    0.22
   5   4  -9    4.69    0.21
   5   4  -9    4.22    0.21
  -5  -4   9    4.62    0.21
  -5  -4   9    4.84    0.24
  -5  -4   9    4.28    0.22
  -5  -4   9    4.84    0.25
   4   4  -9    2.49    0.16
   4   4  -9    2.79    0.17
   4   4  -9    2.91    0.17
   4   4  -9    2.63    0.17
  -4  -4   9    2.75    0.17
  -4  -4   9    2.89    0.18
  -4  -4   9    2.96    0.17
   3   4  -9    1.17    0.12
   3   4  -9    1.02    0.10
   3   4  -9    1.10    0.13
   3   4  -9    1.11    0.12
  -3  -4   9    1.30    0.13
  -3  -4   9    1.25    0.08
   2   4  -9    0.01    0.05
   2   4  -9    0.05    0.05
   2   4  -9   -0.01    0.05
   2   4  -9    0.08    0.05
  -2  -4   9    0.10    0.03
  -2  -4   9    0.03    0.05
   1   4  -9   26.25    0.95
   1   4  -9   26.44    0.64
   1   4  -9   25.87    0.64
  -1  -4   9   26.51    0.55
  -1  -4   9   26.32    0.64
   0   4  -9   30.07    0.70
   0   4  -9   28.66    0.69
   0  -4   9   29.12    0.69
   0  -4   9   28.90    0.60
  -1   4  -9   11.57    0.28
  -1   4  -9   11.69    0.37
  -1   4  -9   11.52    0.39
  -1   4  -9   10.91    0.36
   1  -4   9   11.38    0.36
  -2   4  -9    0.14    0.06
  -2   4  -9    0.11    0.06
  -2   4  -9    0.10    0.06
   2  -4   9    0.12    0.06
  -3   4  -9   -0.02    0.06
  -3   4  -9    0.06    0.06
  -3   4  -9    0.09    0.06
   3  -4   9    0.02    0.06
  -4   4  -9    1.67    0.17
  -4   4  -9    1.56    0.16
  -4   4  -9    1.60    0.16
   4  -4   9    1.78    0.15
  -5   4  -9    5.70    0.27
  -5   4  -9    5.58    0.28
  -5   4  -9    4.98    0.25
   5  -4   9    5.65    0.26
  -6   4  -9    0.43    0.11
  -6   4  -9    0.37    0.10
  -6   4  -9    0.38    0.11
  -6   4  -9    0.37    0.10
   6  -4   9    0.38    0.09
  -7   4  -9    2.01    0.19
  -7   4  -9    2.05    0.22
  -7   4  -9    2.14    0.19
  -7   4  -9    2.27    0.18
   7  -4   9    1.79    0.18
  -8   4  -9    0.87    0.15
  -8   4  -9    0.41    0.12
   8  -4   9    0.69    0.13
  -9   4  -9    1.35    0.20
  -9  -3   9    0.19    0.10
  -9  -3   9    0.16    0.09
  -9  -3   9    0.14    0.09
  -8  -3   9    0.18    0.09
  -8  -3   9    0.12    0.08
  -8  -3   9    0.16    0.08
  -7  -3   9    3.87    0.22
  -7  -3   9    4.05    0.25
  -7  -3   9    4.25    0.25
   6   3  -9    0.21    0.07
  -6  -3   9    0.37    0.10
  -6  -3   9    0.28    0.08
  -6  -3   9    0.29    0.08
   5   3  -9    2.09    0.13
   5   3  -9    2.08    0.14
   5   3  -9    2.05    0.13
   5   3  -9    1.77    0.13
  -5  -3   9    1.73    0.14
  -5  -3   9    1.84    0.15
  -5  -3   9    2.26    0.13
  -5  -3   9    2.11    0.14
  -5  -3   9    1.93    0.15
   4   3  -9    7.23    0.26
   4   3  -9    7.13    0.26
   4   3  -9    7.65    0.28
  -4  -3   9    7.12    0.29
  -4  -3   9    7.16    0.27
  -4  -3   9    7.06    0.25
  -4  -3   9    6.71    0.25
  -4  -3   9    7.44    0.25
   3   3  -9    4.23    0.21
   3   3  -9    4.11    0.19
   3   3  -9    4.47    0.11
   3   3  -9    4.24    0.19
  -3  -3   9    4.15    0.17
  -3  -3   9    4.15    0.17
  -3  -3   9    4.05    0.18
  -3  -3   9    4.10    0.18
   2   3  -9    5.86    0.23
   2   3  -9    5.53    0.22
   2   3  -9    5.87    0.16
  -2  -3   9    5.50    0.19
  -2  -3   9    5.62    0.22
   1   3  -9    6.45    0.25
   1   3  -9    6.83    0.25
   1   3  -9    6.49    0.26
  -1  -3   9    6.66    0.21
  -1  -3   9    6.84    0.25
   0   3  -9   14.31    0.40
   0   3  -9   13.54    0.42
   0   3  -9   13.87    0.40
   0  -3   9   13.50    0.39
  -1   3  -9   45.78    1.06
  -1   3  -9   46.54    1.00
  -1   3  -9   46.74    1.00
   1  -3   9   46.33    0.99
  -2   3  -9    0.02    0.05
  -2   3  -9    0.13    0.06
  -2   3  -9    0.06    0.06
   2  -3   9    0.02    0.05
  -3   3  -9    4.55    0.23
  -3   3  -9    4.66    0.24
  -3   3  -9    4.71    0.22
   3  -3   9    4.68    0.22
  -4   3  -9   27.45    0.69
  -4   3  -9   28.11    0.74
  -4   3  -9   27.36    0.70
   4  -3   9   27.05    0.69
  -5   3  -9    4.77    0.25
  -5   3  -9    4.63    0.26
  -5   3  -9    5.03    0.25
  -5   3  -9    4.85    0.24
   5  -3   9    4.92    0.25
  -6   3  -9    6.18    0.28
  -6   3  -9    6.44    0.31
  -6   3  -9    6.41    0.30
  -6   3  -9    6.94    0.32
   6  -3   9    6.55    0.29
  -7   3  -9    0.17    0.09
  -7   3  -9    0.20    0.09
  -7   3  -9    0.34    0.10
  -7   3  -9    0.02    0.08
   7  -3   9    0.16    0.08
  -8   3  -9    0.57    0.12
  -8   3  -9    0.45    0.12
  -8   3  -9    0.62    0.13
  -8   3  -9    0.35    0.12
   8  -3   9    0.40    0.11
  -9  -2   9    0.11    0.08
  -9  -2   9    0.14    0.09
  -9  -2   9    0.08    0.08
  -8  -2   9    0.20    0.09
  -8  -2   9    0.15    0.08
  -8  -2   9    0.10    0.07
  -7  -2   9    0.61    0.11
  -7  -2   9    0.61    0.12
  -7  -2   9    0.62    0.11
  -6  -2   9   11.06    0.38
  -6  -2   9   11.17    0.41
  -6  -2   9   10.94    0.38
  -6  -2   9   11.04    0.37
   5   2  -9   45.84    0.91
   5   2  -9   44.75    1.02
   5   2  -9   44.40    0.94
   5   2  -9   46.34    0.93
  -5  -2   9   45.47    0.91
  -5  -2   9   44.17    0.99
  -5  -2   9   44.41    0.99
  -5  -2   9   43.85    0.93
   4   2  -9    0.25    0.06
   4   2  -9    0.22    0.06
   4   2  -9    0.29    0.07
  -4  -2   9    0.19    0.06
  -4  -2   9    0.20    0.07
  -4  -2   9    0.25    0.06
  -4  -2   9    0.17    0.06
  -4  -2   9    0.29    0.06
   3   2  -9   22.51    0.54
   3   2  -9   22.36    0.54
   3   2  -9   22.93    0.49
  -3  -2   9   23.60    0.54
  -3  -2   9   22.71    0.55
  -3  -2   9   23.59    0.54
  -3  -2   9   23.39    0.51
   2   2  -9   13.97    0.33
   2   2  -9   13.91    0.38
   2   2  -9   13.63    0.38
   2   2  -9   13.86    0.40
  -2  -2   9   13.98    0.38
  -2  -2   9   13.41    0.32
  -2  -2   9   13.16    0.36
  -2  -2   9   14.07    0.48
  -2  -2   9   13.74    0.34
   1   2  -9   14.55    0.42
   1   2  -9   14.20    0.40
   1   2  -9   14.38    0.39
   1   2  -9   14.21    0.36
  -1  -2   9   14.47    0.39
  -1  -2   9   13.95    0.37
  -1  -2   9   14.59    0.31
   0   2  -9   42.86    0.96
   0   2  -9   42.78    0.92
   0   2  -9   41.91    0.90
   0   2  -9   41.00    0.88
   0  -2   9   42.12    0.90
   0  -2   9   42.66    0.73
  -1   2  -9    0.15    0.06
   1  -2   9    0.07    0.05
  -2   2  -9    3.18    0.18
  -2   2  -9    3.21    0.18
  -2   2  -9    2.78    0.18
   2  -2   9    3.26    0.18
  -3   2  -9   15.01    0.48
  -3   2  -9   15.56    0.45
  -3   2  -9   15.01    0.45
   3  -2   9   15.51    0.45
  -4   2  -9   21.95    0.59
  -4   2  -9   21.89    0.63
  -4   2  -9   21.39    0.58
   4  -2   9   21.33    0.59
  -5   2  -9    7.98    0.32
  -5   2  -9    8.26    0.35
  -5   2  -9    7.84    0.32
  -5   2  -9    7.51    0.32
   5  -2   9    7.17    0.31
  -6   2  -9    0.14    0.08
  -6   2  -9    0.04    0.08
  -6   2  -9    0.13    0.07
  -6   2  -9    0.07    0.08
   6  -2   9    0.00    0.07
  -7   2  -9    1.11    0.16
  -7   2  -9    0.96    0.15
  -7   2  -9    0.95    0.15
  -7   2  -9    1.32    0.16
   7  -2   9    0.83    0.14
  -8   2  -9   -0.07    0.08
  -8   2  -9   -0.01    0.08
  -8   2  -9    0.09    0.08
   8  -2   9    0.03    0.08
  -9  -1   9    2.65    0.21
  -9  -1   9    2.61    0.22
  -9  -1   9    2.59    0.22
  -8  -1   9    2.92    0.21
  -8  -1   9    3.01    0.22
  -8  -1   9    3.21    0.21
  -7  -1   9    2.65    0.20
  -7  -1   9    2.24    0.17
  -7  -1   9    2.37    0.18
  -7  -1   9    2.55    0.19
  -6  -1   9    0.46    0.10
  -6  -1   9    0.64    0.10
  -6  -1   9    0.59    0.10
  -6  -1   9    0.52    0.10
   5   1  -9   30.38    0.72
   5   1  -9   31.24    0.65
   5   1  -9   30.81    0.65
   5   1  -9   30.78    0.65
  -5  -1   9   29.10    0.67
  -5  -1   9   29.71    0.75
  -5  -1   9   30.13    0.64
  -5  -1   9   31.30    0.72
  -5  -1   9   30.15    0.74
   4   1  -9    1.04    0.10
   4   1  -9    0.99    0.10
   4   1  -9    1.18    0.08
  -4  -1   9    1.09    0.09
  -4  -1   9    1.09    0.10
  -4  -1   9    0.85    0.11
  -4  -1   9    0.84    0.10
  -4  -1   9    0.89    0.12
   3   1  -9   12.25    0.34
   3   1  -9   11.95    0.35
   3   1  -9   12.56    0.34
   3   1  -9   13.01    0.33
  -3  -1   9   13.36    0.35
  -3  -1   9   13.01    0.33
  -3  -1   9   12.43    0.37
  -3  -1   9   13.04    0.33
   2   1  -9   41.78    0.88
   2   1  -9   41.95    0.90
   2   1  -9   42.83    0.89
   2   1  -9   41.72    0.94
  -2  -1   9   42.27    0.91
  -2  -1   9   42.59    0.80
  -2  -1   9   43.69    0.84
  -2  -1   9   43.29    0.89
  -2  -1   9   44.63    1.35
   1   1  -9    8.15    0.27
   1   1  -9    7.77    0.28
   1   1  -9    8.00    0.21
   1   1  -9    8.08    0.25
   1   1  -9    7.96    0.27
  -1  -1   9    7.88    0.19
  -1  -1   9    7.98    0.26
  -1  -1   9    7.93    0.19
  -1  -1   9    8.03    0.27
  -1   1  -9   45.21    0.98
  -1   1  -9   44.78    1.04
  -1   1  -9   47.13    0.99
  -1   1  -9   45.01    0.98
   1  -1   9   46.36    0.98
  -2   1  -9    2.59    0.16
  -2   1  -9    2.97    0.17
  -2   1  -9    2.84    0.18
  -2   1  -9    2.66    0.17
   2  -1   9    3.00    0.17
  -3   1  -9    8.79    0.33
  -3   1  -9    9.08    0.35
  -3   1  -9    9.76    0.34
  -3   1  -9    8.40    0.32
   3  -1   9    8.72    0.32
  -4   1  -9    0.53    0.10
  -4   1  -9    0.73    0.12
  -4   1  -9    0.72    0.13
   4  -1   9    0.55    0.10
  -5   1  -9    2.85    0.18
  -5   1  -9    3.03    0.20
  -5   1  -9    2.59    0.19
  -5   1  -9    2.91    0.21
   5  -1   9    2.80    0.19
  -6   1  -9    1.20    0.15
  -6   1  -9    0.92    0.14
  -6   1  -9    0.89    0.15
  -6   1  -9    0.99    0.13
   6  -1   9    0.82    0.13
  -7   1  -9   -0.01    0.08
  -7   1  -9    0.02    0.08
  -7   1  -9    0.07    0.08
   7  -1   9   -0.02    0.08
  -8   1  -9    3.40    0.23
  -8   1  -9    3.50    0.24
   8  -1   9    2.95    0.22
  -9   0   9    1.95    0.21
  -9   0   9    1.65    0.19
  -9   0   9    1.40    0.19
  -8   0   9    0.89    0.13
  -8   0   9    0.71    0.12
  -8   0   9    0.78    0.14
  -8   0   9    0.82    0.14
  -7   0   9    5.32    0.28
  -7   0   9    5.71    0.28
  -7   0   9    5.61    0.26
  -7   0   9    5.60    0.26
   6   0  -9   20.25    0.50
  -6   0   9   20.50    0.59
  -6   0   9   20.76    0.53
  -6   0   9   19.42    0.54
  -6   0   9   19.94    0.58
   5   0  -9    1.52    0.11
   5   0  -9    1.57    0.10
   5   0  -9    1.62    0.10
  -5   0   9    1.47    0.09
  -5   0   9    1.47    0.15
  -5   0   9    1.48    0.15
  -5   0   9    1.35    0.13
  -5   0   9    1.41    0.11
   4   0  -9   23.00    0.51
   4   0  -9   23.12    0.52
   4   0  -9   22.67    0.54
   4   0  -9   23.22    0.54
  -4   0   9   22.71    0.59
  -4   0   9   23.58    0.52
  -4   0   9   21.96    0.59
  -4   0   9   22.89    0.52
  -4   0   9   22.91    0.54
   3   0  -9    0.61    0.08
   3   0  -9    0.68    0.08
   3   0  -9    0.79    0.09
   3   0  -9    0.72    0.09
  -3   0   9    0.66    0.07
  -3   0   9    0.66    0.09
  -3   0   9    0.95    0.10
  -3   0   9    0.66    0.10
  -3   0   9    0.80    0.08
   2   0  -9   11.21    0.32
   2   0  -9   11.40    0.33
   2   0  -9   11.00    0.34
   2   0  -9   11.27    0.33
  -2   0   9   10.95    0.34
  -2   0   9   11.42    0.33
  -2   0   9   11.28    0.27
   1   0  -9   50.51    1.16
   1   0  -9   54.26    1.11
   1   0  -9   54.30    1.12
   1   0  -9   53.25    1.10
   1   0  -9   55.30    1.07
  -1   0   9   56.78    1.11
   0   0  -9    2.15    0.14
   0   0  -9    2.23    0.14
   0   0  -9    2.11    0.14
   0   0  -9    2.10    0.15
   0   0   9    2.65    0.15
  -1   0  -9    0.36    0.08
  -1   0  -9    0.64    0.10
  -1   0  -9    0.53    0.08
  -1   0  -9    0.29    0.08
   1   0   9    0.43    0.08
  -2   0  -9    6.11    0.26
  -2   0  -9    6.57    0.26
  -2   0  -9    6.44    0.27
  -2   0  -9    6.32    0.28
   2   0   9    6.03    0.26
  -3   0  -9   17.68    0.54
  -3   0  -9   17.99    0.51
  -3   0  -9   16.85    0.51
  -3   0  -9   17.10    0.50
   3   0   9   16.69    0.49
  -4   0  -9   14.48    0.42
  -4   0  -9   14.43    0.46
  -4   0  -9   14.06    0.46
  -4   0  -9   13.58    0.48
   4   0   9   13.89    0.45
  -5   0  -9    6.28    0.26
  -5   0  -9    6.64    0.30
  -5   0  -9    6.34    0.32
  -5   0  -9    6.86    0.31
   5   0   9    6.39    0.30
  -6   0  -9    2.52    0.20
  -6   0  -9    2.52    0.19
  -6   0  -9    3.02    0.23
   6   0   9    2.42    0.20
  -7   0  -9    0.02    0.08
  -7   0  -9    0.04    0.08
  -7   0  -9    0.17    0.09
   7   0   9    0.10    0.09
  -8   0  -9   -0.06    0.08
  -8   0  -9    0.02    0.08
   8   0   9    0.02    0.08
 -10   1   9    0.81    0.15
  -9   1   9    0.15    0.08
  -9   1   9    0.03    0.07
  -9   1   9    0.08    0.08
  -8   1   9    0.63    0.12
  -8   1   9    0.58    0.13
  -8   1   9    0.79    0.13
  -8   1   9    0.81    0.13
   7  -1  -9    2.00    0.15
  -7   1   9    2.22    0.18
  -7   1   9    2.37    0.19
  -7   1   9    2.46    0.18
  -7   1   9    2.16    0.16
   6  -1  -9    0.68    0.10
  -6   1   9    0.83    0.13
  -6   1   9    0.69    0.10
  -6   1   9    0.81    0.11
  -6   1   9    1.02    0.14
   5  -1  -9   12.02    0.37
   5  -1  -9   12.62    0.31
   5  -1  -9   12.78    0.31
  -5   1   9   11.89    0.36
  -5   1   9   12.83    0.42
  -5   1   9   12.63    0.31
  -5   1   9   12.25    0.41
  -5   1   9   12.71    0.37
   4  -1  -9   14.63    0.37
   4  -1  -9   15.04    0.37
   4  -1  -9   14.70    0.38
   4  -1  -9   15.16    0.41
  -4   1   9   15.29    0.37
  -4   1   9   15.11    0.39
  -4   1   9   14.14    0.44
  -4   1   9   15.04    0.44
   3  -1  -9    4.19    0.19
   3  -1  -9    4.04    0.17
   3  -1  -9    4.03    0.17
   3  -1  -9    3.85    0.17
  -3   1   9    4.22    0.21
  -3   1   9    4.12    0.15
  -3   1   9    4.13    0.19
  -3   1   9    3.93    0.17
   2  -1  -9   34.51    0.79
   2  -1  -9   34.39    0.75
   2  -1  -9   33.75    0.78
   2  -1  -9   34.91    0.76
  -2   1   9   34.42    0.80
  -2   1   9   35.05    0.77
  -2   1   9   35.18    0.75
   1  -1  -9    8.15    0.29
   1  -1  -9    7.77    0.27
   1  -1  -9    8.31    0.29
   1  -1  -9    7.83    0.28
  -1   1   9    8.50    0.28
   0  -1  -9   13.44    0.42
   0  -1  -9   13.37    0.40
   0  -1  -9   13.23    0.39
   0  -1  -9   13.12    0.39
   0   1   9   13.65    0.39
  -1  -1  -9    7.88    0.30
  -1  -1  -9    8.31    0.31
  -1  -1  -9    8.16    0.32
  -1  -1  -9    8.57    0.30
  -1  -1  -9    8.04    0.30
   1   1   9    8.27    0.30
  -2  -1  -9    6.37    0.27
  -2  -1  -9    6.19    0.26
  -2  -1  -9    5.79    0.28
  -2  -1  -9    6.10    0.27
   2   1   9    6.41    0.27
  -3  -1  -9    0.04    0.07
  -3  -1  -9    0.06    0.06
  -3  -1  -9    0.06    0.06
   3   1   9    0.05    0.06
  -4  -1  -9    0.37    0.10
  -4  -1  -9    0.16    0.08
  -4  -1  -9    0.41    0.10
  -4  -1  -9    0.32    0.09
   4   1   9    0.42    0.10
  -5  -1  -9   10.51    0.40
  -5  -1  -9   10.34    0.40
  -5  -1  -9    9.46    0.41
   5   1   9   10.75    0.40
  -6  -1  -9    2.19    0.21
  -6  -1  -9    2.41    0.20
  -6  -1  -9    1.73    0.21
   6   1   9    1.83    0.20
  -7  -1  -9    0.23    0.11
  -7  -1  -9    0.26    0.11
   7   1   9    0.52    0.13
  -8  -1  -9    0.15    0.11
  -8  -1  -9    0.13    0.10
   8   1   9    0.08    0.10
  -9   2   9    1.79    0.22
  -9   2   9    1.12    0.17
   8  -2  -9    0.18    0.07
  -8   2   9    0.09    0.08
  -8   2   9    0.23    0.09
   7  -2  -9    1.51    0.15
  -7   2   9    1.48    0.18
  -7   2   9    1.44    0.17
   6  -2  -9    6.72    0.28
  -6   2   9    7.60    0.31
  -6   2   9    7.30    0.33
   5  -2  -9    0.53    0.09
   5  -2  -9    0.75    0.07
   5  -2  -9    0.72    0.08
  -5   2   9    0.54    0.10
  -5   2   9    0.64    0.11
   4  -2  -9   27.89    0.69
   4  -2  -9   28.33    0.62
   4  -2  -9   27.95    0.65
   4  -2  -9   28.77    0.63
  -4   2   9   28.27    0.73
  -4   2   9   29.43    0.70
  -4   2   9   28.69    0.62
  -4   2   9   29.19    0.99
   3  -2  -9    0.45    0.08
   3  -2  -9    0.44    0.08
   3  -2  -9    0.60    0.10
   3  -2  -9    0.49    0.08
  -3   2   9    0.39    0.07
  -3   2   9    0.53    0.08
  -3   2   9    0.49    0.10
   2  -2  -9   12.29    0.36
   2  -2  -9   12.28    0.38
   2  -2  -9   12.39    0.36
   2  -2  -9   11.97    0.35
   2  -2  -9   12.47    0.39
  -2   2   9   13.02    0.36
  -2   2   9   12.15    0.36
  -2   2   9   12.98    0.41
   1  -2  -9   10.87    0.36
   1  -2  -9   11.73    0.35
   1  -2  -9   11.16    0.35
   1  -2  -9   11.24    0.37
  -1   2   9   11.61    0.35
  -1   2   9   11.49    0.32
   0  -2  -9    0.24    0.07
   0  -2  -9    0.24    0.07
   0  -2  -9    0.20    0.07
   0  -2  -9    0.27    0.08
   0   2   9    0.25    0.07
   0   2   9    0.10    0.05
  -1  -2  -9    1.54    0.15
  -1  -2  -9    1.60    0.16
  -1  -2  -9    1.57    0.16
  -1  -2  -9    1.53    0.15
   1   2   9    1.66    0.09
   1   2   9    1.64    0.15
   1   2   9    1.78    0.14
  -2  -2  -9    7.62    0.31
  -2  -2  -9    8.02    0.33
  -2  -2  -9    8.10    0.32
  -2  -2  -9    7.80    0.34
   2   2   9    8.22    0.31
   2   2   9    8.63    0.33
  -3  -2  -9    3.28    0.21
  -3  -2  -9    2.94    0.21
  -3  -2  -9    2.76    0.20
  -3  -2  -9    2.83    0.20
   3   2   9    3.10    0.20
   3   2   9    3.20    0.21
  -4  -2  -9    6.05    0.31
  -4  -2  -9    6.20    0.29
  -4  -2  -9    6.03    0.30
  -4  -2  -9    6.06    0.31
   4   2   9    5.98    0.30
  -5  -2  -9    0.48    0.12
  -5  -2  -9    0.47    0.12
  -5  -2  -9    0.33    0.11
  -5  -2  -9    0.41    0.12
   5   2   9    0.54    0.12
  -6  -2  -9    1.65    0.20
  -6  -2  -9    1.62    0.21
  -6  -2  -9    1.61    0.20
   6   2   9    1.57    0.19
  -7  -2  -9    0.60    0.14
  -7  -2  -9    0.37    0.13
   7   2   9    0.70    0.15
   9  -3  -9    0.06    0.06
  -9   3   9    0.19    0.10
  -9   3   9    0.16    0.09
   8  -3  -9    8.98    0.37
  -8   3   9    9.79    0.42
  -8   3   9    8.67    0.38
   7  -3  -9    4.78    0.25
  -7   3   9    5.29    0.29
  -7   3   9    5.48    0.28
   6  -3  -9    1.48    0.16
  -6   3   9    1.42    0.16
  -6   3   9    1.29    0.17
   5  -3  -9    6.00    0.27
  -5   3   9    5.72    0.28
  -5   3   9    5.81    0.26
   4  -3  -9    0.70    0.11
   4  -3  -9    1.00    0.10
   4  -3  -9    0.86    0.09
   4  -3  -9    0.93    0.10
  -4   3   9    0.88    0.13
  -4   3   9    0.98    0.17
  -4   3   9    1.03    0.10
  -4   3   9    0.90    0.11
   3  -3  -9    0.20    0.06
   3  -3  -9    0.12    0.06
   3  -3  -9    0.03    0.04
   3  -3  -9    0.12    0.07
  -3   3   9    0.02    0.05
  -3   3   9    0.02    0.05
  -3   3   9    0.12    0.07
   2  -3  -9    0.77    0.11
   2  -3  -9    0.55    0.09
   2  -3  -9    0.68    0.10
   2  -3  -9    0.56    0.09
  -2   3   9    0.56    0.10
  -2   3   9    0.63    0.08
  -2   3   9    0.71    0.10
  -2   3   9    0.66    0.09
   1  -3  -9    6.85    0.29
   1  -3  -9    7.02    0.27
   1  -3  -9    7.04    0.29
   1  -3  -9    7.16    0.27
  -1   3   9    6.89    0.26
  -1   3   9    7.25    0.23
  -1   3   9    6.84    0.27
   0  -3  -9    4.27    0.22
   0  -3  -9    4.14    0.23
   0  -3  -9    4.41    0.22
   0  -3  -9    4.28    0.23
   0   3   9    4.50    0.22
   0   3   9    4.51    0.16
   0   3   9    4.44    0.18
   0   3   9    4.40    0.21
  -1  -3  -9    2.80    0.19
  -1  -3  -9    2.24    0.17
  -1  -3  -9    2.48    0.18
  -1  -3  -9    2.95    0.20
   1   3   9    2.96    0.14
   1   3   9    2.74    0.18
   1   3   9    2.72    0.19
  -2  -3  -9   23.94    0.70
  -2  -3  -9   24.33    0.66
  -2  -3  -9   23.37    0.67
  -2  -3  -9   24.47    0.66
   2   3   9   23.79    0.63
   2   3   9   24.83    0.67
  -3  -3  -9    4.38    0.26
  -3  -3  -9    5.03    0.28
  -3  -3  -9    4.50    0.25
  -3  -3  -9    4.59    0.26
   3   3   9    4.18    0.25
   3   3   9    4.64    0.25
  -4  -3  -9    1.22    0.17
  -4  -3  -9    1.37    0.18
  -4  -3  -9    1.55    0.18
  -4  -3  -9    1.34    0.18
   4   3   9    1.44    0.17
   4   3   9    1.39    0.17
  -5  -3  -9    2.03    0.23
  -5  -3  -9    2.16    0.23
  -5  -3  -9    1.94    0.21
  -5  -3  -9    2.17    0.22
   5   3   9    1.95    0.20
   5   3   9    1.82    0.21
  -6  -3  -9    0.03    0.08
  -6  -3  -9    0.07    0.09
   6   3   9    0.07    0.09
   9  -4  -9    0.19    0.09
  -9   4   9    0.42    0.12
   8  -4  -9    0.33    0.10
  -8   4   9    0.29    0.11
  -8   4   9    0.32    0.10
   7  -4  -9    4.14    0.25
  -7   4   9    4.25    0.27
  -7   4   9    4.71    0.26
   6  -4  -9    4.03    0.23
  -6   4   9    3.67    0.24
  -6   4   9    3.78    0.22
   5  -4  -9   13.57    0.46
  -5   4   9   13.07    0.42
  -5   4   9   12.92    0.47
   4  -4  -9    3.53    0.17
   4  -4  -9    3.58    0.17
   4  -4  -9    3.30    0.17
   4  -4  -9    3.54    0.21
  -4   4   9    3.49    0.17
  -4   4   9    3.59    0.22
  -4   4   9    3.16    0.28
  -4   4   9    3.52    0.19
   3  -4  -9    7.93    0.33
   3  -4  -9    8.04    0.28
   3  -4  -9    7.75    0.28
   3  -4  -9    7.75    0.29
  -3   4   9    7.90    0.27
  -3   4   9    8.28    0.34
  -3   4   9    7.82    0.27
  -3   4   9    7.50    0.28
   2  -4  -9    8.31    0.34
   2  -4  -9    8.46    0.31
   2  -4  -9    8.42    0.31
  -2   4   9    8.49    0.35
  -2   4   9    8.46    0.30
  -2   4   9    8.38    0.31
  -2   4   9    9.18    0.27
   1  -4  -9    5.34    0.25
   1  -4  -9    5.00    0.26
   1  -4  -9    4.93    0.24
  -1   4   9    5.10    0.22
  -1   4   9    4.94    0.23
  -1   4   9    4.95    0.24
   0  -4  -9    8.32    0.33
   0  -4  -9    8.39    0.33
   0  -4  -9    8.35    0.35
   0   4   9    8.15    0.31
   0   4   9    8.10    0.28
   0   4   9    8.00    0.32
  -1  -4  -9   10.02    0.38
  -1  -4  -9   11.11    0.40
  -1  -4  -9   10.66    0.41
   1   4   9   10.17    0.37
   1   4   9   10.28    0.33
   1   4   9   10.06    0.38
  -2  -4  -9    0.38    0.11
  -2  -4  -9    0.48    0.11
  -2  -4  -9    0.32    0.10
   2   4   9    0.42    0.10
   2   4   9    0.27    0.10
  -3  -4  -9    3.95    0.25
  -3  -4  -9    4.27    0.27
  -3  -4  -9    4.09    0.25
   3   4   9    4.32    0.26
   3   4   9    4.79    0.26
  -4  -4  -9    0.52    0.13
  -4  -4  -9    0.56    0.13
  -4  -4  -9    0.36    0.12
  -4  -4  -9    0.33    0.11
   4   4   9    0.38    0.12
   4   4   9    0.41    0.11
  -5  -4  -9    0.07    0.09
  -5  -4  -9    0.01    0.08
  -5  -4  -9    0.07    0.08
   5   4   9   -0.02    0.08
   5   4   9   -0.05    0.07
   9  -5  -9    0.16    0.10
   8  -5  -9    0.50    0.12
  -8   5   9    0.44    0.12
   7  -5  -9   -0.08    0.06
  -7   5   9   -0.02    0.07
  -7   5   9    0.03    0.07
   6  -5  -9    0.82    0.14
  -6   5   9    0.81    0.12
  -6   5   9    0.79    0.14
   5  -5  -9    2.58    0.20
  -5   5   9    3.00    0.22
  -5   5   9    2.60    0.17
   4  -5  -9   10.41    0.34
   4  -5  -9   11.38    0.36
   4  -5  -9   10.32    0.33
   4  -5  -9   10.19    0.40
  -4   5   9   10.65    0.34
  -4   5   9   10.39    0.59
  -4   5   9   10.31    0.34
  -4   5   9   11.10    0.33
  -4   5   9   10.93    0.42
   3  -5  -9    3.46    0.23
   3  -5  -9    3.55    0.19
   3  -5  -9    3.61    0.19
  -3   5   9    3.43    0.23
  -3   5   9    3.62    0.19
  -3   5   9    3.34    0.19
  -3   5   9    3.59    0.17
   2  -5  -9    0.76    0.12
   2  -5  -9    0.67    0.12
   2  -5  -9    0.78    0.12
  -2   5   9    0.77    0.13
  -2   5   9    0.69    0.11
  -2   5   9    0.86    0.11
   1  -5  -9    4.76    0.25
   1  -5  -9    5.00    0.25
   1  -5  -9    5.18    0.28
  -1   5   9    5.01    0.24
  -1   5   9    5.07    0.24
  -1   5   9    5.02    0.25
   0  -5  -9    3.48    0.24
   0  -5  -9    4.09    0.24
   0  -5  -9    4.17    0.23
   0   5   9    4.30    0.23
   0   5   9    3.66    0.23
   0   5   9    4.03    0.20
  -1  -5  -9    1.63    0.18
  -1  -5  -9    1.59    0.18
  -1  -5  -9    1.53    0.18
   1   5   9    1.40    0.17
   1   5   9    1.67    0.17
  -2  -5  -9    1.52    0.19
  -2  -5  -9    2.06    0.22
  -2  -5  -9    1.35    0.17
   2   5   9    1.57    0.17
   2   5   9    1.84    0.20
  -3  -5  -9   -0.09    0.06
  -3  -5  -9   -0.01    0.07
  -3  -5  -9    0.00    0.08
   3   5   9   -0.06    0.06
   3   5   9   -0.03    0.08
  -4  -5  -9    0.09    0.09
  -4  -5  -9    0.04    0.09
  -4  -5  -9   -0.05    0.08
   4   5   9    0.01    0.08
   4   5   9    0.04    0.08
   8  -6  -9    0.90    0.17
  -8   6   9    1.33    0.20
   7  -6  -9   -0.04    0.07
  -7   6   9    0.00    0.07
   6  -6  -9    0.09    0.08
  -6   6   9    0.11    0.08
   5  -6  -9    1.57    0.19
  -5   6   9    1.72    0.20
   4  -6  -9    5.08    0.23
   4  -6  -9    5.15    0.29
   4  -6  -9    4.79    0.23
  -4   6   9    5.16    0.23
  -4   6   9    5.02    0.22
  -4   6   9    4.67    0.28
  -4   6   9    4.65    0.41
   3  -6  -9    0.53    0.11
   3  -6  -9    0.51    0.12
   3  -6  -9    0.41    0.10
  -3   6   9    0.52    0.10
  -3   6   9    0.44    0.11
  -3   6   9    0.53    0.10
   2  -6  -9   -0.03    0.07
   2  -6  -9    0.15    0.08
   2  -6  -9    0.01    0.06
  -2   6   9    0.04    0.06
  -2   6   9    0.08    0.06
  -2   6   9    0.06    0.07
  -2   6   9    0.12    0.07
   1  -6  -9    0.23    0.09
   1  -6  -9    0.35    0.10
   1  -6  -9    0.23    0.09
  -1   6   9    0.30    0.09
  -1   6   9    0.27    0.10
  -1   6   9    0.39    0.10
   0  -6  -9    7.96    0.35
   0  -6  -9    7.88    0.37
   0  -6  -9    7.79    0.34
   0   6   9    7.31    0.31
   0   6   9    6.89    0.33
   0   6   9    7.54    0.33
  -1  -6  -9    4.52    0.27
  -1  -6  -9    4.29    0.27
  -1  -6  -9    4.25    0.28
   1   6   9    4.13    0.25
   1   6   9    4.37    0.27
  -2  -6  -9    2.19    0.23
  -2  -6  -9    2.33    0.24
  -2  -6  -9    2.47    0.24
   2   6   9    2.59    0.21
   2   6   9    2.36    0.23
  -3  -6  -9    2.32    0.25
  -3  -6  -9    2.81    0.24
  -3  -6  -9    2.55    0.25
   3   6   9    2.75    0.26
   3   6   9    2.41    0.24
   7  -7  -9    1.56    0.21
  -7   7   9    1.29    0.20
   6  -7  -9    1.29    0.19
  -6   7   9    1.34    0.19
   5  -7  -9    0.62    0.14
  -5   7   9    0.68    0.14
   4  -7  -9   -0.04    0.06
   4  -7  -9    0.09    0.09
   4  -7  -9   -0.01    0.07
  -4   7   9    0.18    0.09
  -4   7   9    0.06    0.14
   3  -7  -9    6.50    0.35
   3  -7  -9    6.93    0.31
   3  -7  -9    6.80    0.30
  -3   7   9    6.62    0.35
  -3   7   9    7.24    0.31
  -3   7   9    6.31    0.53
  -3   7   9    7.29    0.30
   2  -7  -9    0.77    0.15
   2  -7  -9    0.89    0.14
   2  -7  -9    1.12    0.16
  -2   7   9    0.85    0.15
  -2   7   9    0.94    0.15
  -2   7   9    0.95    0.14
  -2   7   9    1.03    0.14
   1  -7  -9    2.72    0.21
   1  -7  -9    2.55    0.22
   1  -7  -9    2.07    0.21
  -1   7   9    2.39    0.20
  -1   7   9    2.93    0.21
  -1   7   9    2.51    0.19
  -1   7   9    2.69    0.23
   0  -7  -9    0.45    0.12
   0  -7  -9    0.35    0.12
   0  -7  -9    0.71    0.15
   0   7   9    0.33    0.11
   0   7   9    0.48    0.13
   0   7   9    0.53    0.12
  -1  -7  -9    0.01    0.08
  -1  -7  -9   -0.04    0.08
  -1  -7  -9    0.07    0.09
   1   7   9    0.16    0.10
   1   7   9    0.13    0.09
  -2  -7  -9    0.71    0.16
  -2  -7  -9    0.91    0.17
  -2  -7  -9    1.12    0.18
   2   7   9    0.85    0.16
  -6   8   9    1.24    0.19
   5  -8  -9    5.45    0.34
  -5   8   9    5.43    0.33
   4  -8  -9    0.99    0.17
  -4   8   9    1.04    0.30
  -4   8   9    1.03    0.18
   3  -8  -9    0.88    0.15
   3  -8  -9    0.92    0.15
   3  -8  -9    1.01    0.17
  -3   8   9    0.88    0.28
  -3   8   9    1.14    0.15
  -3   8   9    0.85    0.14
  -3   8   9    0.86    0.16
   2  -8  -9    1.62    0.19
   2  -8  -9    1.99    0.23
   2  -8  -9    1.42    0.18
  -2   8   9    1.95    0.22
  -2   8   9    1.88    0.20
  -2   8   9    1.66    0.19
  -2   8   9    1.79    0.22
   1  -8  -9    0.03    0.09
   1  -8  -9    0.03    0.09
   1  -8  -9    0.01    0.08
  -1   8   9    0.01    0.08
  -1   8   9    0.01    0.08
  -1   8   9   -0.06    0.06
  -1   8   9   -0.01    0.08
  -1   8   9   -0.10    0.07
   0  -8  -9    3.22    0.25
   0  -8  -9    3.10    0.25
   0  -8  -9    3.25    0.27
   0   8   9    3.14    0.25
   0   8   9    3.05    0.25
   3  -9  -9    0.00    0.09
   3  -9  -9    0.02    0.09
  -3   9   9    0.10    0.20
  -3   9   9    0.09    0.08
   2  -9  -9    0.86    0.16
   2  -9  -9    0.98    0.17
  -2   9   9    0.63    0.14
  -2   9   9    0.75    0.16
  -2   9   9    0.74    0.15
   0  11 -10    0.46    0.14
   0  11 -10    0.33    0.13
   0  11 -10    0.22    0.11
   0  11 -10    0.98    0.21
   0 -11  10    0.47    0.13
  -1  11 -10    3.49    0.28
  -1  11 -10    3.36    0.26
  -1  11 -10    4.50    0.30
   1 -11  10    3.92    0.28
  -2  11 -10    0.36    0.12
  -2  11 -10    0.16    0.10
  -2  11 -10    0.10    0.10
  -2  11 -10    0.67    0.19
   2 -11  10    0.42    0.13
  -3  11 -10    0.69    0.16
  -3  11 -10    1.68    0.32
  -3  11 -10    0.87    0.17
  -3  11 -10    0.76    0.16
   3 -11  10    0.84    0.16
  -4  11 -10    0.40    0.13
  -4  11 -10    0.31    0.12
  -4  11 -10    0.20    0.12
  -4  11 -10    0.61    0.20
   4 -11  10    0.22    0.11
  -5  11 -10    0.22    0.12
  -4 -10  10    0.04    0.10
   3  10 -10    0.82    0.16
   3  10 -10    0.86    0.17
  -3 -10  10    0.75    0.15
  -3 -10  10    0.69    0.15
   2  10 -10    0.08    0.09
   2  10 -10    0.01    0.09
   2  10 -10   -0.01    0.09
  -2 -10  10    0.06    0.09
   1  10 -10    2.01    0.23
   1  10 -10    2.03    0.23
   1  10 -10    2.41    0.24
  -1 -10  10    2.11    0.23
   0  10 -10    0.49    0.13
   0  10 -10    1.38    0.25
   0  10 -10    0.62    0.14
   0  10 -10    0.70    0.15
   0 -10  10    0.70    0.14
  -1  10 -10   -0.05    0.08
  -1  10 -10    0.27    0.12
  -1  10 -10   -0.03    0.08
  -1  10 -10    0.03    0.09
  -1  10 -10   -0.01    0.08
   1 -10  10    0.02    0.08
  -2  10 -10    2.61    0.22
  -2  10 -10    2.63    0.22
  -2  10 -10    3.19    0.35
  -2  10 -10    2.36    0.24
  -2  10 -10    2.61    0.25
   2 -10  10    2.38    0.24
  -3  10 -10    0.07    0.09
  -3  10 -10    0.04    0.09
  -3  10 -10    0.45    0.17
  -3  10 -10   -0.01    0.08
   3 -10  10    0.09    0.09
  -4  10 -10    2.94    0.24
  -4  10 -10    2.99    0.25
  -4  10 -10    3.21    0.25
  -4  10 -10    3.71    0.41
   4 -10  10    2.50    0.25
  -5  10 -10    0.49    0.13
  -5  10 -10    0.89    0.24
  -5  10 -10    0.51    0.15
  -5  10 -10    0.80    0.16
  -5  10 -10    0.77    0.15
   5 -10  10    0.58    0.14
  -6  10 -10    0.65    0.15
  -6  10 -10    0.86    0.16
  -6  10 -10    0.59    0.14
   6 -10  10    0.93    0.16
   5   9 -10    0.64    0.13
   5   9 -10    0.73    0.15
   5   9 -10    0.60    0.14
  -5  -9  10    0.69    0.14
  -5  -9  10    0.93    0.16
   4   9 -10    1.36    0.18
   4   9 -10    1.08    0.18
   4   9 -10    1.19    0.18
  -4  -9  10    1.30    0.18
  -4  -9  10    1.41    0.17
  -4  -9  10    1.57    0.20
   3   9 -10    0.05    0.08
   3   9 -10   -0.05    0.09
   3   9 -10    0.00    0.09
  -3  -9  10   -0.02    0.08
   2   9 -10    1.55    0.20
   2   9 -10    1.30    0.18
   2   9 -10    1.43    0.18
  -2  -9  10    1.44    0.18
   1   9 -10    0.13    0.09
   1   9 -10    0.55    0.14
   1   9 -10    0.06    0.09
   1   9 -10    0.03    0.08
  -1  -9  10    0.14    0.08
   0   9 -10    3.07    0.26
   0   9 -10    2.81    0.22
   0   9 -10    2.63    0.22
   0   9 -10    3.45    0.33
   0   9 -10    2.94    0.22
   0  -9  10    3.10    0.23
  -1   9 -10    0.49    0.13
  -1   9 -10    0.51    0.11
  -1   9 -10    0.94    0.21
  -1   9 -10    0.29    0.11
  -1   9 -10    0.35    0.11
  -1   9 -10    0.49    0.12
   1  -9  10    0.62    0.13
  -2   9 -10    0.46    0.16
  -2   9 -10    0.21    0.10
  -2   9 -10    0.14    0.09
  -2   9 -10    0.27    0.10
   2  -9  10    0.12    0.09
  -3   9 -10    1.97    0.21
  -3   9 -10    2.43    0.23
  -3   9 -10    2.69    0.32
  -3   9 -10    2.79    0.22
   3  -9  10    2.54    0.21
  -4   9 -10    1.62    0.20
  -4   9 -10    2.16    0.22
  -4   9 -10    2.32    0.32
   4  -9  10    2.12    0.22
  -5   9 -10    2.86    0.23
  -5   9 -10    2.96    0.38
  -5   9 -10    2.53    0.24
   5  -9  10    2.81    0.23
  -6   9 -10    0.70    0.14
  -6   9 -10    0.66    0.14
  -6   9 -10    0.51    0.14
   6  -9  10    0.70    0.15
  -7   9 -10    0.53    0.13
   7  -9  10    0.40    0.12
   6   8 -10    2.05    0.22
  -6  -8  10    2.04    0.21
   5   8 -10    1.03    0.15
   5   8 -10    0.89    0.15
   5   8 -10    1.16    0.17
  -5  -8  10    1.03    0.16
  -5  -8  10    0.87    0.14
  -5  -8  10    1.17    0.16
   4   8 -10    0.12    0.09
   4   8 -10    0.12    0.08
   4   8 -10    0.05    0.09
  -4  -8  10    0.18    0.08
  -4  -8  10    0.09    0.08
   3   8 -10    0.07    0.09
   3   8 -10    0.09    0.09
   3   8 -10    0.15    0.09
   3   8 -10    0.11    0.09
  -3  -8  10    0.10    0.09
   2   8 -10    1.39    0.19
   2   8 -10    1.42    0.18
   2   8 -10    1.41    0.18
   2   8 -10    1.44    0.18
  -2  -8  10    1.65    0.18
   1   8 -10   15.80    0.75
   1   8 -10   14.18    0.50
   1   8 -10   14.21    0.56
   1   8 -10   14.73    0.50
   1   8 -10   14.07    0.51
  -1  -8  10   14.28    0.49
   0   8 -10    5.03    0.28
   0   8 -10    5.72    0.41
   0   8 -10    4.61    0.27
   0   8 -10    4.95    0.31
   0   8 -10    4.58    0.27
   0  -8  10    4.59    0.27
  -1   8 -10    2.33    0.19
  -1   8 -10    1.97    0.20
  -1   8 -10    2.68    0.29
  -1   8 -10    2.07    0.23
   1  -8  10    2.27    0.19
  -2   8 -10    2.16    0.21
  -2   8 -10    1.96    0.20
  -2   8 -10    2.04    0.23
  -2   8 -10    2.57    0.30
   2  -8  10    2.08    0.21
  -3   8 -10    0.18    0.12
  -3   8 -10    0.03    0.07
  -3   8 -10    0.10    0.09
  -3   8 -10    0.07    0.08
   3  -8  10    0.05    0.07
  -4   8 -10    6.45    0.37
  -4   8 -10    7.04    0.33
  -4   8 -10    6.55    0.32
  -4   8 -10    6.58    0.54
   4  -8  10    6.25    0.31
  -5   8 -10    1.67    0.20
  -5   8 -10    1.83    0.20
   5  -8  10    1.51    0.18
  -6   8 -10    0.71    0.14
  -6   8 -10    0.52    0.14
  -6   8 -10    0.75    0.14
   6  -8  10    0.60    0.13
  -7   8 -10    0.03    0.08
  -7   8 -10    0.09    0.09
  -7   8 -10   -0.12    0.08
   7  -8  10    0.08    0.09
  -7  -7  10    0.74    0.15
   6   7 -10    0.40    0.12
  -6  -7  10    0.26    0.09
  -6  -7  10    0.31    0.11
   5   7 -10    0.90    0.14
   5   7 -10    0.82    0.14
  -5  -7  10    0.83    0.14
  -5  -7  10    0.73    0.12
  -5  -7  10    0.56    0.12
  -5  -7  10    0.73    0.14
   4   7 -10    0.52    0.11
   4   7 -10    0.67    0.14
   4   7 -10    0.66    0.13
   4   7 -10    0.62    0.13
  -4  -7  10    0.46    0.11
  -4  -7  10    0.60    0.11
   3   7 -10    5.56    0.31
   3   7 -10    5.32    0.29
   3   7 -10    5.59    0.28
   3   7 -10    5.80    0.29
  -3  -7  10    5.97    0.28
   2   7 -10    3.32    0.22
   2   7 -10    3.65    0.23
   2   7 -10    3.92    0.26
   2   7 -10    3.41    0.22
  -2  -7  10    3.72    0.22
   1   7 -10    0.14    0.08
   1   7 -10    0.15    0.08
   1   7 -10    0.36    0.13
   1   7 -10    0.15    0.09
   1   7 -10    0.11    0.09
  -1  -7  10    0.19    0.08
   0   7 -10    2.73    0.20
   0   7 -10    2.96    0.23
   0   7 -10    2.91    0.20
   0   7 -10    4.00    0.32
   0  -7  10    3.23    0.21
  -1   7 -10    1.12    0.17
  -1   7 -10    1.17    0.23
  -1   7 -10    0.93    0.14
  -1   7 -10    0.98    0.14
   1  -7  10    0.96    0.14
  -2   7 -10   10.17    0.44
  -2   7 -10    9.16    0.37
  -2   7 -10    9.91    0.38
  -2   7 -10   10.02    0.61
   2  -7  10    9.75    0.38
  -3   7 -10    0.87    0.14
  -3   7 -10    0.66    0.12
  -3   7 -10    0.90    0.23
  -3   7 -10    0.97    0.16
   3  -7  10    0.88    0.14
  -4   7 -10    0.11    0.08
  -4   7 -10    0.12    0.08
  -4   7 -10    0.17    0.10
   4  -7  10    0.01    0.07
  -5   7 -10    2.42    0.20
  -5   7 -10    2.12    0.21
  -5   7 -10    2.09    0.23
   5  -7  10    2.25    0.19
  -6   7 -10    2.11    0.21
  -6   7 -10    1.60    0.19
  -6   7 -10    1.98    0.23
   6  -7  10    2.12    0.21
  -7   7 -10    0.79    0.15
  -7   7 -10    0.45    0.13
  -7   7 -10    0.60    0.13
   7  -7  10    0.82    0.15
  -8  -6  10    0.27    0.11
  -7  -6  10    1.60    0.19
  -7  -6  10    1.97    0.21
  -7  -6  10    1.76    0.21
   6   6 -10    2.16    0.18
  -6  -6  10    1.98    0.21
  -6  -6  10    2.12    0.22
  -6  -6  10    1.88    0.20
   5   6 -10    0.21    0.09
   5   6 -10    0.31    0.09
   5   6 -10    0.38    0.10
   5   6 -10    0.16    0.09
  -5  -6  10    0.22    0.08
  -5  -6  10    0.29    0.09
  -5  -6  10    0.21    0.09
   4   6 -10    2.50    0.18
   4   6 -10    2.71    0.18
   4   6 -10    2.49    0.20
   4   6 -10    2.36    0.18
  -4  -6  10    2.15    0.18
  -4  -6  10    2.30    0.18
   3   6 -10    0.65    0.11
   3   6 -10    0.62    0.12
   3   6 -10    0.61    0.12
   3   6 -10    0.67    0.13
  -3  -6  10    0.54    0.11
   2   6 -10    9.08    0.40
   2   6 -10   10.26    0.37
   2   6 -10    9.93    0.37
   2   6 -10    9.71    0.48
  -2  -6  10   10.31    0.37
   1   6 -10   20.55    0.83
   1   6 -10   18.85    0.63
   1   6 -10   19.00    0.55
   1   6 -10   20.24    0.57
  -1  -6  10   20.21    0.56
   0   6 -10    9.72    0.36
   0   6 -10    9.94    0.41
   0   6 -10    9.64    0.36
   0   6 -10    9.69    0.53
   0  -6  10   10.12    0.36
  -1   6 -10    7.02    0.34
  -1   6 -10    7.40    0.46
  -1   6 -10    7.63    0.32
  -1   6 -10    7.46    0.31
   1  -6  10    7.15    0.30
  -2   6 -10    0.03    0.06
  -2   6 -10    0.00    0.09
  -2   6 -10    0.07    0.07
   2  -6  10    0.03    0.06
  -3   6 -10    5.15    0.26
  -3   6 -10    4.29    0.24
   3  -6  10    4.42    0.24
  -4   6 -10    8.34    0.34
  -4   6 -10    8.13    0.34
   4  -6  10    7.59    0.33
  -5   6 -10    0.07    0.07
  -5   6 -10    0.10    0.08
   5  -6  10   -0.01    0.06
  -6   6 -10    0.82    0.14
  -6   6 -10    1.01    0.15
  -6   6 -10    0.69    0.15
   6  -6  10    0.75    0.14
  -7   6 -10    0.72    0.15
  -7   6 -10    1.00    0.15
  -7   6 -10    0.77    0.14
   7  -6  10    0.84    0.15
  -8   6 -10    1.01    0.19
  -8  -5  10    2.31    0.23
  -8  -5  10    3.06    0.25
  -8  -5  10    2.76    0.23
  -7  -5  10    0.37    0.10
  -7  -5  10    0.56    0.13
  -7  -5  10    0.50    0.11
   6   5 -10    0.00    0.06
  -6  -5  10    0.14    0.07
  -6  -5  10    0.14    0.09
  -6  -5  10    0.13    0.08
   5   5 -10    0.86    0.13
   5   5 -10    0.87    0.13
   5   5 -10    1.03    0.14
   5   5 -10    0.92    0.12
  -5  -5  10    0.94    0.14
  -5  -5  10    1.17    0.14
  -5  -5  10    0.79    0.12
  -5  -5  10    1.03    0.14
   4   5 -10    3.12    0.19
   4   5 -10    2.54    0.18
   4   5 -10    2.96    0.20
   4   5 -10    2.41    0.18
   4   5 -10    2.67    0.18
  -4  -5  10    2.70    0.18
  -4  -5  10    2.52    0.19
   3   5 -10    0.58    0.10
   3   5 -10    0.58    0.10
   3   5 -10    0.68    0.12
  -3  -5  10    0.70    0.11
   2   5 -10   19.73    0.75
   2   5 -10   19.39    0.54
   2   5 -10   19.77    0.61
   2   5 -10   19.60    0.54
  -2  -5  10   19.48    0.54
   1   5 -10    0.48    0.10
   1   5 -10    0.47    0.12
   1   5 -10    0.45    0.11
   1   5 -10    0.53    0.10
  -1  -5  10    0.43    0.09
   0   5 -10   12.81    0.41
   0   5 -10   12.80    0.60
   0   5 -10   12.33    0.41
   0  -5  10   12.87    0.29
   0  -5  10   12.70    0.41
  -1   5 -10    0.36    0.06
  -1   5 -10    0.40    0.09
  -1   5 -10    0.38    0.09
   1  -5  10    0.39    0.09
  -2   5 -10   16.75    0.49
  -2   5 -10   15.77    0.49
  -2   5 -10   15.21    0.51
   2  -5  10   15.03    0.47
  -3   5 -10   20.60    0.59
  -3   5 -10   21.38    0.63
  -3   5 -10   21.23    0.59
   3  -5  10   20.80    0.59
  -4   5 -10    0.65    0.12
  -4   5 -10    0.26    0.09
  -4   5 -10    0.47    0.11
   4  -5  10    0.44    0.10
  -5   5 -10    2.70    0.21
  -5   5 -10    2.41    0.19
  -5   5 -10    2.31    0.18
   5  -5  10    2.35    0.19
  -6   5 -10    0.28    0.11
  -6   5 -10    0.29    0.10
  -6   5 -10    0.32    0.11
  -6   5 -10    0.22    0.09
   6  -5  10    0.25    0.10
  -7   5 -10    2.39    0.25
  -7   5 -10    2.51    0.22
  -7   5 -10    2.51    0.20
  -7   5 -10    2.40    0.20
   7  -5  10    2.59    0.20
  -8   5 -10    0.24    0.12
   8  -5  10    0.20    0.10
  -8  -4  10    0.50    0.13
  -8  -4  10    0.62    0.13
  -8  -4  10    0.77    0.14
  -7  -4  10    3.71    0.25
  -7  -4  10    3.16    0.23
  -7  -4  10    3.21    0.22
   6   4 -10   11.90    0.38
  -6  -4  10   11.50    0.40
  -6  -4  10   11.53    0.44
  -6  -4  10   11.52    0.42
   5   4 -10    0.45    0.09
   5   4 -10    0.74    0.11
   5   4 -10    0.58    0.10
   5   4 -10    0.77    0.11
  -5  -4  10    0.58    0.10
  -5  -4  10    0.53    0.11
  -5  -4  10    0.50    0.10
  -5  -4  10    0.48    0.09
   4   4 -10    5.85    0.25
   4   4 -10    5.35    0.26
   4   4 -10    5.51    0.25
   4   4 -10    5.94    0.25
  -4  -4  10    6.16    0.28
  -4  -4  10    6.27    0.26
  -4  -4  10    5.76    0.22
  -4  -4  10    5.60    0.23
  -4  -4  10    5.97    0.25
   3   4 -10    1.12    0.14
   3   4 -10    0.94    0.12
   3   4 -10    1.04    0.12
  -3  -4  10    1.08    0.12
  -3  -4  10    1.14    0.09
   2   4 -10    3.78    0.20
   2   4 -10    4.07    0.21
   2   4 -10    3.41    0.21
  -2  -4  10    3.95    0.20
  -2  -4  10    3.96    0.15
   1   4 -10   26.15    0.66
   1   4 -10   26.35    0.66
  -1  -4  10   27.09    0.57
  -1  -4  10   25.87    0.65
   0   4 -10    2.84    0.18
   0   4 -10    2.72    0.17
   0   4 -10    2.36    0.16
   0  -4  10    2.83    0.17
   0  -4  10    2.64    0.12
  -1   4 -10    4.54    0.22
  -1   4 -10    4.17    0.22
  -1   4 -10    4.55    0.23
   1  -4  10    4.35    0.22
  -2   4 -10   14.74    0.48
  -2   4 -10   13.70    0.44
  -2   4 -10   14.59    0.45
   2  -4  10   14.46    0.44
  -3   4 -10   17.15    0.51
  -3   4 -10   17.37    0.54
  -3   4 -10   17.28    0.51
   3  -4  10   16.59    0.50
  -4   4 -10    6.62    0.32
  -4   4 -10    7.01    0.30
  -4   4 -10    7.19    0.31
   4  -4  10    6.84    0.30
  -5   4 -10    0.87    0.13
  -5   4 -10    0.84    0.14
  -5   4 -10    0.69    0.12
   5  -4  10    0.77    0.13
  -6   4 -10    4.30    0.25
  -6   4 -10    4.40    0.27
  -6   4 -10    4.61    0.26
  -6   4 -10    5.42    0.30
   6  -4  10    4.24    0.25
  -7   4 -10    0.42    0.11
  -7   4 -10    0.52    0.13
  -7   4 -10    0.59    0.13
  -7   4 -10    0.50    0.13
   7  -4  10    0.63    0.13
  -8   4 -10    1.01    0.17
   8  -4  10    0.92    0.15
  -9  -3  10    1.24    0.18
  -8  -3  10    2.53    0.21
  -8  -3  10    2.89    0.21
  -8  -3  10    2.87    0.22
  -7  -3  10    0.31    0.10
  -7  -3  10    0.55    0.11
  -7  -3  10    0.50    0.11
  -6  -3  10    1.74    0.17
  -6  -3  10    1.30    0.15
  -6  -3  10    1.40    0.17
   5   3 -10    2.68    0.16
   5   3 -10    2.89    0.17
   5   3 -10    2.45    0.15
   5   3 -10    2.73    0.17
  -5  -3  10    2.78    0.18
  -5  -3  10    2.62    0.15
  -5  -3  10    2.49    0.16
  -5  -3  10    2.40    0.18
  -5  -3  10    2.96    0.17
   4   3 -10    3.28    0.17
   4   3 -10    3.18    0.19
   4   3 -10    3.15    0.17
  -4  -3  10    3.14    0.20
  -4  -3  10    3.36    0.17
  -4  -3  10    3.72    0.18
  -4  -3  10    3.39    0.18
  -4  -3  10    3.19    0.16
   3   3 -10   77.94    1.76
   3   3 -10   78.51    1.47
   3   3 -10   79.69    1.56
   3   3 -10   79.12    1.57
  -3  -3  10   82.04    1.56
  -3  -3  10   78.78    1.46
  -3  -3  10   81.38    1.56
  -3  -3  10   77.79    1.55
   2   3 -10    1.91    0.14
   2   3 -10    2.06    0.15
   2   3 -10    2.39    0.10
  -2  -3  10    2.05    0.11
  -2  -3  10    1.89    0.12
  -2  -3  10    1.87    0.14
   1   3 -10    0.05    0.05
   1   3 -10    0.11    0.03
   1   3 -10   -0.02    0.05
   1   3 -10    0.09    0.06
  -1  -3  10    0.08    0.03
  -1  -3  10    0.03    0.05
  -1  -3  10    0.05    0.03
   0   3 -10    4.80    0.23
   0   3 -10    5.19    0.23
   0   3 -10    4.91    0.24
   0  -3  10    5.40    0.23
   0  -3  10    5.13    0.14
  -1   3 -10    0.02    0.06
  -1   3 -10    0.05    0.06
  -1   3 -10    0.04    0.05
   1  -3  10    0.07    0.06
  -2   3 -10    7.37    0.29
  -2   3 -10    7.61    0.30
  -2   3 -10    7.27    0.31
   2  -3  10    7.27    0.29
  -3   3 -10    4.38    0.25
  -3   3 -10    4.48    0.24
  -3   3 -10    5.02    0.24
   3  -3  10    4.26    0.23
  -4   3 -10    5.11    0.25
  -4   3 -10    4.58    0.26
  -4   3 -10    4.44    0.24
   4  -3  10    4.27    0.23
  -5   3 -10    4.81    0.25
  -5   3 -10    4.40    0.25
  -5   3 -10    4.27    0.26
  -5   3 -10    4.47    0.25
   5  -3  10    4.67    0.25
  -6   3 -10   -0.03    0.07
  -6   3 -10    0.03    0.07
  -6   3 -10   -0.04    0.07
  -6   3 -10    0.09    0.08
   6  -3  10    0.09    0.08
  -7   3 -10    5.65    0.31
  -7   3 -10    5.54    0.31
  -7   3 -10    5.40    0.29
  -7   3 -10    5.01    0.28
   7  -3  10    5.07    0.28
  -8   3 -10    0.45    0.13
  -8   3 -10    0.43    0.12
  -8   3 -10    0.36    0.12
   8  -3  10    0.52    0.13
  -9  -2  10    1.39    0.18
  -9  -2  10    1.37    0.19
  -9  -2  10    1.57    0.20
  -8  -2  10    0.09    0.08
  -8  -2  10    0.05    0.07
  -8  -2  10    0.13    0.08
  -7  -2  10    3.96    0.25
  -7  -2  10    4.17    0.23
  -7  -2  10    3.48    0.22
  -6  -2  10    0.00    0.05
  -6  -2  10    0.03    0.06
  -6  -2  10    0.01    0.06
  -6  -2  10    0.00    0.05
   5   2 -10    0.14    0.06
   5   2 -10    0.22    0.06
   5   2 -10    0.16    0.06
  -5  -2  10    0.22    0.08
  -5  -2  10    0.14    0.06
  -5  -2  10    0.16    0.07
  -5  -2  10    0.13    0.05
  -5  -2  10    0.17    0.07
   4   2 -10    3.76    0.18
   4   2 -10    4.76    0.15
   4   2 -10    3.85    0.18
   4   2 -10    4.25    0.21
  -4  -2  10    3.86    0.18
  -4  -2  10    4.03    0.20
  -4  -2  10    4.22    0.19
  -4  -2  10    4.58    0.23
  -4  -2  10    4.01    0.19
   3   2 -10   11.51    0.29
   3   2 -10   10.99    0.34
   3   2 -10   10.83    0.34
  -3  -2  10   11.29    0.32
  -3  -2  10   11.08    0.34
  -3  -2  10   11.27    0.34
  -3  -2  10   11.13    0.31
   2   2 -10    1.93    0.10
   2   2 -10    1.88    0.13
   2   2 -10    1.73    0.13
   2   2 -10    1.87    0.13
  -2  -2  10    1.76    0.12
  -2  -2  10    1.79    0.10
  -2  -2  10    1.86    0.13
  -2  -2  10    1.94    0.10
   1   2 -10    0.13    0.06
   1   2 -10    0.13    0.06
   1   2 -10    0.23    0.07
   1   2 -10    0.11    0.04
  -1  -2  10    0.06    0.03
  -1  -2  10    0.27    0.07
  -1  -2  10    0.14    0.05
  -1  -2  10    0.15    0.03
   0   2 -10   13.32    0.40
   0   2 -10   13.64    0.37
   0   2 -10   13.07    0.42
   0   2 -10   12.98    0.40
   0  -2  10   13.62    0.40
   0  -2  10   13.93    0.26
  -1   2 -10   12.85    0.43
  -1   2 -10   13.59    0.39
  -1   2 -10   13.60    0.41
  -1   2 -10   13.24    0.41
   1  -2  10   13.36    0.41
  -2   2 -10    0.03    0.06
  -2   2 -10    0.00    0.05
  -2   2 -10    0.04    0.06
   2  -2  10    0.05    0.06
  -3   2 -10   41.97    1.03
  -3   2 -10   42.13    0.97
  -3   2 -10   42.44    0.97
   3  -2  10   42.33    0.97
  -4   2 -10    9.42    0.36
  -4   2 -10    9.50    0.36
  -4   2 -10    9.18    0.38
   4  -2  10    9.14    0.36
  -5   2 -10    6.82    0.31
  -5   2 -10    6.53    0.30
  -5   2 -10    6.32    0.32
  -5   2 -10    6.72    0.30
   5  -2  10    6.46    0.30
  -6   2 -10    0.48    0.11
  -6   2 -10    0.31    0.10
  -6   2 -10    0.53    0.11
  -6   2 -10    0.26    0.11
   6  -2  10    0.35    0.11
  -7   2 -10   -0.02    0.07
  -7   2 -10    0.06    0.08
  -7   2 -10    0.00    0.07
   7  -2  10   -0.01    0.08
  -8   2 -10    1.27    0.18
  -8   2 -10    1.34    0.19
   8  -2  10    1.53    0.19
  -9  -1  10    0.41    0.12
  -9  -1  10    0.25    0.10
  -9  -1  10    0.17    0.09
  -8  -1  10    1.79    0.19
  -8  -1  10    2.07    0.20
  -8  -1  10    1.97    0.21
  -7  -1  10   -0.01    0.05
  -7  -1  10    0.00    0.06
  -7  -1  10   -0.06    0.05
  -7  -1  10    0.03    0.06
  -6  -1  10   13.87    0.45
  -6  -1  10   13.16    0.46
  -6  -1  10   13.29    0.41
  -6  -1  10   13.58    0.43
   5   1 -10    3.67    0.14
   5   1 -10    3.41    0.17
   5   1 -10    3.60    0.16
   5   1 -10    3.22    0.16
  -5  -1  10    3.35    0.16
  -5  -1  10    3.54    0.18
  -5  -1  10    3.55    0.19
  -5  -1  10    3.68    0.21
  -5  -1  10    3.53    0.20
   4   1 -10    0.40    0.06
   4   1 -10    0.43    0.08
   4   1 -10    0.35    0.07
  -4  -1  10    0.34    0.08
  -4  -1  10    0.43    0.07
  -4  -1  10    0.42    0.07
  -4  -1  10    0.31    0.06
  -4  -1  10    0.28    0.08
   3   1 -10    1.85    0.11
   3   1 -10    1.94    0.13
   3   1 -10    1.74    0.13
   3   1 -10    1.64    0.12
  -3  -1  10    1.86    0.12
  -3  -1  10    1.78    0.14
  -3  -1  10    1.80    0.11
  -3  -1  10    1.73    0.14
  -3  -1  10    1.97    0.12
   2   1 -10    9.04    0.30
   2   1 -10    9.24    0.32
   2   1 -10    9.43    0.30
   2   1 -10    9.39    0.29
  -2  -1  10    9.85    0.31
  -2  -1  10    9.32    0.31
  -2  -1  10    9.44    0.25
  -2  -1  10    9.69    0.25
   1   1 -10   21.22    0.52
   1   1 -10   20.70    0.53
   1   1 -10   21.60    0.57
   1   1 -10   21.06    0.54
  -1  -1  10   21.62    0.54
  -1  -1  10   20.98    0.53
  -1  -1  10   20.98    0.42
   0   1 -10    0.80    0.10
   0   1 -10    0.71    0.10
   0   1 -10    0.80    0.11
   0   1 -10    0.63    0.10
   0  -1  10    0.59    0.09
  -1   1 -10   15.64    0.45
  -1   1 -10   16.40    0.47
  -1   1 -10   15.25    0.46
  -1   1 -10   16.33    0.49
   1  -1  10   17.10    0.47
  -2   1 -10   11.27    0.38
  -2   1 -10   10.61    0.37
  -2   1 -10   11.73    0.41
  -2   1 -10   11.17    0.38
   2  -1  10   11.61    0.38
  -3   1 -10    0.41    0.10
  -3   1 -10    0.25    0.08
  -3   1 -10    0.07    0.07
  -3   1 -10    0.28    0.08
   3  -1  10    0.19    0.08
  -4   1 -10    3.44    0.21
  -4   1 -10    3.79    0.22
  -4   1 -10    3.77    0.24
   4  -1  10    3.80    0.23
  -5   1 -10    0.44    0.10
  -5   1 -10    0.31    0.10
  -5   1 -10    0.45    0.11
  -5   1 -10    0.18    0.09
   5  -1  10    0.22    0.09
  -6   1 -10    0.03    0.08
  -6   1 -10    0.02    0.08
  -6   1 -10   -0.04    0.08
   6  -1  10    0.01    0.08
  -7   1 -10    0.70    0.14
  -7   1 -10    0.83    0.15
  -7   1 -10    0.58    0.14
   7  -1  10    0.43    0.12
  -8   1 -10   -0.09    0.08
  -8   1 -10    0.05    0.09
   8  -1  10    0.08    0.09
  -9   0  10    0.59    0.13
  -9   0  10    0.89    0.16
  -9   0  10    0.82    0.14
  -8   0  10    0.28    0.10
  -8   0  10    0.23    0.08
  -8   0  10    0.24    0.09
  -8   0  10    0.31    0.10
  -7   0  10    1.02    0.15
  -7   0  10    1.08    0.14
  -7   0  10    1.29    0.15
  -7   0  10    0.98    0.15
   6   0 -10    1.04    0.11
  -6   0  10    0.93    0.12
  -6   0  10    1.02    0.12
  -6   0  10    0.93    0.14
  -6   0  10    0.71    0.12
   5   0 -10    7.63    0.24
   5   0 -10    7.77    0.26
   5   0 -10    8.00    0.24
  -5   0  10    7.58    0.27
  -5   0  10    7.96    0.24
  -5   0  10    7.78    0.28
  -5   0  10    7.85    0.32
  -5   0  10    7.57    0.31
   4   0 -10    1.83    0.12
   4   0 -10    1.94    0.12
   4   0 -10    1.98    0.12
   4   0 -10    2.00    0.12
  -4   0  10    1.93    0.12
  -4   0  10    1.77    0.14
  -4   0  10    1.93    0.12
  -4   0  10    1.82    0.14
  -4   0  10    1.74    0.12
   3   0 -10    7.21    0.25
   3   0 -10    7.12    0.26
   3   0 -10    7.11    0.25
   3   0 -10    7.20    0.25
  -3   0  10    6.90    0.28
  -3   0  10    7.76    0.22
  -3   0  10    6.97    0.28
  -3   0  10    7.63    0.25
  -3   0  10    7.33    0.23
   2   0 -10   11.58    0.35
   2   0 -10   11.46    0.35
   2   0 -10   11.51    0.36
   2   0 -10   11.60    0.35
  -2   0  10   11.28    0.37
  -2   0  10   11.82    0.27
  -2   0  10   11.91    0.35
   1   0 -10    0.20    0.07
   1   0 -10    0.24    0.07
   1   0 -10    0.24    0.07
   1   0 -10    0.17    0.07
  -1   0  10    0.25    0.07
   0   0 -10   19.56    0.52
   0   0 -10   18.41    0.51
   0   0 -10   18.36    0.51
   0   0 -10   19.51    0.55
   0   0  10   19.48    0.51
  -1   0 -10   14.24    0.47
  -1   0 -10   14.62    0.44
  -1   0 -10   14.94    0.45
  -1   0 -10   15.02    0.44
   1   0  10   14.83    0.44
  -2   0 -10    0.88    0.12
  -2   0 -10    0.93    0.13
  -2   0 -10    0.84    0.12
  -2   0 -10    0.64    0.11
   2   0  10    0.73    0.11
  -3   0 -10    0.73    0.12
  -3   0 -10    0.39    0.10
  -3   0 -10    0.43    0.10
  -3   0 -10    0.50    0.10
   3   0  10    0.52    0.11
  -4   0 -10    1.34    0.16
  -4   0 -10    1.89    0.15
  -4   0 -10    1.35    0.16
  -4   0 -10    1.77    0.20
   4   0  10    1.84    0.18
  -5   0 -10    3.42    0.23
  -5   0 -10    4.40    0.27
  -5   0 -10    4.13    0.25
   5   0  10    4.02    0.25
  -6   0 -10    5.43    0.30
  -6   0 -10    5.72    0.31
  -6   0 -10    6.44    0.34
   6   0  10    5.47    0.30
  -7   0 -10    1.23    0.18
  -7   0 -10    1.25    0.18
   7   0  10    1.15    0.17
  -9   1  10    1.84    0.21
  -9   1  10    1.53    0.19
  -9   1  10    1.60    0.20
  -9   1  10    1.52    0.18
  -8   1  10    2.82    0.20
  -8   1  10    3.08    0.23
  -8   1  10    2.90    0.20
  -8   1  10    3.35    0.24
   7  -1 -10    2.40    0.16
  -7   1  10    2.27    0.19
  -7   1  10    2.60    0.20
  -7   1  10    2.20    0.17
  -7   1  10    2.19    0.17
   6  -1 -10    0.17    0.06
  -6   1  10    0.25    0.07
  -6   1  10    0.13    0.06
  -6   1  10    0.15    0.07
  -6   1  10    0.14    0.07
   5  -1 -10    6.30    0.21
   5  -1 -10    6.47    0.21
   5  -1 -10    6.06    0.25
  -5   1  10    6.35    0.29
  -5   1  10    6.13    0.28
  -5   1  10    6.48    0.24
   4  -1 -10    0.32    0.07
   4  -1 -10    0.26    0.06
   4  -1 -10    0.46    0.08
   4  -1 -10    0.45    0.07
  -4   1  10    0.36    0.08
  -4   1  10    0.45    0.09
  -4   1  10    0.53    0.08
  -4   1  10    0.42    0.07
   3  -1 -10    2.45    0.15
   3  -1 -10    2.34    0.15
   3  -1 -10    2.60    0.14
   3  -1 -10    2.51    0.14
  -3   1  10    2.41    0.15
  -3   1  10    2.37    0.17
  -3   1  10    2.43    0.14
   2  -1 -10   17.79    0.50
   2  -1 -10   18.11    0.50
   2  -1 -10   18.59    0.48
   2  -1 -10   18.76    0.49
  -2   1  10   18.35    0.52
  -2   1  10   18.88    0.49
  -2   1  10   19.41    0.49
   1  -1 -10   16.06    0.48
   1  -1 -10   16.29    0.45
   1  -1 -10   16.10    0.46
   1  -1 -10   16.00    0.45
  -1   1  10   16.05    0.45
   0  -1 -10    6.59    0.26
   0  -1 -10    5.91    0.26
   0  -1 -10    5.55    0.25
   0  -1 -10    6.58    0.28
   0   1  10    5.87    0.25
  -1  -1 -10    4.96    0.25
  -1  -1 -10    4.90    0.24
  -1  -1 -10    4.45    0.23
  -1  -1 -10    5.07    0.24
   1   1  10    5.23    0.24
  -2  -1 -10    3.27    0.20
  -2  -1 -10    2.98    0.21
  -2  -1 -10    2.68    0.18
  -2  -1 -10    2.72    0.19
   2   1  10    2.65    0.18
  -3  -1 -10    0.14    0.08
  -3  -1 -10    0.10    0.08
  -3  -1 -10    0.09    0.08
  -3  -1 -10    0.11    0.08
   3   1  10    0.15    0.08
  -4  -1 -10   15.82    0.54
  -4  -1 -10   15.76    0.52
  -4  -1 -10   15.67    0.55
  -4  -1 -10   16.64    0.53
   4   1  10   16.41    0.53
  -5  -1 -10    0.14    0.09
  -5  -1 -10    0.04    0.08
  -5  -1 -10    0.04    0.08
   5   1  10   -0.01    0.07
  -6  -1 -10    0.33    0.11
  -6  -1 -10    0.55    0.13
   6   1  10    0.65    0.14
  -7  -1 -10    0.33    0.12
  -7  -1 -10    0.28    0.12
   7   1  10    0.23    0.11
  -9   2  10    0.55    0.13
  -9   2  10    0.63    0.14
  -8   2  10    1.37    0.18
  -8   2  10    1.65    0.20
   7  -2 -10    1.88    0.16
  -7   2  10    2.04    0.20
  -7   2  10    1.91    0.21
   6  -2 -10    7.94    0.31
  -6   2  10    7.37    0.34
  -6   2  10    6.95    0.32
   5  -2 -10   18.82    0.53
  -5   2  10   18.96    0.54
  -5   2  10   18.68    0.58
   4  -2 -10   11.79    0.35
   4  -2 -10   11.60    0.33
   4  -2 -10   11.59    0.34
   4  -2 -10   11.50    0.38
  -4   2  10   12.52    0.34
  -4   2  10   11.18    0.37
  -4   2  10   12.04    0.42
   3  -2 -10    5.32    0.23
   3  -2 -10    5.49    0.22
   3  -2 -10    5.31    0.22
   3  -2 -10    5.26    0.24
  -3   2  10    6.24    0.23
  -3   2  10    5.87    0.24
  -3   2  10    6.03    0.27
   2  -2 -10    2.34    0.16
   2  -2 -10    2.34    0.15
   2  -2 -10    2.20    0.15
   2  -2 -10    2.57    0.16
  -2   2  10    2.50    0.14
  -2   2  10    2.33    0.15
  -2   2  10    2.32    0.17
   1  -2 -10    4.52    0.23
   1  -2 -10    5.07    0.24
   1  -2 -10    5.15    0.23
   1  -2 -10    5.24    0.23
   1  -2 -10    5.10    0.24
  -1   2  10    5.09    0.23
  -1   2  10    5.51    0.21
   0  -2 -10   21.94    0.58
   0  -2 -10   21.47    0.62
   0  -2 -10   21.92    0.58
   0  -2 -10   21.59    0.60
   0   2  10   21.62    0.58
   0   2  10   22.50    0.52
  -1  -2 -10    0.09    0.07
  -1  -2 -10    0.23    0.08
  -1  -2 -10    0.31    0.09
  -1  -2 -10    0.19    0.07
   1   2  10    0.27    0.09
  -2  -2 -10    4.60    0.25
  -2  -2 -10    4.83    0.25
  -2  -2 -10    4.98    0.26
  -2  -2 -10    4.78    0.27
   2   2  10    4.93    0.26
  -3  -2 -10    6.14    0.30
  -3  -2 -10    6.71    0.31
  -3  -2 -10    6.90    0.33
  -3  -2 -10    7.32    0.35
   3   2  10    6.83    0.32
  -4  -2 -10    1.40    0.17
  -4  -2 -10    1.56    0.20
  -4  -2 -10    1.24    0.17
  -4  -2 -10    1.27    0.17
   4   2  10    1.46    0.18
  -5  -2 -10    4.61    0.28
  -5  -2 -10    4.64    0.30
  -5  -2 -10    4.98    0.29
   5   2  10    4.88    0.29
  -6  -2 -10    0.06    0.10
  -6  -2 -10    0.24    0.11
   6   2  10    0.10    0.10
  -9   3  10   -0.05    0.07
  -9   3  10    0.10    0.09
   8  -3 -10    0.20    0.09
  -8   3  10    0.13    0.08
  -8   3  10    0.06    0.08
   7  -3 -10    3.25    0.21
  -7   3  10    3.33    0.23
  -7   3  10    3.61    0.25
   6  -3 -10   16.36    0.51
  -6   3  10   16.37    0.52
  -6   3  10   17.21    0.57
   5  -3 -10   10.68    0.38
  -5   3  10    9.94    0.40
  -5   3  10   10.64    0.37
   4  -3 -10    0.87    0.11
   4  -3 -10    0.91    0.13
   4  -3 -10    0.92    0.11
   4  -3 -10    0.81    0.10
  -4   3  10    0.96    0.14
  -4   3  10    0.88    0.10
  -4   3  10    0.83    0.11
   3  -3 -10    1.95    0.14
   3  -3 -10    1.94    0.16
   3  -3 -10    2.00    0.14
   3  -3 -10    1.97    0.14
  -3   3  10    2.43    0.15
  -3   3  10    2.52    0.19
  -3   3  10    2.13    0.14
   2  -3 -10    9.77    0.36
   2  -3 -10    9.24    0.32
   2  -3 -10    9.37    0.33
   2  -3 -10   10.19    0.35
  -2   3  10    9.64    0.33
  -2   3  10    9.88    0.30
  -2   3  10    8.94    0.36
   1  -3 -10   15.90    0.47
   1  -3 -10   15.37    0.49
   1  -3 -10   15.38    0.46
   1  -3 -10   15.08    0.49
  -1   3  10   15.45    0.45
  -1   3  10   16.11    0.40
  -1   3  10   15.95    0.47
   0  -3 -10    0.17    0.08
   0  -3 -10    0.11    0.07
   0  -3 -10    0.10    0.07
   0  -3 -10    0.20    0.08
   0   3  10    0.16    0.08
   0   3  10    0.06    0.06
  -1  -3 -10    5.56    0.28
  -1  -3 -10    5.42    0.28
  -1  -3 -10    5.56    0.29
  -1  -3 -10    5.43    0.27
   1   3  10    5.36    0.27
   1   3  10    5.40    0.26
  -2  -3 -10    0.97    0.14
  -2  -3 -10    1.30    0.16
  -2  -3 -10    1.04    0.16
  -2  -3 -10    0.86    0.14
   2   3  10    1.10    0.15
   2   3  10    1.08    0.14
  -3  -3 -10    2.53    0.21
  -3  -3 -10    2.01    0.20
  -3  -3 -10    2.67    0.21
  -3  -3 -10    2.17    0.22
   3   3  10    2.33    0.19
   3   3  10    2.37    0.20
  -4  -3 -10    1.35    0.18
  -4  -3 -10    1.33    0.18
  -4  -3 -10    1.38    0.19
  -4  -3 -10    1.33    0.18
   4   3  10    1.50    0.19
  -5  -3 -10    0.10    0.09
  -5  -3 -10   -0.05    0.07
  -5  -3 -10    0.12    0.10
   5   3  10    0.11    0.09
   9  -4 -10    0.90    0.16
  -9   4  10    0.87    0.16
   8  -4 -10    0.58    0.13
  -8   4  10    0.66    0.14
  -8   4  10    0.31    0.11
   7  -4 -10    0.04    0.07
  -7   4  10    0.10    0.08
  -7   4  10    0.08    0.08
   6  -4 -10    1.58    0.18
  -6   4  10    1.46    0.19
  -6   4  10    1.35    0.16
   5  -4 -10    1.59    0.17
  -5   4  10    1.56    0.18
  -5   4  10    1.50    0.16
   4  -4 -10    0.22    0.09
   4  -4 -10    0.19    0.07
   4  -4 -10    0.20    0.07
   4  -4 -10    0.24    0.07
   4  -4 -10    0.19    0.07
  -4   4  10    0.36    0.08
  -4   4  10    0.26    0.09
  -4   4  10    0.20    0.06
   3  -4 -10    2.96    0.20
   3  -4 -10    3.66    0.20
   3  -4 -10    3.21    0.18
   3  -4 -10    3.63    0.19
  -3   4  10    3.57    0.18
  -3   4  10    3.26    0.18
  -3   4  10    3.48    0.22
   2  -4 -10    0.48    0.10
   2  -4 -10    0.54    0.11
   2  -4 -10    0.70    0.11
   2  -4 -10    0.57    0.10
  -2   4  10    0.68    0.11
  -2   4  10    0.82    0.13
  -2   4  10    0.65    0.09
  -2   4  10    0.55    0.09
   1  -4 -10    6.82    0.29
   1  -4 -10    6.31    0.29
   1  -4 -10    6.32    0.31
   1  -4 -10    6.27    0.30
  -1   4  10    6.60    0.28
  -1   4  10    7.13    0.30
   0  -4 -10   12.17    0.44
   0  -4 -10   11.74    0.44
   0  -4 -10   12.24    0.43
   0  -4 -10   12.14    0.42
   0   4  10   11.40    0.41
   0   4  10   12.40    0.41
  -1  -4 -10    1.88    0.20
  -1  -4 -10    2.28    0.20
  -1  -4 -10    2.43    0.19
  -1  -4 -10    2.02    0.20
   1   4  10    2.14    0.17
   1   4  10    2.24    0.19
  -2  -4 -10    4.88    0.30
  -2  -4 -10    5.20    0.30
  -2  -4 -10    5.36    0.29
  -2  -4 -10    5.59    0.29
   2   4  10    5.95    0.30
   2   4  10    5.30    0.28
  -3  -4 -10    0.30    0.11
  -3  -4 -10    0.38    0.11
  -3  -4 -10    0.38    0.11
  -3  -4 -10    0.25    0.11
   3   4  10    0.26    0.10
   3   4  10    0.30    0.10
  -4  -4 -10    0.03    0.09
  -4  -4 -10   -0.03    0.08
  -4  -4 -10   -0.08    0.07
   4   4  10    0.00    0.08
   4   4  10   -0.01    0.08
  -5  -4 -10    1.77    0.21
  -5  -4 -10    1.45    0.21
   9  -5 -10    0.10    0.10
   8  -5 -10    1.39    0.19
  -8   5  10    1.70    0.22
   7  -5 -10    2.71    0.22
  -7   5  10    2.66    0.20
  -7   5  10    2.10    0.24
   6  -5 -10    1.51    0.19
  -6   5  10    2.03    0.17
  -6   5  10    1.49    0.19
   5  -5 -10    0.19    0.09
  -5   5  10    0.23    0.08
  -5   5  10    0.30    0.10
   4  -5 -10    4.93    0.23
   4  -5 -10    4.62    0.22
   4  -5 -10    4.24    0.26
  -4   5  10    4.60    0.22
  -4   5  10    4.87    0.22
  -4   5  10    4.29    0.27
   3  -5 -10    1.10    0.15
   3  -5 -10    1.39    0.15
   3  -5 -10    1.18    0.14
   3  -5 -10    1.36    0.15
  -3   5  10    1.19    0.13
  -3   5  10    1.35    0.15
  -3   5  10    1.54    0.18
   2  -5 -10    6.90    0.30
   2  -5 -10    6.97    0.33
   2  -5 -10    6.50    0.29
  -2   5  10    6.38    0.32
  -2   5  10    6.36    0.29
  -2   5  10    6.40    0.28
   1  -5 -10    1.83    0.18
   1  -5 -10    1.78    0.18
   1  -5 -10    1.96    0.21
  -1   5  10    1.83    0.17
  -1   5  10    1.94    0.18
   0  -5 -10    0.74    0.13
   0  -5 -10    0.36    0.11
   0  -5 -10    0.83    0.15
   0   5  10    0.82    0.13
   0   5  10    0.79    0.13
  -1  -5 -10    0.12    0.09
  -1  -5 -10    0.34    0.11
  -1  -5 -10    0.29    0.10
   1   5  10    0.31    0.11
   1   5  10    0.29    0.09
  -2  -5 -10    0.09    0.09
  -2  -5 -10    0.25    0.10
  -2  -5 -10    0.19    0.09
   2   5  10    0.06    0.07
   2   5  10    0.14    0.09
  -3  -5 -10    3.95    0.28
  -3  -5 -10    3.86    0.27
  -3  -5 -10    3.70    0.27
   3   5  10    3.90    0.28
   3   5  10    3.98    0.26
  -4  -5 -10    1.13    0.18
   8  -6 -10    0.88    0.16
   7  -6 -10    0.96    0.17
  -7   6  10    0.94    0.17
   6  -6 -10    5.32    0.31
  -6   6  10    4.45    0.30
   5  -6 -10    1.58    0.20
  -5   6  10    1.23    0.18
   4  -6 -10    1.18    0.17
   4  -6 -10    1.19    0.14
   4  -6 -10    1.03    0.13
  -4   6  10    1.06    0.17
   3  -6 -10    5.51    0.27
   3  -6 -10    5.39    0.26
   3  -6 -10    5.55    0.31
  -3   6  10    5.03    0.30
  -3   6  10    5.72    0.26
  -3   6  10    5.60    0.27
   2  -6 -10    0.54    0.12
   2  -6 -10    0.52    0.12
   2  -6 -10    0.39    0.11
  -2   6  10    0.57    0.11
  -2   6  10    0.33    0.11
  -2   6  10    0.48    0.11
   1  -6 -10    4.03    0.27
   1  -6 -10    4.23    0.25
   1  -6 -10    4.08    0.25
  -1   6  10    3.91    0.24
  -1   6  10    4.33    0.25
   0  -6 -10    0.37    0.11
   0  -6 -10    0.68    0.14
   0  -6 -10    0.80    0.14
   0   6  10    0.65    0.12
   0   6  10    0.58    0.12
  -1  -6 -10    0.05    0.08
  -1  -6 -10    0.15    0.10
  -1  -6 -10    0.04    0.09
   1   6  10    0.07    0.08
   1   6  10    0.28    0.10
  -2  -6 -10    0.98    0.17
  -2  -6 -10    1.33    0.19
  -2  -6 -10    1.06    0.18
   2   6  10    1.47    0.20
   2   6  10    0.83    0.15
   6  -7 -10   -0.01    0.08
  -6   7  10    0.06    0.09
   5  -7 -10    0.79    0.16
  -5   7  10    0.84    0.16
   4  -7 -10    0.57    0.14
  -4   7  10    0.58    0.14
   3  -7 -10    4.12    0.25
   3  -7 -10    3.96    0.24
   3  -7 -10    4.15    0.28
  -3   7  10    4.18    0.24
  -3   7  10    4.24    0.29
  -3   7  10    3.44    0.40
  -3   7  10    4.40    0.24
   2  -7 -10    3.15    0.23
   2  -7 -10    3.37    0.23
   2  -7 -10    3.18    0.25
  -2   7  10    3.13    0.23
  -2   7  10    3.47    0.22
  -2   7  10    3.26    0.25
   1  -7 -10    0.70    0.15
   1  -7 -10    0.88    0.15
   1  -7 -10    0.95    0.16
  -1   7  10    0.89    0.15
  -1   7  10    0.61    0.13
  -1   7  10    0.70    0.15
   0  -7 -10    1.86    0.22
   0  -7 -10    1.86    0.21
   0  -7 -10    1.73    0.22
   0   7  10    1.75    0.20
   0   7  10    1.86    0.22
  -1  -7 -10    1.26    0.20
  -1  -7 -10    1.19    0.19
  -1  -7 -10    1.19    0.19
   1   7  10    1.49    0.20
  -4   8  10    1.16    0.19
   3  -8 -10    1.81    0.20
   3  -8 -10    1.90    0.21
  -3   8  10    1.78    0.19
  -3   8  10    2.07    0.24
  -3   8  10    1.80    0.37
  -3   8  10    1.54    0.18
   2  -8 -10    0.23    0.11
   2  -8 -10    0.09    0.10
  -2   8  10    0.26    0.12
  -2   8  10    0.21    0.11
  -2   8  10    0.32    0.10
   1  -8 -10    0.43    0.13
   1  -8 -10    0.36    0.13
  -1   8  10    0.58    0.14
  -1  11 -11    0.48    0.15
  -2  11 -11    1.73    0.32
  -3  11 -11    1.87    0.27
   3  10 -11    0.06    0.09
  -3 -10  11    0.11    0.11
   2  10 -11    2.36    0.25
   2  10 -11    2.47    0.26
   2  10 -11    1.84    0.23
  -2 -10  11    2.66    0.26
   1  10 -11    2.42    0.25
   1  10 -11    2.67    0.26
   1  10 -11    2.04    0.23
  -1 -10  11    2.77    0.23
   0  10 -11    0.14    0.10
   0  10 -11    0.18    0.11
   0  10 -11    0.13    0.10
   0 -10  11    0.17    0.11
  -1  10 -11    0.89    0.16
  -1  10 -11    1.86    0.26
  -1  10 -11    0.99    0.17
  -1  10 -11    1.14    0.18
   1 -10  11    1.25    0.18
  -2  10 -11   -0.04    0.08
  -2  10 -11   -0.07    0.07
  -2  10 -11    0.26    0.12
  -2  10 -11    0.03    0.09
   2 -10  11    0.01    0.08
  -3  10 -11    3.07    0.35
  -3  10 -11    2.45    0.25
  -3  10 -11    2.65    0.26
  -3  10 -11    2.32    0.24
   3 -10  11    2.31    0.24
  -4  10 -11    1.33    0.20
  -4  10 -11    2.24    0.30
  -4  10 -11    1.39    0.20
  -4  10 -11    1.39    0.19
   4 -10  11    1.32    0.19
  -5  10 -11    0.69    0.21
  -5  10 -11    0.29    0.12
  -5  10 -11    0.40    0.13
  -5  10 -11    0.40    0.12
   5 -10  11    0.28    0.11
   5   9 -11    0.05    0.09
   5   9 -11   -0.08    0.08
   5   9 -11    0.06    0.08
  -5  -9  11    0.08    0.10
  -5  -9  11   -0.01    0.07
   4   9 -11    1.47    0.19
   4   9 -11    1.34    0.20
  -4  -9  11    1.12    0.18
  -4  -9  11    1.19    0.17
   3   9 -11    3.42    0.26
   3   9 -11    3.17    0.25
   3   9 -11    3.77    0.27
  -3  -9  11    3.47    0.26
   2   9 -11    1.20    0.18
   2   9 -11    1.39    0.19
   2   9 -11    1.14    0.17
  -2  -9  11    1.05    0.17
   1   9 -11   -0.05    0.08
   1   9 -11   -0.01    0.09
   1   9 -11    0.02    0.08
  -1  -9  11    0.02    0.08
   0   9 -11    0.47    0.13
   0   9 -11    0.19    0.10
   0   9 -11    0.31    0.11
   0   9 -11    0.79    0.18
   0  -9  11    0.32    0.11
  -1   9 -11   10.89    0.45
  -1   9 -11   11.00    0.67
  -1   9 -11   11.11    0.46
  -1   9 -11   12.03    0.47
   1  -9  11   11.18    0.45
  -2   9 -11    4.12    0.27
  -2   9 -11    4.09    0.27
  -2   9 -11    4.75    0.42
  -2   9 -11    4.22    0.27
   2  -9  11    4.26    0.27
  -3   9 -11    0.28    0.14
  -3   9 -11    0.03    0.09
  -3   9 -11    0.28    0.11
   3  -9  11    0.23    0.10
  -4   9 -11    1.43    0.30
  -4   9 -11    1.48    0.20
  -4   9 -11    1.20    0.18
   4  -9  11    1.20    0.18
  -5   9 -11    0.96    0.16
  -5   9 -11    0.74    0.15
   5  -9  11    1.01    0.17
  -6   9 -11    0.14    0.09
  -6   9 -11   -0.03    0.08
   6  -9  11    0.08    0.10
  -6  -8  11    0.01    0.07
   5   8 -11    1.20    0.18
   5   8 -11    1.28    0.17
  -5  -8  11    1.07    0.16
  -5  -8  11    0.95    0.16
  -5  -8  11    0.99    0.15
   4   8 -11    1.23    0.17
   4   8 -11    1.32    0.19
   4   8 -11    1.35    0.19
   4   8 -11    0.93    0.16
  -4  -8  11    1.19    0.16
  -4  -8  11    1.30    0.17
   3   8 -11    0.22    0.10
   3   8 -11    0.22    0.11
   3   8 -11    0.16    0.09
   3   8 -11    0.32    0.10
  -3  -8  11    0.22    0.10
   2   8 -11    2.70    0.22
   2   8 -11    3.34    0.23
   2   8 -11    3.71    0.25
   2   8 -11    2.82    0.24
  -2  -8  11    2.80    0.22
   1   8 -11    0.20    0.11
   1   8 -11    0.58    0.13
   1   8 -11    0.50    0.13
   1   8 -11    0.50    0.12
  -1  -8  11    0.59    0.12
   0   8 -11    0.07    0.08
   0   8 -11    0.36    0.13
   0   8 -11    0.13    0.10
   0   8 -11    0.00    0.08
   0   8 -11    0.03    0.08
   0  -8  11    0.17    0.09
  -1   8 -11    0.73    0.18
  -1   8 -11    0.52    0.12
  -1   8 -11    0.58    0.14
  -1   8 -11    0.45    0.12
   1  -8  11    0.39    0.11
  -2   8 -11    0.95    0.23
  -2   8 -11    0.52    0.13
  -2   8 -11    0.43    0.12
  -2   8 -11    0.43    0.11
   2  -8  11    0.61    0.13
  -3   8 -11    3.29    0.23
  -3   8 -11    3.18    0.36
  -3   8 -11    3.52    0.25
   3  -8  11    2.87    0.22
  -4   8 -11    0.84    0.15
  -4   8 -11    0.84    0.15
   4  -8  11    0.68    0.13
  -5   8 -11    0.53    0.13
  -5   8 -11    0.66    0.14
   5  -8  11    0.65    0.13
  -6   8 -11    0.99    0.18
  -6   8 -11    0.90    0.16
  -6   8 -11    0.84    0.15
   6  -8  11    0.96    0.16
  -7   8 -11    0.73    0.15
  -7   8 -11    0.61    0.14
   7  -8  11    0.49    0.14
  -7  -7  11    0.60    0.13
  -6  -7  11    0.51    0.12
  -6  -7  11    0.42    0.12
  -6  -7  11    0.44    0.13
   5   7 -11    0.86    0.14
   5   7 -11    1.13    0.16
  -5  -7  11    1.04    0.16
  -5  -7  11    1.02    0.16
  -5  -7  11    0.85    0.14
   4   7 -11    0.27    0.11
   4   7 -11    0.32    0.10
   4   7 -11    0.38    0.11
   4   7 -11    0.25    0.10
  -4  -7  11    0.42    0.11
  -4  -7  11    0.31    0.10
   3   7 -11    3.52    0.25
   3   7 -11    3.83    0.24
   3   7 -11    3.24    0.23
   3   7 -11    3.84    0.23
  -3  -7  11    3.88    0.24
   2   7 -11    0.71    0.13
   2   7 -11    0.80    0.15
   2   7 -11    0.67    0.13
   2   7 -11    0.50    0.12
  -2  -7  11    0.53    0.11
   1   7 -11    2.70    0.25
   1   7 -11    2.18    0.21
   1   7 -11    2.41    0.19
   1   7 -11    2.12    0.21
  -1  -7  11    2.41    0.19
   0   7 -11    0.45    0.14
   0   7 -11    0.13    0.09
   0   7 -11    0.24    0.10
   0   7 -11    0.29    0.10
   0  -7  11    0.37    0.10
  -1   7 -11    6.58    0.46
  -1   7 -11    5.81    0.30
  -1   7 -11    6.56    0.31
  -1   7 -11    6.82    0.36
   1  -7  11    6.05    0.30
  -2   7 -11   15.72    0.52
  -2   7 -11   15.43    0.58
  -2   7 -11   14.94    0.81
  -2   7 -11   16.55    0.53
   2  -7  11   15.59    0.52
  -3   7 -11    1.78    0.21
  -3   7 -11    2.08    0.21
  -3   7 -11    1.98    0.20
   3  -7  11    1.70    0.18
  -4   7 -11    2.59    0.21
  -4   7 -11    2.38    0.23
  -4   7 -11    2.69    0.21
   4  -7  11    2.60    0.21
  -5   7 -11    0.01    0.07
  -5   7 -11    0.03    0.08
   5  -7  11    0.21    0.10
  -6   7 -11    3.94    0.29
  -6   7 -11    4.13    0.27
  -6   7 -11    4.25    0.27
   6  -7  11    4.20    0.27
  -7   7 -11    0.11    0.09
  -7   7 -11    0.02    0.09
  -7   7 -11    0.06    0.09
   7  -7  11    0.11    0.09
  -7  -6  11    2.26    0.24
  -7  -6  11    2.27    0.22
  -7  -6  11    2.20    0.23
  -6  -6  11    0.02    0.07
  -6  -6  11   -0.04    0.06
  -6  -6  11    0.08    0.08
   5   6 -11    2.93    0.21
   5   6 -11    2.80    0.20
   5   6 -11    2.90    0.20
  -5  -6  11    3.19    0.22
  -5  -6  11    2.64    0.21
  -5  -6  11    3.65    0.22
   4   6 -11    0.09    0.08
   4   6 -11    0.10    0.07
   4   6 -11    0.11    0.08
   4   6 -11    0.26    0.09
  -4  -6  11    0.10    0.07
  -4  -6  11    0.17    0.08
   3   6 -11    0.14    0.08
   3   6 -11    0.05    0.07
   3   6 -11    0.03    0.08
   3   6 -11    0.03    0.07
  -3  -6  11    0.01    0.06
   2   6 -11    2.46    0.20
   2   6 -11    2.23    0.18
   2   6 -11    2.50    0.19
  -2  -6  11    2.75    0.19
   1   6 -11   -0.03    0.07
   1   6 -11    0.07    0.08
   1   6 -11    0.20    0.08
   1   6 -11    0.02    0.07
  -1  -6  11    0.10    0.07
   0   6 -11   13.48    0.46
   0   6 -11   13.79    0.66
   0   6 -11   12.49    0.50
   0   6 -11   13.71    0.46
   0  -6  11   13.07    0.44
  -1   6 -11    0.02    0.07
  -1   6 -11    0.07    0.07
  -1   6 -11    0.21    0.08
   1  -6  11    0.07    0.07
  -2   6 -11    9.80    0.38
  -2   6 -11    9.55    0.38
   2  -6  11   10.06    0.38
  -3   6 -11    1.30    0.16
  -3   6 -11    1.07    0.15
   3  -6  11    1.21    0.16
  -4   6 -11   -0.03    0.07
  -4   6 -11    0.02    0.07
   4  -6  11    0.00    0.07
  -5   6 -11    2.84    0.21
  -5   6 -11    2.81    0.21
  -5   6 -11    3.05    0.23
   5  -6  11    2.42    0.20
  -6   6 -11    1.34    0.19
  -6   6 -11    1.31    0.18
  -6   6 -11    0.82    0.16
  -6   6 -11    1.22    0.17
   6  -6  11    1.39    0.18
  -7   6 -11    0.20    0.10
  -7   6 -11    0.09    0.10
  -7   6 -11    0.39    0.12
   7  -6  11    0.45    0.12
  -8  -5  11    0.02    0.08
  -7  -5  11    1.07    0.16
  -7  -5  11    1.17    0.17
  -7  -5  11    1.39    0.19
  -6  -5  11    1.48    0.18
  -6  -5  11    1.54    0.18
  -6  -5  11    1.60    0.17
   5   5 -11    1.54    0.16
   5   5 -11    1.52    0.17
   5   5 -11    1.61    0.16
  -5  -5  11    1.43    0.18
  -5  -5  11    1.82    0.15
  -5  -5  11    1.73    0.17
  -5  -5  11    1.47    0.17
   4   5 -11   15.42    0.47
   4   5 -11   15.09    0.47
   4   5 -11   15.14    0.52
   4   5 -11   15.78    0.49
  -4  -5  11   15.49    0.45
  -4  -5  11   15.07    0.47
  -4  -5  11   14.45    0.46
  -4  -5  11   14.64    0.50
   3   5 -11    0.55    0.11
   3   5 -11    0.78    0.13
   3   5 -11    0.73    0.12
  -3  -5  11    0.58    0.11
   2   5 -11    0.07    0.07
   2   5 -11    0.08    0.07
   2   5 -11    0.14    0.08
  -2  -5  11    0.08    0.06
   1   5 -11   13.96    0.45
   1   5 -11   14.20    0.51
   1   5 -11   13.83    0.45
  -1  -5  11   14.42    0.45
   0   5 -11   -0.03    0.07
   0   5 -11    0.04    0.07
   0  -5  11    0.12    0.07
  -1   5 -11    3.45    0.21
  -1   5 -11    3.43    0.21
   1  -5  11    3.46    0.21
  -2   5 -11    0.60    0.12
  -2   5 -11    0.50    0.11
  -2   5 -11    0.58    0.12
   2  -5  11    0.29    0.09
  -3   5 -11    4.74    0.27
  -3   5 -11    5.47    0.27
  -3   5 -11    5.22    0.26
   3  -5  11    4.85    0.26
  -4   5 -11    1.30    0.16
  -4   5 -11    1.38    0.17
  -4   5 -11    1.74    0.19
   4  -5  11    1.54    0.17
  -5   5 -11    2.94    0.22
  -5   5 -11    2.57    0.20
  -5   5 -11    2.91    0.22
   5  -5  11    2.72    0.21
  -6   5 -11    5.09    0.30
  -6   5 -11    5.27    0.31
  -6   5 -11    4.51    0.27
  -6   5 -11    4.55    0.27
   6  -5  11    5.00    0.29
  -7   5 -11    2.95    0.23
  -7   5 -11    2.37    0.26
  -7   5 -11    2.85    0.22
   7  -5  11    2.40    0.23
   8  -5  11    0.98    0.16
  -8  -4  11    0.11    0.09
  -8  -4  11    0.25    0.09
  -8  -4  11    0.20    0.09
  -7  -4  11    0.16    0.09
  -7  -4  11    0.25    0.09
  -7  -4  11    0.16    0.09
  -6  -4  11    0.92    0.14
  -6  -4  11    0.88    0.13
  -6  -4  11    0.90    0.14
   5   4 -11    1.42    0.14
   5   4 -11    1.59    0.13
   5   4 -11    1.77    0.16
   5   4 -11    1.24    0.14
  -5  -4  11    1.43    0.14
  -5  -4  11    1.62    0.18
  -5  -4  11    1.28    0.14
  -5  -4  11    1.45    0.16
   4   4 -11    0.43    0.10
   4   4 -11    0.51    0.10
   4   4 -11    0.24    0.08
  -4  -4  11    0.43    0.09
  -4  -4  11    0.52    0.11
  -4  -4  11    0.59    0.10
  -4  -4  11    0.46    0.09
  -4  -4  11    0.55    0.09
   3   4 -11    4.57    0.23
   3   4 -11    4.66    0.25
   3   4 -11    4.72    0.23
  -3  -4  11    4.35    0.19
  -3  -4  11    4.63    0.19
  -3  -4  11    4.56    0.22
  -3  -4  11    4.61    0.21
   2   4 -11    0.57    0.10
   2   4 -11    0.68    0.11
  -2  -4  11    0.80    0.09
  -2  -4  11    0.69    0.11
  -2  -4  11    0.78    0.09
   1   4 -11   29.36    0.73
   1   4 -11   29.68    0.72
  -1  -4  11   29.28    0.63
  -1  -4  11   28.68    0.72
   0   4 -11    4.71    0.24
   0   4 -11    4.91    0.25
   0   4 -11    5.13    0.26
   0  -4  11    5.14    0.18
   0  -4  11    4.79    0.24
  -1   4 -11    5.12    0.25
  -1   4 -11    4.75    0.24
  -1   4 -11    5.01    0.26
   1  -4  11    5.27    0.25
  -2   4 -11   15.87    0.52
  -2   4 -11   16.19    0.50
  -2   4 -11   16.25    0.50
   2  -4  11   15.99    0.49
  -3   4 -11    4.49    0.26
  -3   4 -11    4.96    0.26
  -3   4 -11    5.17    0.26
   3  -4  11    5.20    0.26
  -4   4 -11    3.88    0.23
  -4   4 -11    3.17    0.23
  -4   4 -11    3.78    0.23
   4  -4  11    3.62    0.23
  -5   4 -11    2.56    0.22
  -5   4 -11    2.67    0.20
  -5   4 -11    2.55    0.20
   5  -4  11    2.64    0.20
  -6   4 -11    0.05    0.08
  -6   4 -11    0.05    0.08
  -6   4 -11    0.11    0.08
  -6   4 -11    0.08    0.08
   6  -4  11    0.00    0.07
  -7   4 -11    3.60    0.27
  -7   4 -11    4.28    0.26
  -7   4 -11    3.72    0.25
   7  -4  11    3.81    0.25
  -8   4 -11    0.26    0.12
   8  -4  11    0.34    0.12
  -8  -3  11    0.02    0.07
  -8  -3  11    0.05    0.07
  -8  -3  11    0.00    0.07
  -7  -3  11    7.98    0.34
  -7  -3  11    8.05    0.35
  -7  -3  11    7.68    0.37
  -6  -3  11    9.28    0.35
  -6  -3  11    8.99    0.38
  -6  -3  11    8.74    0.33
  -6  -3  11    8.54    0.35
   5   3 -11    1.16    0.12
   5   3 -11    0.94    0.12
   5   3 -11    1.02    0.12
  -5  -3  11    1.02    0.12
  -5  -3  11    1.15    0.13
  -5  -3  11    1.10    0.15
  -5  -3  11    0.87    0.12
  -5  -3  11    0.97    0.12
   4   3 -11    1.85    0.15
   4   3 -11    1.75    0.14
   4   3 -11    1.72    0.15
  -4  -3  11    1.37    0.13
  -4  -3  11    1.70    0.13
  -4  -3  11    1.68    0.13
  -4  -3  11    1.68    0.13
  -4  -3  11    1.62    0.17
   3   3 -11    0.70    0.11
   3   3 -11    0.86    0.12
  -3  -3  11    0.81    0.10
  -3  -3  11    0.94    0.11
  -3  -3  11    0.97    0.12
  -3  -3  11    0.83    0.09
   2   3 -11   20.59    0.57
   2   3 -11   23.11    0.50
   2   3 -11   21.38    0.57
  -2  -3  11   23.07    0.49
  -2  -3  11   22.77    0.52
  -2  -3  11   21.58    0.53
  -2  -3  11   22.25    0.58
   1   3 -11    0.16    0.07
   1   3 -11    0.07    0.06
   1   3 -11    0.11    0.06
   1   3 -11    0.12    0.05
  -1  -3  11    0.09    0.05
  -1  -3  11    0.09    0.06
  -1  -3  11    0.12    0.04
   0   3 -11    0.40    0.10
   0   3 -11    0.68    0.11
   0   3 -11    0.55    0.10
   0  -3  11    0.46    0.07
   0  -3  11    0.55    0.10
  -1   3 -11    4.71    0.25
  -1   3 -11    4.91    0.25
  -1   3 -11    5.05    0.25
   1  -3  11    5.28    0.25
  -2   3 -11    1.77    0.17
  -2   3 -11    1.65    0.16
  -2   3 -11    1.91    0.19
   2  -3  11    1.84    0.18
  -3   3 -11   10.42    0.38
  -3   3 -11    9.67    0.37
  -3   3 -11   10.39    0.40
   3  -3  11   10.08    0.38
  -4   3 -11    9.88    0.41
  -4   3 -11   10.67    0.39
  -4   3 -11   10.47    0.40
   4  -3  11   10.22    0.39
  -5   3 -11    0.80    0.14
  -5   3 -11    0.75    0.13
  -5   3 -11    0.87    0.14
  -5   3 -11    0.82    0.15
   5  -3  11    0.89    0.14
  -6   3 -11    0.12    0.09
  -6   3 -11    0.08    0.08
  -6   3 -11    0.22    0.10
  -6   3 -11   -0.04    0.07
   6  -3  11    0.03    0.07
  -7   3 -11    0.10    0.09
  -7   3 -11    0.02    0.09
  -7   3 -11    0.10    0.09
   7  -3  11    0.04    0.09
  -8   3 -11    0.12    0.10
  -8   3 -11    0.00    0.09
   8  -3  11    0.08    0.09
  -9  -2  11    0.01    0.08
  -8  -2  11    1.32    0.17
  -8  -2  11    1.26    0.16
  -8  -2  11    1.46    0.19
  -7  -2  11   -0.03    0.06
  -7  -2  11    0.03    0.07
  -7  -2  11    0.01    0.06
  -7  -2  11   -0.04    0.06
  -6  -2  11    5.94    0.27
  -6  -2  11    6.30    0.29
  -6  -2  11    6.09    0.26
  -6  -2  11    6.08    0.30
   5   2 -11    2.61    0.15
   5   2 -11    2.72    0.15
  -5  -2  11    3.09    0.16
  -5  -2  11    2.74    0.19
  -5  -2  11    2.93    0.17
  -5  -2  11    2.61    0.16
  -5  -2  11    2.57    0.17
   4   2 -11   14.61    0.41
   4   2 -11   14.53    0.41
  -4  -2  11   14.23    0.47
  -4  -2  11   14.39    0.41
  -4  -2  11   14.79    0.40
  -4  -2  11   13.53    0.42
  -4  -2  11   14.36    0.41
   3   2 -11    0.56    0.09
   3   2 -11    0.64    0.10
   3   2 -11    0.89    0.07
  -3  -2  11    0.52    0.08
  -3  -2  11    0.57    0.09
  -3  -2  11    0.58    0.08
  -3  -2  11    0.51    0.09
   2   2 -11    1.24    0.10
   2   2 -11    1.14    0.13
   2   2 -11    1.12    0.12
   2   2 -11    1.06    0.12
  -2  -2  11    1.54    0.12
  -2  -2  11    1.21    0.13
  -2  -2  11    1.21    0.09
  -2  -2  11    1.27    0.09
   1   2 -11    3.99    0.21
   1   2 -11    3.94    0.21
   1   2 -11    3.94    0.22
   1   2 -11    4.16    0.18
  -1  -2  11    3.97    0.14
  -1  -2  11    4.07    0.20
  -1  -2  11    3.95    0.19
  -1  -2  11    4.24    0.13
   0   2 -11    6.66    0.28
   0   2 -11    7.25    0.26
   0   2 -11    7.17    0.29
   0   2 -11    7.46    0.31
   0  -2  11    7.81    0.29
  -1   2 -11    1.32    0.13
  -1   2 -11    1.07    0.13
  -1   2 -11    1.33    0.15
  -1   2 -11    1.37    0.15
   1  -2  11    1.39    0.15
  -2   2 -11    4.86    0.25
  -2   2 -11    5.23    0.27
  -2   2 -11    5.18    0.25
   2  -2  11    4.58    0.24
  -3   2 -11    0.41    0.11
  -3   2 -11    0.35    0.10
  -3   2 -11    0.28    0.09
   3  -2  11    0.22    0.09
  -4   2 -11    7.45    0.33
  -4   2 -11    7.50    0.33
  -4   2 -11    7.24    0.35
   4  -2  11    7.40    0.33
  -5   2 -11    3.18    0.22
  -5   2 -11    3.36    0.21
  -5   2 -11    2.62    0.22
  -5   2 -11    3.16    0.23
   5  -2  11    3.39    0.23
  -6   2 -11    0.08    0.08
  -6   2 -11    0.24    0.09
  -6   2 -11    0.18    0.10
  -6   2 -11    0.23    0.11
   6  -2  11    0.11    0.09
  -7   2 -11    1.21    0.18
  -7   2 -11    1.23    0.17
   7  -2  11    1.24    0.18
  -8   2 -11    0.56    0.14
  -8   2 -11    0.30    0.11
  -9  -1  11    1.94    0.21
  -9  -1  11    2.16    0.22
  -8  -1  11    4.00    0.27
  -8  -1  11    4.04    0.27
  -8  -1  11    4.66    0.27
  -8  -1  11    4.35    0.25
  -7  -1  11    0.50    0.11
  -7  -1  11    0.46    0.11
  -7  -1  11    0.58    0.12
  -7  -1  11    0.48    0.10
  -6  -1  11    5.06    0.26
  -6  -1  11    5.49    0.25
  -6  -1  11    4.92    0.24
  -6  -1  11    5.05    0.27
   5   1 -11    0.32    0.07
   5   1 -11    0.31    0.07
  -5  -1  11    0.27    0.07
  -5  -1  11    0.39    0.09
  -5  -1  11    0.34    0.09
  -5  -1  11    0.40    0.08
   4   1 -11    2.11    0.14
   4   1 -11    2.46    0.13
   4   1 -11    2.17    0.14
  -4  -1  11    2.25    0.16
  -4  -1  11    2.03    0.13
  -4  -1  11    2.05    0.15
  -4  -1  11    2.25    0.14
  -4  -1  11    2.26    0.13
   3   1 -11    3.29    0.16
   3   1 -11    3.30    0.18
   3   1 -11    3.20    0.17
   3   1 -11    3.72    0.19
  -3  -1  11    3.40    0.15
  -3  -1  11    3.48    0.19
  -3  -1  11    3.44    0.18
  -3  -1  11    3.72    0.20
  -3  -1  11    3.52    0.15
   2   1 -11   33.37    0.76
   2   1 -11   31.31    0.79
   2   1 -11   32.51    0.76
   2   1 -11   32.54    0.73
  -2  -1  11   32.62    0.75
  -2  -1  11   33.55    0.66
  -2  -1  11   32.56    0.77
  -2  -1  11   33.12    0.64
   1   1 -11    9.67    0.33
   1   1 -11    9.62    0.33
   1   1 -11    9.32    0.34
   1   1 -11    9.53    0.31
  -1  -1  11    9.10    0.32
  -1  -1  11    9.19    0.32
   0   1 -11    2.40    0.17
   0   1 -11    2.42    0.17
   0   1 -11    2.34    0.15
   0   1 -11    2.87    0.19
   0  -1  11    2.36    0.16
  -1   1 -11    7.50    0.29
  -1   1 -11    7.45    0.30
  -1   1 -11    6.42    0.28
  -1   1 -11    7.11    0.31
   1  -1  11    7.59    0.30
  -2   1 -11    0.80    0.12
  -2   1 -11    0.85    0.13
  -2   1 -11    0.56    0.12
  -2   1 -11    0.78    0.12
   2  -1  11    0.70    0.12
  -3   1 -11   14.72    0.51
  -3   1 -11   15.37    0.49
  -3   1 -11   15.45    0.49
   3  -1  11   15.10    0.49
  -4   1 -11    0.04    0.07
  -4   1 -11    0.09    0.08
  -4   1 -11    0.08    0.08
   4  -1  11    0.13    0.08
  -5   1 -11    2.09    0.21
  -5   1 -11    2.42    0.20
  -5   1 -11    2.12    0.23
   5  -1  11    2.13    0.21
  -6   1 -11    1.48    0.19
  -6   1 -11    1.66    0.21
  -6   1 -11    1.40    0.19
   6  -1  11    1.21    0.17
  -7   1 -11    2.28    0.24
  -7   1 -11    2.37    0.24
   7  -1  11    2.36    0.24
  -9   0  11    2.15    0.22
  -9   0  11    2.16    0.22
  -8   0  11    3.14    0.23
  -8   0  11    2.48    0.21
  -8   0  11    2.74    0.20
  -8   0  11    2.63    0.20
  -7   0  11    0.22    0.09
  -7   0  11    0.25    0.10
  -7   0  11    0.11    0.07
  -7   0  11    0.25    0.08
  -6   0  11    4.16    0.22
  -6   0  11    4.21    0.24
  -6   0  11    4.05    0.21
  -6   0  11    4.43    0.25
   5   0 -11    3.36    0.17
  -5   0  11    3.47    0.21
  -5   0  11    3.24    0.18
  -5   0  11    3.71    0.22
  -5   0  11    3.37    0.17
   4   0 -11    0.51    0.08
   4   0 -11    0.72    0.10
   4   0 -11    0.69    0.10
   4   0 -11    0.62    0.09
  -4   0  11    0.69    0.09
  -4   0  11    0.62    0.09
  -4   0  11    0.69    0.09
  -4   0  11    0.63    0.11
  -4   0  11    0.59    0.11
   3   0 -11   15.58    0.44
   3   0 -11   16.09    0.44
   3   0 -11   15.59    0.44
   3   0 -11   16.21    0.46
  -3   0  11   15.25    0.47
  -3   0  11   16.55    0.38
  -3   0  11   16.40    0.48
  -3   0  11   16.32    0.44
   2   0 -11    3.78    0.19
   2   0 -11    4.16    0.21
   2   0 -11    4.01    0.20
   2   0 -11    4.11    0.20
  -2   0  11    3.75    0.19
  -2   0  11    3.80    0.20
  -2   0  11    4.10    0.21
   1   0 -11   40.65    0.92
   1   0 -11   40.38    0.92
   1   0 -11   42.45    0.93
   1   0 -11   42.11    0.98
  -1   0  11   40.38    0.92
   0   0 -11   -0.02    0.05
   0   0 -11    0.03    0.05
   0   0 -11    0.12    0.07
   0   0 -11    0.10    0.07
   0   0  11    0.14    0.07
  -1   0 -11    4.22    0.23
  -1   0 -11    4.11    0.22
  -1   0 -11    3.98    0.23
  -1   0 -11    4.09    0.22
   1   0  11    4.07    0.22
  -2   0 -11   11.71    0.41
  -2   0 -11   11.34    0.41
  -2   0 -11   11.88    0.44
  -2   0 -11   11.71    0.41
   2   0  11   11.81    0.41
  -3   0 -11    1.08    0.15
  -3   0 -11    1.26    0.16
  -3   0 -11    1.34    0.16
  -3   0 -11    1.29    0.17
   3   0  11    1.07    0.14
  -4   0 -11    3.76    0.25
  -4   0 -11    4.36    0.25
  -4   0 -11    3.47    0.23
   4   0  11    3.21    0.23
  -5   0 -11    1.48    0.18
  -5   0 -11    1.37    0.18
  -5   0 -11    1.26    0.18
   5   0  11    1.48    0.19
  -6   0 -11    0.96    0.17
  -6   0 -11    1.20    0.18
   6   0  11    0.84    0.15
  -7   0 -11    0.80    0.16
  -7   0 -11    0.48    0.13
   7   0  11    0.83    0.16
  -9   1  11   -0.05    0.07
  -9   1  11   -0.06    0.08
  -8   1  11    1.73    0.19
  -8   1  11    1.80    0.21
  -8   1  11    1.86    0.21
  -8   1  11    1.71    0.18
  -7   1  11   11.54    0.40
  -7   1  11   11.65    0.40
  -7   1  11   11.09    0.44
  -7   1  11   10.63    0.44
   6  -1 -11    2.51    0.16
  -6   1  11    2.24    0.18
  -6   1  11    2.32    0.16
  -6   1  11    2.28    0.19
   5  -1 -11    2.68    0.17
  -5   1  11    2.75    0.20
  -5   1  11    2.88    0.19
  -5   1  11    2.98    0.16
   4  -1 -11    0.45    0.08
   4  -1 -11    0.49    0.08
   4  -1 -11    0.38    0.08
   4  -1 -11    0.50    0.08
  -4   1  11    0.58    0.10
  -4   1  11    0.46    0.08
  -4   1  11    0.45    0.10
   3  -1 -11   29.19    0.72
   3  -1 -11   29.01    0.69
   3  -1 -11   31.11    0.73
   3  -1 -11   29.98    0.69
  -3   1  11   29.80    0.69
  -3   1  11   29.02    0.72
  -3   1  11   30.42    0.76
   2  -1 -11   20.83    0.57
   2  -1 -11   20.84    0.55
   2  -1 -11   21.23    0.58
   2  -1 -11   21.10    0.55
  -2   1  11   21.71    0.55
  -2   1  11   21.46    0.55
  -2   1  11   21.22    0.59
   1  -1 -11    4.11    0.21
   1  -1 -11    4.43    0.23
   1  -1 -11    3.80    0.21
   1  -1 -11    4.14    0.22
  -1   1  11    3.91    0.21
   0  -1 -11    2.52    0.18
   0  -1 -11    2.68    0.18
   0  -1 -11    2.76    0.19
   0  -1 -11    2.99    0.19
   0   1  11    2.93    0.18
  -1  -1 -11    0.95    0.13
  -1  -1 -11    1.24    0.15
  -1  -1 -11    1.13    0.14
  -1  -1 -11    1.12    0.15
   1   1  11    1.05    0.14
  -2  -1 -11    1.58    0.17
  -2  -1 -11    1.56    0.17
  -2  -1 -11    1.85    0.19
  -2  -1 -11    1.49    0.18
   2   1  11    1.79    0.18
  -3  -1 -11    7.63    0.34
  -3  -1 -11    7.81    0.37
  -3  -1 -11    7.44    0.34
  -3  -1 -11    7.54    0.34
   3   1  11    7.79    0.34
  -4  -1 -11    0.21    0.10
  -4  -1 -11    0.29    0.11
  -4  -1 -11    0.18    0.08
  -4  -1 -11    0.24    0.10
   4   1  11    0.19    0.09
  -5  -1 -11    4.66    0.29
  -5  -1 -11    4.13    0.29
  -5  -1 -11    5.66    0.31
   5   1  11    4.58    0.28
  -6  -1 -11   -0.03    0.08
  -6  -1 -11    0.08    0.10
   6   1  11    0.01    0.09
  -8   2  11   -0.03    0.07
  -8   2  11   -0.10    0.06
   7  -2 -11    0.33    0.09
  -7   2  11    0.39    0.11
  -7   2  11    0.27    0.10
   6  -2 -11    0.75    0.12
  -6   2  11    0.84    0.13
  -6   2  11    0.62    0.13
   5  -2 -11    4.32    0.23
  -5   2  11    4.20    0.23
  -5   2  11    4.04    0.25
   4  -2 -11   21.57    0.60
   4  -2 -11   22.05    0.55
   4  -2 -11   22.37    0.55
   4  -2 -11   22.85    0.57
  -4   2  11   22.18    0.64
  -4   2  11   22.96    0.55
  -4   2  11   21.42    0.59
   3  -2 -11    0.05    0.06
   3  -2 -11   -0.01    0.05
   3  -2 -11    0.06    0.06
   3  -2 -11    0.05    0.06
  -3   2  11    0.05    0.05
  -3   2  11    0.14    0.06
  -3   2  11    0.12    0.07
   2  -2 -11   -0.06    0.05
   2  -2 -11    0.04    0.06
   2  -2 -11    0.05    0.06
   2  -2 -11    0.04    0.06
  -2   2  11    0.02    0.05
  -2   2  11    0.02    0.05
  -2   2  11    0.04    0.05
   1  -2 -11   12.89    0.42
   1  -2 -11   13.32    0.44
   1  -2 -11   12.97    0.42
   1  -2 -11   13.99    0.45
  -1   2  11   13.84    0.38
  -1   2  11   13.23    0.42
   0  -2 -11    2.09    0.18
   0  -2 -11    2.28    0.17
   0  -2 -11    2.32    0.17
   0  -2 -11    2.30    0.17
   0   2  11    2.11    0.13
   0   2  11    2.33    0.17
  -1  -2 -11    9.88    0.40
  -1  -2 -11    9.76    0.38
  -1  -2 -11   10.04    0.39
  -1  -2 -11   10.52    0.39
   1   2  11   10.39    0.38
  -2  -2 -11    0.48    0.11
  -2  -2 -11    0.56    0.12
  -2  -2 -11    0.60    0.12
  -2  -2 -11    0.53    0.12
   2   2  11    0.52    0.11
  -3  -2 -11    0.50    0.12
  -3  -2 -11    0.39    0.11
  -3  -2 -11    0.36    0.11
  -3  -2 -11    0.47    0.11
   3   2  11    0.32    0.10
  -4  -2 -11    1.15    0.17
  -4  -2 -11    0.95    0.16
  -4  -2 -11    1.02    0.16
  -4  -2 -11    1.10    0.17
   4   2  11    1.09    0.17
  -5  -2 -11    0.40    0.12
  -5  -2 -11    0.22    0.10
   5   2  11    0.18    0.10
   8  -3 -11    1.46    0.18
  -8   3  11    1.65    0.20
  -8   3  11    1.44    0.20
   7  -3 -11    1.16    0.15
  -7   3  11    1.25    0.17
  -7   3  11    1.30    0.18
   6  -3 -11    0.02    0.07
  -6   3  11    0.00    0.07
  -6   3  11    0.15    0.07
   5  -3 -11    4.33    0.24
  -5   3  11    4.17    0.26
  -5   3  11    4.34    0.24
   4  -3 -11    0.07    0.05
   4  -3 -11    0.07    0.07
   4  -3 -11    0.03    0.05
   4  -3 -11    0.02    0.06
  -4   3  11    0.02    0.04
  -4   3  11    0.04    0.06
  -4   3  11   -0.05    0.06
   3  -3 -11    4.64    0.22
   3  -3 -11    4.76    0.23
   3  -3 -11    4.44    0.24
   3  -3 -11    4.36    0.22
  -3   3  11    4.75    0.26
  -3   3  11    4.58    0.22
  -3   3  11    4.81    0.22
   2  -3 -11    2.54    0.18
   2  -3 -11    2.56    0.18
   2  -3 -11    2.45    0.17
   2  -3 -11    2.31    0.18
  -2   3  11    2.17    0.18
  -2   3  11    2.59    0.15
  -2   3  11    2.59    0.17
   1  -3 -11    2.98    0.20
   1  -3 -11    3.35    0.21
   1  -3 -11    3.20    0.21
   1  -3 -11    3.14    0.20
  -1   3  11    3.26    0.20
   0  -3 -11    1.16    0.16
   0  -3 -11    1.04    0.14
   0  -3 -11    1.12    0.15
   0  -3 -11    1.09    0.15
   0   3  11    1.12    0.14
  -1  -3 -11   -0.02    0.07
  -1  -3 -11    0.02    0.07
  -1  -3 -11    0.04    0.07
  -1  -3 -11   -0.05    0.06
   1   3  11    0.03    0.07
  -2  -3 -11    9.70    0.42
  -2  -3 -11   10.37    0.41
  -2  -3 -11    9.50    0.41
  -2  -3 -11    9.39    0.39
   2   3  11   10.03    0.41
  -3  -3 -11    0.94    0.16
  -3  -3 -11    0.60    0.13
  -3  -3 -11    0.78    0.14
  -3  -3 -11    0.91    0.15
   3   3  11    0.64    0.14
  -4  -3 -11    0.15    0.10
  -4  -3 -11    0.13    0.10
  -4  -3 -11    0.23    0.11
   4   3  11    0.12    0.09
   8  -4 -11    0.11    0.08
  -8   4  11    0.24    0.10
  -8   4  11    0.22    0.10
   7  -4 -11    5.43    0.30
  -7   4  11    5.11    0.32
  -7   4  11    5.79    0.31
   6  -4 -11    2.95    0.22
  -6   4  11    3.19    0.22
  -6   4  11    2.65    0.22
   5  -4 -11    1.55    0.18
  -5   4  11    1.44    0.16
  -5   4  11    1.26    0.17
   4  -4 -11    6.96    0.33
   4  -4 -11    7.93    0.30
   4  -4 -11    7.99    0.29
  -4   4  11    8.14    0.29
  -4   4  11    8.23    0.31
  -4   4  11    7.94    0.37
   3  -4 -11    3.48    0.20
   3  -4 -11    3.32    0.19
   3  -4 -11    3.17    0.20
   3  -4 -11    3.18    0.22
   3  -4 -11    3.28    0.19
  -3   4  11    3.57    0.18
  -3   4  11    3.23    0.19
  -3   4  11    2.75    0.21
   2  -4 -11    1.78    0.18
   2  -4 -11    1.72    0.17
   2  -4 -11    1.49    0.17
   2  -4 -11    1.56    0.16
  -2   4  11    1.45    0.15
  -2   4  11    1.36    0.17
   1  -4 -11    0.55    0.11
   1  -4 -11    0.62    0.12
   1  -4 -11    0.59    0.12
   1  -4 -11    0.55    0.12
  -1   4  11    0.60    0.12
  -1   4  11    0.75    0.12
   0  -4 -11    0.00    0.07
   0  -4 -11    0.02    0.07
   0  -4 -11   -0.06    0.07
   0  -4 -11    0.00    0.07
   0   4  11    0.05    0.06
   0   4  11    0.01    0.07
  -1  -4 -11    2.11    0.23
  -1  -4 -11    2.31    0.22
  -1  -4 -11    1.67    0.19
  -1  -4 -11    2.07    0.21
   1   4  11    1.97    0.21
   1   4  11    1.96    0.20
  -2  -4 -11   -0.05    0.08
  -2  -4 -11    0.02    0.07
  -2  -4 -11    0.09    0.09
  -2  -4 -11    0.13    0.09
   2   4  11    0.04    0.07
   2   4  11    0.00    0.08
  -3  -4 -11    0.52    0.14
  -3  -4 -11    0.29    0.11
  -3  -4 -11    0.18    0.10
   3   4  11    0.20    0.10
   3   4  11    0.35    0.11
  -4  -4 -11    0.63    0.14
  -4  -4 -11    0.40    0.14
  -4  -4 -11    0.71    0.16
   8  -5 -11    1.22    0.18
  -8   5  11    1.20    0.18
   7  -5 -11    0.02    0.08
  -7   5  11   -0.01    0.08
  -7   5  11    0.02    0.07
   6  -5 -11    2.50    0.21
  -6   5  11    2.75    0.23
  -6   5  11    2.04    0.18
   5  -5 -11    1.19    0.17
  -5   5  11    1.15    0.14
  -5   5  11    0.96    0.17
   4  -5 -11    1.48    0.15
   4  -5 -11    1.69    0.16
   4  -5 -11    1.39    0.18
  -4   5  11    1.54    0.19
   3  -5 -11    3.07    0.21
   3  -5 -11    3.08    0.23
   3  -5 -11    2.41    0.18
   3  -5 -11    3.05    0.20
  -3   5  11    2.59    0.22
  -3   5  11    2.78    0.19
   2  -5 -11    1.99    0.19
   2  -5 -11    1.69    0.18
   2  -5 -11    1.61    0.19
   2  -5 -11    2.08    0.18
  -2   5  11    1.66    0.20
  -2   5  11    1.64    0.18
  -2   5  11    1.60    0.17
   1  -5 -11    4.01    0.26
   1  -5 -11    4.32    0.26
   1  -5 -11    4.66    0.28
   1  -5 -11    4.17    0.25
  -1   5  11    4.60    0.25
  -1   5  11    4.33    0.25
   0  -5 -11    3.61    0.25
   0  -5 -11    3.50    0.26
   0  -5 -11    3.21    0.24
   0  -5 -11    3.19    0.23
   0   5  11    3.72    0.25
   0   5  11    3.73    0.23
  -1  -5 -11    0.09    0.09
  -1  -5 -11    0.06    0.08
  -1  -5 -11    0.04    0.08
  -1  -5 -11   -0.01    0.08
   1   5  11    0.08    0.08
   1   5  11    0.06    0.08
  -2  -5 -11    0.99    0.17
  -2  -5 -11    1.29    0.19
  -2  -5 -11    1.35    0.19
   2   5  11    1.17    0.18
   2   5  11    1.06    0.16
  -3  -5 -11    0.70    0.16
   7  -6 -11    1.97    0.23
   6  -6 -11    1.38    0.19
  -6   6  11    1.58    0.21
   5  -6 -11    0.17    0.10
  -5   6  11    0.16    0.10
   4  -6 -11    5.59    0.32
  -4   6  11    5.51    0.33
   3  -6 -11    0.51    0.13
   3  -6 -11    0.28    0.10
   3  -6 -11    0.03    0.08
   3  -6 -11    0.34    0.10
  -3   6  11    0.36    0.10
  -3   6  11    0.18    0.09
  -3   6  11    0.13    0.07
   2  -6 -11    0.56    0.13
   2  -6 -11    0.88    0.15
   2  -6 -11    0.89    0.15
   2  -6 -11    0.57    0.13
  -2   6  11    0.73    0.14
  -2   6  11    0.94    0.16
  -2   6  11    1.15    0.15
   1  -6 -11   -0.01    0.08
   1  -6 -11    0.01    0.08
   1  -6 -11   -0.01    0.09
  -1   6  11    0.11    0.08
  -1   6  11    0.18    0.10
  -1   6  11   -0.02    0.08
   0  -6 -11    1.94    0.22
   0  -6 -11    1.91    0.22
   0  -6 -11    1.94    0.23
   0   6  11    1.89    0.20
   0   6  11    1.75    0.21
  -1  -6 -11    1.99    0.23
  -1  -6 -11    2.36    0.25
  -1  -6 -11    2.06    0.23
   1   6  11    2.74    0.22
   1   6  11    1.96    0.23
   5  -7 -11    1.64    0.21
   4  -7 -11    0.59    0.15
  -4   7  11    0.60    0.15
   3  -7 -11    1.69    0.19
   3  -7 -11    1.73    0.20
   3  -7 -11    1.28    0.20
  -3   7  11    1.74    0.18
  -3   7  11    1.66    0.22
  -3   7  11    1.66    0.19
   2  -7 -11    0.77    0.15
   2  -7 -11    0.50    0.13
   2  -7 -11    0.69    0.16
  -2   7  11    0.78    0.16
  -2   7  11    0.74    0.14
  -2   7  11    0.68    0.13
   1  -7 -11    2.40    0.24
   1  -7 -11    2.51    0.27
   1  -7 -11    2.06    0.22
  -1   7  11    2.09    0.22
  -1   7  11    1.73    0.23
  -1   7  11    2.16    0.22
   0   7  11    0.37    0.12
   3  -8 -11    0.18    0.11
  -3  11 -12    1.05    0.26
   2  10 -12    0.04    0.10
   2  10 -12    0.02    0.11
  -2 -10  12    0.02    0.09
   1  10 -12    0.15    0.11
   1  10 -12    0.09    0.10
   1  10 -12    0.27    0.12
  -1 -10  12    0.09    0.10
   0  10 -12    0.90    0.17
   0  10 -12    1.08    0.18
   0 -10  12    1.07    0.17
  -1  10 -12    0.02    0.09
  -1  10 -12    0.08    0.11
  -1  10 -12   -0.06    0.09
   1 -10  12   -0.02    0.08
  -2  10 -12    0.07    0.10
  -2  10 -12    0.07    0.09
  -2  10 -12    0.55    0.16
  -2  10 -12    0.24    0.11
   2 -10  12    0.15    0.10
  -3  10 -12    0.06    0.10
  -3  10 -12    0.29    0.14
  -3  10 -12    0.10    0.10
  -3  10 -12    0.06    0.09
   3 -10  12    0.00    0.09
  -4  10 -12    2.12    0.30
  -4  10 -12    1.19    0.19
   4   9 -12    0.93    0.17
   4   9 -12    0.50    0.13
  -4  -9  12    0.72    0.15
  -4  -9  12    0.54    0.12
   3   9 -12    0.35    0.12
   3   9 -12    0.17    0.11
   3   9 -12    0.22    0.12
  -3  -9  12    0.22    0.11
   2   9 -12    2.95    0.24
   2   9 -12    2.88    0.23
   2   9 -12    2.90    0.24
  -2  -9  12    2.66    0.25
   1   9 -12    1.42    0.19
   1   9 -12    1.48    0.20
   1   9 -12    1.29    0.19
   1   9 -12    1.59    0.20
  -1  -9  12    1.68    0.20
   0   9 -12    0.85    0.16
   0   9 -12    0.80    0.15
   0   9 -12    0.54    0.14
   0  -9  12    0.96    0.16
  -1   9 -12    0.74    0.19
  -1   9 -12    0.22    0.11
  -1   9 -12    0.29    0.11
  -1   9 -12    0.44    0.13
   1  -9  12    0.57    0.13
  -2   9 -12    0.28    0.11
  -2   9 -12    0.12    0.10
  -2   9 -12    0.55    0.17
   2  -9  12    0.09    0.09
  -3   9 -12    3.49    0.26
  -3   9 -12    4.10    0.41
  -3   9 -12    3.39    0.26
   3  -9  12    3.50    0.26
  -4   9 -12    0.32    0.12
  -4   9 -12    0.31    0.12
   4  -9  12    0.42    0.13
  -5   9 -12    0.93    0.17
  -5   9 -12    1.02    0.17
   5  -9  12    1.25    0.19
   5   8 -12    0.64    0.14
   5   8 -12    0.97    0.17
  -5  -8  12    0.53    0.13
  -5  -8  12    0.74    0.15
  -5  -8  12    0.75    0.15
   4   8 -12   -0.01    0.09
   4   8 -12    0.00    0.08
   4   8 -12    0.02    0.09
  -4  -8  12    0.10    0.08
  -4  -8  12    0.08    0.08
   3   8 -12    0.48    0.13
   3   8 -12    0.70    0.14
   3   8 -12    0.64    0.14
  -3  -8  12    0.81    0.14
   2   8 -12    0.31    0.11
   2   8 -12    0.14    0.09
   2   8 -12    0.14    0.09
  -2  -8  12    0.19    0.09
   1   8 -12    2.47    0.21
   1   8 -12    2.52    0.21
   1   8 -12    3.03    0.23
  -1  -8  12    2.55    0.21
   0   8 -12    0.11    0.10
   0   8 -12   -0.01    0.08
   0  -8  12    0.18    0.09
  -1   8 -12    4.00    0.27
  -1   8 -12    5.14    0.40
  -1   8 -12    4.39    0.27
   1  -8  12    4.26    0.27
  -2   8 -12    3.15    0.34
  -2   8 -12    2.05    0.22
  -2   8 -12    1.96    0.22
   2  -8  12    2.13    0.22
  -3   8 -12    0.46    0.13
  -3   8 -12    0.82    0.15
   3  -8  12    0.74    0.15
  -4   8 -12    1.63    0.20
  -4   8 -12    2.05    0.22
   4  -8  12    2.25    0.23
  -5   8 -12    1.59    0.21
  -5   8 -12    1.49    0.20
   5  -8  12    1.31    0.19
  -6   8 -12    0.20    0.11
  -6   8 -12    0.30    0.12
   6  -8  12    0.33    0.12
  -6  -7  12    0.02    0.08
  -6  -7  12   -0.02    0.08
  -6  -7  12   -0.02    0.07
   5   7 -12    0.99    0.16
   5   7 -12    1.49    0.19
   5   7 -12    1.37    0.17
  -5  -7  12    1.34    0.18
  -5  -7  12    1.53    0.20
  -5  -7  12    1.43    0.19
   4   7 -12    0.08    0.08
   4   7 -12    0.05    0.08
   4   7 -12    0.05    0.09
   4   7 -12    0.01    0.07
  -4  -7  12   -0.08    0.06
  -4  -7  12    0.10    0.08
   3   7 -12    2.04    0.21
   3   7 -12    2.37    0.20
   3   7 -12    2.63    0.21
   3   7 -12    2.13    0.23
  -3  -7  12    2.57    0.20
   2   7 -12    2.29    0.22
   2   7 -12    1.98    0.23
   2   7 -12    1.88    0.20
   2   7 -12    1.95    0.21
  -2  -7  12    1.98    0.20
   1   7 -12    1.50    0.20
   1   7 -12    1.56    0.18
   1   7 -12    1.52    0.19
  -1  -7  12    1.97    0.20
   0   7 -12    0.29    0.11
   0   7 -12    0.36    0.10
   0   7 -12    0.20    0.11
   0   7 -12    0.45    0.13
   0  -7  12    0.25    0.09
  -1   7 -12    2.36    0.20
  -1   7 -12    2.13    0.21
  -1   7 -12    2.08    0.23
   1  -7  12    2.26    0.22
  -2   7 -12    5.24    0.33
  -2   7 -12    5.30    0.29
  -2   7 -12    5.20    0.29
   2  -7  12    5.24    0.29
  -3   7 -12    4.38    0.27
  -3   7 -12    4.30    0.27
   3  -7  12    3.96    0.26
  -4   7 -12    2.16    0.22
  -4   7 -12    2.10    0.22
   4  -7  12    2.24    0.23
  -5   7 -12    1.06    0.17
  -5   7 -12    1.01    0.17
   5  -7  12    0.99    0.16
  -6   7 -12    0.92    0.18
  -6   7 -12    1.12    0.17
  -6   7 -12    1.02    0.17
   6  -7  12    1.01    0.17
  -7   7 -12    0.54    0.14
  -7   7 -12    0.49    0.13
   7  -7  12    0.45    0.13
  -6  -6  12    0.35    0.10
  -6  -6  12    0.66    0.13
  -6  -6  12    0.33    0.11
   5   6 -12    0.10    0.08
   5   6 -12    0.29    0.10
   5   6 -12    0.21    0.09
  -5  -6  12    0.25    0.09
  -5  -6  12    0.07    0.08
  -5  -6  12    0.16    0.08
  -5  -6  12    0.14    0.08
   4   6 -12    3.91    0.26
   4   6 -12    4.07    0.25
   4   6 -12    3.93    0.23
   4   6 -12    4.00    0.24
   4   6 -12    3.42    0.23
  -4  -6  12    4.20    0.24
  -4  -6  12    4.13    0.24
  -4  -6  12    4.14    0.26
   3   6 -12    0.33    0.11
   3   6 -12    0.52    0.11
   3   6 -12    0.39    0.10
   3   6 -12    0.54    0.12
  -3  -6  12    0.36    0.10
   2   6 -12    1.25    0.16
   2   6 -12    1.27    0.16
   2   6 -12    1.49    0.19
  -2  -6  12    1.32    0.16
   1   6 -12    8.58    0.35
   1   6 -12    8.13    0.35
   1   6 -12    7.90    0.38
  -1  -6  12    8.41    0.35
   0   6 -12    4.18    0.28
   0   6 -12    4.28    0.25
   0   6 -12    4.16    0.25
   0  -6  12    4.44    0.25
  -1   6 -12   15.13    0.51
  -1   6 -12   15.08    0.51
   1  -6  12   15.55    0.51
  -2   6 -12    3.73    0.24
  -2   6 -12    3.83    0.24
   2  -6  12    3.41    0.23
  -3   6 -12    0.72    0.13
  -3   6 -12    0.65    0.13
   3  -6  12    0.78    0.14
  -4   6 -12    0.81    0.14
  -4   6 -12    0.74    0.14
   4  -6  12    0.64    0.13
  -5   6 -12    0.20    0.11
  -5   6 -12    0.35    0.11
  -5   6 -12    0.38    0.11
   5  -6  12    0.41    0.12
  -6   6 -12    1.90    0.21
  -6   6 -12    1.40    0.18
  -6   6 -12    1.85    0.23
   6  -6  12    1.32    0.18
  -7   6 -12    2.74    0.26
  -7   6 -12    2.58    0.25
   7  -6  12    2.84    0.24
  -7  -5  12    0.86    0.15
  -7  -5  12    0.61    0.14
  -7  -5  12    0.91    0.15
  -6  -5  12    0.92    0.15
  -6  -5  12    0.85    0.13
  -6  -5  12    1.02    0.16
   5   5 -12    0.03    0.06
   5   5 -12    0.11    0.07
   5   5 -12    0.08    0.07
  -5  -5  12    0.02    0.07
  -5  -5  12    0.13    0.07
  -5  -5  12    0.08    0.07
  -5  -5  12   -0.01    0.06
   4   5 -12    0.58    0.12
   4   5 -12    0.45    0.11
   4   5 -12    0.49    0.11
   4   5 -12    0.48    0.11
  -4  -5  12    0.53    0.11
  -4  -5  12    0.50    0.09
  -4  -5  12    0.66    0.11
  -4  -5  12    0.52    0.11
   3   5 -12   12.01    0.42
   3   5 -12   12.36    0.47
   3   5 -12   12.05    0.41
  -3  -5  12   12.06    0.41
  -3  -5  12   11.45    0.35
   2   5 -12   15.28    0.48
   2   5 -12   14.41    0.47
   2   5 -12   14.80    0.53
  -2  -5  12   14.66    0.47
   1   5 -12    1.93    0.21
   1   5 -12    1.77    0.18
   1   5 -12    1.54    0.17
  -1  -5  12    1.35    0.16
   0   5 -12    2.99    0.20
   0   5 -12    3.34    0.22
   0  -5  12    2.53    0.19
  -1   5 -12    5.11    0.27
  -1   5 -12    5.15    0.27
   1  -5  12    4.72    0.26
  -2   5 -12    3.25    0.22
  -2   5 -12    2.66    0.21
  -2   5 -12    2.72    0.20
   2  -5  12    2.79    0.20
  -3   5 -12   11.26    0.42
  -3   5 -12   10.72    0.44
  -3   5 -12   11.26    0.43
   3  -5  12   11.07    0.42
  -4   5 -12    0.00    0.07
  -4   5 -12   -0.07    0.07
  -4   5 -12    0.09    0.08
   4  -5  12    0.12    0.08
  -5   5 -12    0.01    0.07
  -5   5 -12    0.15    0.10
  -5   5 -12   -0.02    0.08
   5  -5  12   -0.02    0.07
  -6   5 -12    0.12    0.09
  -6   5 -12   -0.07    0.08
  -6   5 -12    0.01    0.09
   6  -5  12    0.00    0.08
  -7   5 -12    0.99    0.17
  -7   5 -12    0.95    0.18
  -7   5 -12    1.07    0.17
   7  -5  12    0.87    0.15
  -8  -4  12   -0.03    0.07
  -8  -4  12    0.05    0.08
  -7  -4  12    0.42    0.11
  -7  -4  12    0.33    0.11
  -7  -4  12    0.28    0.10
  -6  -4  12    0.64    0.12
  -6  -4  12    0.83    0.13
  -6  -4  12    0.55    0.13
   5   4 -12    8.31    0.33
   5   4 -12    8.16    0.31
   5   4 -12    7.94    0.31
  -5  -4  12    7.12    0.35
  -5  -4  12    8.57    0.32
  -5  -4  12    7.94    0.31
  -5  -4  12    8.23    0.33
   4   4 -12   10.96    0.38
   4   4 -12   11.61    0.39
   4   4 -12   11.17    0.42
  -4  -4  12   11.00    0.43
  -4  -4  12   10.82    0.37
  -4  -4  12   11.40    0.38
  -4  -4  12   10.87    0.35
  -4  -4  12   11.25    0.35
   3   4 -12    4.70    0.24
   3   4 -12    4.53    0.24
   3   4 -12    4.63    0.26
  -3  -4  12    4.80    0.20
  -3  -4  12    4.54    0.21
  -3  -4  12    4.71    0.23
  -3  -4  12    4.54    0.20
   2   4 -12    2.15    0.17
   2   4 -12    1.98    0.16
  -2  -4  12    1.96    0.12
  -2  -4  12    1.91    0.16
  -2  -4  12    2.08    0.12
   1   4 -12    1.57    0.16
   1   4 -12    1.50    0.16
  -1  -4  12    1.54    0.16
  -1  -4  12    1.53    0.11
   0   4 -12    0.92    0.14
   0   4 -12    0.88    0.13
   0   4 -12    0.79    0.13
   0  -4  12    0.97    0.13
   0  -4  12    0.93    0.10
  -1   4 -12    7.33    0.31
  -1   4 -12    7.40    0.33
  -1   4 -12    7.56    0.32
   1  -4  12    7.14    0.31
  -2   4 -12    1.69    0.18
  -2   4 -12    1.78    0.19
  -2   4 -12    1.80    0.18
   2  -4  12    2.05    0.19
  -3   4 -12    0.34    0.11
  -3   4 -12    0.50    0.11
  -3   4 -12    0.69    0.13
   3  -4  12    0.67    0.12
  -4   4 -12    5.19    0.28
  -4   4 -12    5.17    0.30
  -4   4 -12    5.29    0.28
   4  -4  12    5.26    0.28
  -5   4 -12    0.32    0.11
  -5   4 -12    0.43    0.13
  -5   4 -12    0.27    0.10
   5  -4  12    0.51    0.12
  -6   4 -12    5.63    0.32
  -6   4 -12    5.46    0.31
  -6   4 -12    5.31    0.30
   6  -4  12    5.45    0.31
  -7   4 -12    0.04    0.08
  -7   4 -12   -0.02    0.09
  -7   4 -12    0.05    0.10
   7  -4  12   -0.02    0.09
  -8  -3  12    0.17    0.09
  -8  -3  12    0.05    0.08
  -8  -3  12    0.19    0.09
  -7  -3  12    1.82    0.18
  -7  -3  12    1.64    0.20
  -7  -3  12    1.50    0.18
  -6  -3  12    0.47    0.10
  -6  -3  12    0.52    0.12
  -6  -3  12    0.51    0.10
  -6  -3  12    0.59    0.11
   5   3 -12    0.03    0.06
   5   3 -12    0.11    0.07
  -5  -3  12    0.04    0.05
  -5  -3  12    0.08    0.06
  -5  -3  12    0.01    0.06
  -5  -3  12    0.06    0.06
   4   3 -12    1.54    0.16
   4   3 -12    1.54    0.15
   4   3 -12    1.78    0.14
  -4  -3  12    1.43    0.13
  -4  -3  12    1.51    0.15
  -4  -3  12    1.47    0.17
  -4  -3  12    1.54    0.15
  -4  -3  12    1.24    0.13
   3   3 -12   17.29    0.50
   3   3 -12   17.83    0.50
  -3  -3  12   16.80    0.47
  -3  -3  12   17.77    0.43
  -3  -3  12   16.36    0.49
  -3  -3  12   18.07    0.46
   2   3 -12    0.45    0.07
   2   3 -12    0.41    0.10
   2   3 -12    0.52    0.10
  -2  -3  12    0.62    0.07
  -2  -3  12    0.63    0.11
  -2  -3  12    0.62    0.08
  -2  -3  12    0.53    0.08
   1   3 -12    3.67    0.21
   1   3 -12    4.00    0.18
   1   3 -12    3.63    0.21
   1   3 -12    4.06    0.23
  -1  -3  12    3.97    0.18
  -1  -3  12    3.60    0.21
   0   3 -12   12.77    0.42
   0   3 -12   12.06    0.41
   0   3 -12   12.48    0.44
   0  -3  12   11.83    0.36
   0  -3  12   13.02    0.42
  -1   3 -12    0.03    0.08
  -1   3 -12   -0.03    0.07
  -1   3 -12    0.09    0.07
   1  -3  12    0.04    0.07
  -2   3 -12    9.49    0.39
  -2   3 -12    9.33    0.37
  -2   3 -12    9.12    0.36
   2  -3  12    9.38    0.37
  -3   3 -12    0.11    0.08
  -3   3 -12    0.18    0.09
  -3   3 -12    0.13    0.08
   3  -3  12    0.11    0.08
  -4   3 -12    0.61    0.12
  -4   3 -12    0.63    0.13
  -4   3 -12    0.56    0.13
   4  -3  12    0.65    0.13
  -5   3 -12    0.92    0.16
  -5   3 -12    0.57    0.13
  -5   3 -12    0.63    0.14
   5  -3  12    0.66    0.13
  -6   3 -12    3.04    0.23
  -6   3 -12    3.14    0.24
  -6   3 -12    3.16    0.24
   6  -3  12    2.75    0.26
  -7   3 -12    0.35    0.12
  -7   3 -12    0.27    0.12
   7  -3  12    0.55    0.14
  -8  -2  12    0.22    0.09
  -8  -2  12    0.08    0.08
  -8  -2  12    0.15    0.09
  -7  -2  12    1.73    0.18
  -7  -2  12    1.33    0.18
  -7  -2  12    1.68    0.19
  -7  -2  12    1.74    0.18
  -6  -2  12    0.09    0.07
  -6  -2  12    0.02    0.06
  -6  -2  12    0.06    0.07
  -6  -2  12    0.15    0.07
   5   2 -12    0.64    0.10
   5   2 -12    0.73    0.10
  -5  -2  12    0.73    0.10
  -5  -2  12    0.65    0.12
  -5  -2  12    0.76    0.11
  -5  -2  12    0.59    0.11
   4   2 -12   12.59    0.39
   4   2 -12   12.83    0.39
  -4  -2  12   12.54    0.39
  -4  -2  12   11.83    0.40
  -4  -2  12   12.62    0.45
  -4  -2  12   13.58    0.37
  -4  -2  12   12.85    0.38
   3   2 -12    0.55    0.10
   3   2 -12    0.72    0.09
   3   2 -12    0.68    0.11
   3   2 -12    0.73    0.11
  -3  -2  12    0.70    0.09
  -3  -2  12    0.75    0.11
  -3  -2  12    0.53    0.10
  -3  -2  12    0.61    0.08
   2   2 -12    9.10    0.34
   2   2 -12    9.74    0.30
   2   2 -12    9.87    0.36
   2   2 -12    9.08    0.33
  -2  -2  12    9.50    0.25
  -2  -2  12    9.39    0.33
  -2  -2  12    9.54    0.32
   1   2 -12    0.87    0.13
   1   2 -12    0.75    0.10
   1   2 -12    0.77    0.12
   1   2 -12    1.05    0.13
  -1  -2  12    0.86    0.11
  -1  -2  12    0.73    0.11
   0   2 -12    7.51    0.29
   0   2 -12    8.08    0.32
   0   2 -12    7.92    0.33
   0   2 -12    7.79    0.32
   0  -2  12    7.73    0.31
  -1   2 -12   18.64    0.55
  -1   2 -12   17.71    0.54
  -1   2 -12   18.81    0.58
  -1   2 -12   17.95    0.52
   1  -2  12   19.15    0.55
  -2   2 -12    0.64    0.13
  -2   2 -12    0.74    0.13
  -2   2 -12    0.69    0.12
   2  -2  12    0.74    0.12
  -3   2 -12    4.37    0.27
  -3   2 -12    3.93    0.24
  -3   2 -12    3.82    0.24
   3  -2  12    4.13    0.24
  -4   2 -12    0.33    0.11
  -4   2 -12    0.37    0.11
  -4   2 -12    0.58    0.12
   4  -2  12    0.49    0.11
  -5   2 -12    0.08    0.09
  -5   2 -12   -0.01    0.07
  -5   2 -12    0.06    0.08
  -5   2 -12    0.04    0.09
   5  -2  12    0.11    0.09
  -6   2 -12    1.34    0.18
  -6   2 -12    0.98    0.17
   6  -2  12    1.22    0.18
  -7   2 -12    1.05    0.18
  -7   2 -12    0.87    0.17
   7  -2  12    1.08    0.17
  -9  -1  12    0.83    0.15
  -8  -1  12    3.46    0.23
  -8  -1  12    3.43    0.25
  -8  -1  12    3.95    0.25
  -8  -1  12    3.10    0.25
  -7  -1  12    0.78    0.14
  -7  -1  12    0.69    0.12
  -7  -1  12    0.70    0.14
  -7  -1  12    0.54    0.11
  -6  -1  12    7.01    0.34
  -6  -1  12    6.65    0.28
  -6  -1  12    7.42    0.29
  -6  -1  12    6.64    0.32
  -5  -1  12    1.24    0.13
  -5  -1  12    1.35    0.16
  -5  -1  12    1.35    0.16
  -5  -1  12    1.50    0.12
   4   1 -12    3.11    0.17
   4   1 -12    2.91    0.17
   4   1 -12    3.01    0.16
  -4  -1  12    2.97    0.16
  -4  -1  12    3.00    0.17
  -4  -1  12    2.93    0.15
  -4  -1  12    3.27    0.21
  -4  -1  12    3.23    0.20
   3   1 -12    8.12    0.30
   3   1 -12    8.36    0.28
   3   1 -12    8.49    0.32
   3   1 -12    8.18    0.31
  -3  -1  12    8.35    0.32
  -3  -1  12    8.40    0.26
  -3  -1  12    8.79    0.31
  -3  -1  12    8.85    0.34
   2   1 -12    4.50    0.23
   2   1 -12    3.96    0.19
   2   1 -12    4.36    0.22
   2   1 -12    3.71    0.21
  -2  -1  12    4.07    0.21
  -2  -1  12    4.55    0.22
   1   1 -12   15.11    0.44
   1   1 -12   15.64    0.47
   1   1 -12   14.45    0.47
   1   1 -12   14.77    0.45
  -1  -1  12   14.54    0.45
  -1  -1  12   14.92    0.45
   0   1 -12    1.67    0.17
   0   1 -12    1.68    0.14
   0   1 -12    1.66    0.18
   0   1 -12    1.46    0.16
   0  -1  12    1.50    0.15
  -1   1 -12    3.74    0.23
  -1   1 -12    3.79    0.22
  -1   1 -12    3.44    0.20
  -1   1 -12    3.67    0.22
   1  -1  12    3.72    0.22
  -2   1 -12    5.20    0.28
  -2   1 -12    5.26    0.27
  -2   1 -12    4.64    0.25
  -2   1 -12    4.49    0.25
   2  -1  12    5.02    0.26
  -3   1 -12    0.07    0.08
  -3   1 -12    0.15    0.08
  -3   1 -12    0.06    0.07
   3  -1  12    0.09    0.08
  -4   1 -12    3.47    0.24
  -4   1 -12    3.62    0.24
  -4   1 -12    3.76    0.26
   4  -1  12    3.52    0.24
  -5   1 -12    4.71    0.29
  -5   1 -12    4.34    0.27
  -5   1 -12    3.78    0.28
   5  -1  12    4.82    0.28
  -6   1 -12    1.93    0.22
  -6   1 -12    1.76    0.21
   6  -1  12    1.59    0.21
  -9   0  12    0.04    0.08
  -8   0  12    0.42    0.11
  -8   0  12    0.21    0.09
  -8   0  12    0.46    0.12
  -8   0  12    0.32    0.11
  -7   0  12    2.30    0.23
  -7   0  12    2.22    0.17
  -7   0  12    2.21    0.23
  -7   0  12    2.01    0.17
  -6   0  12    1.28    0.17
  -6   0  12    1.41    0.17
  -6   0  12    1.49    0.15
  -6   0  12    1.25    0.14
   5   0 -12   11.15    0.35
  -5   0  12   11.16    0.35
  -5   0  12   11.30    0.42
  -5   0  12   12.06    0.43
   4   0 -12    1.96    0.14
   4   0 -12    1.73    0.14
   4   0 -12    1.61    0.13
   4   0 -12    1.67    0.14
  -4   0  12    1.56    0.17
  -4   0  12    1.90    0.14
  -4   0  12    1.54    0.16
   3   0 -12    0.28    0.08
   3   0 -12    0.44    0.09
   3   0 -12    0.46    0.09
   3   0 -12    0.28    0.07
  -3   0  12    0.40    0.09
  -3   0  12    0.29    0.08
  -3   0  12    0.36    0.09
   2   0 -12   14.10    0.43
   2   0 -12   14.50    0.45
   2   0 -12   14.09    0.43
   2   0 -12   13.28    0.41
  -2   0  12   14.54    0.45
  -2   0  12   13.72    0.43
  -2   0  12   13.19    0.42
   1   0 -12    0.11    0.06
   1   0 -12    0.04    0.06
   1   0 -12    0.16    0.08
   1   0 -12    0.06    0.07
  -1   0  12    0.04    0.06
  -1   0  12    0.02    0.06
   0   0 -12    7.43    0.31
   0   0 -12    7.72    0.32
   0   0 -12    7.75    0.31
   0   0 -12    7.95    0.34
   0   0  12    8.13    0.32
  -1   0 -12    6.47    0.30
  -1   0 -12    6.78    0.32
  -1   0 -12    6.35    0.29
  -1   0 -12    6.48    0.30
   1   0  12    6.68    0.30
  -2   0 -12    0.05    0.07
  -2   0 -12   -0.01    0.07
  -2   0 -12   -0.07    0.06
  -2   0 -12    0.01    0.07
   2   0  12   -0.02    0.06
  -3   0 -12    0.72    0.14
  -3   0 -12    0.93    0.14
  -3   0 -12    0.88    0.14
  -3   0 -12    0.76    0.14
   3   0  12    0.91    0.14
  -4   0 -12    0.02    0.09
  -4   0 -12    0.04    0.08
  -4   0 -12   -0.09    0.07
   4   0  12    0.06    0.08
  -5   0 -12    2.54    0.25
  -5   0 -12    2.84    0.23
   5   0  12    2.49    0.25
  -6   0 -12    0.37    0.13
  -6   0 -12    0.44    0.14
   6   0  12    0.41    0.13
  -8   1  12    0.80    0.15
  -8   1  12    0.93    0.16
  -8   1  12    0.75    0.13
  -7   1  12    0.16    0.09
  -7   1  12    0.27    0.09
   6  -1 -12    1.89    0.15
  -6   1  12    1.77    0.19
  -6   1  12    1.79    0.20
   5  -1 -12    1.23    0.14
  -5   1  12    0.77    0.13
  -5   1  12    0.89    0.14
   4  -1 -12    4.62    0.21
   4  -1 -12    4.62    0.21
   4  -1 -12    4.00    0.20
   4  -1 -12    4.50    0.22
  -4   1  12    4.61    0.21
  -4   1  12    4.31    0.23
  -4   1  12    4.62    0.25
   3  -1 -12   -0.02    0.05
   3  -1 -12    0.07    0.07
   3  -1 -12    0.02    0.06
   3  -1 -12    0.02    0.05
  -3   1  12   -0.01    0.05
  -3   1  12    0.06    0.06
  -3   1  12    0.07    0.06
   2  -1 -12   10.69    0.37
   2  -1 -12   10.85    0.39
   2  -1 -12   11.22    0.38
   2  -1 -12   11.20    0.38
  -2   1  12   11.04    0.37
  -2   1  12   11.71    0.41
  -2   1  12   10.83    0.37
   1  -1 -12    5.51    0.26
   1  -1 -12    5.03    0.26
   1  -1 -12    5.59    0.26
   1  -1 -12    5.80    0.27
  -1   1  12    5.65    0.26
  -1   1  12    5.68    0.24
   0  -1 -12    6.38    0.31
   0  -1 -12    5.99    0.28
   0  -1 -12    6.84    0.30
   0  -1 -12    6.50    0.29
   0   1  12    6.38    0.29
  -1  -1 -12    8.20    0.36
  -1  -1 -12    7.64    0.33
  -1  -1 -12    7.69    0.34
  -1  -1 -12    7.87    0.34
   1   1  12    7.70    0.33
  -2  -1 -12    0.70    0.14
  -2  -1 -12    0.55    0.12
  -2  -1 -12    0.64    0.13
  -2  -1 -12    0.47    0.12
   2   1  12    0.53    0.12
  -3  -1 -12    1.46    0.19
  -3  -1 -12    1.64    0.19
  -3  -1 -12    1.16    0.17
  -3  -1 -12    1.23    0.17
   3   1  12    1.30    0.17
  -4  -1 -12    3.35    0.26
  -4  -1 -12    3.19    0.24
  -4  -1 -12    3.05    0.24
  -4  -1 -12    3.16    0.24
   4   1  12    3.14    0.24
  -5  -1 -12    0.07    0.10
  -5  -1 -12    0.01    0.09
   5   1  12    0.20    0.11
  -8   2  12    2.71    0.27
  -8   2  12    2.53    0.25
  -7   2  12    3.70    0.25
  -7   2  12    3.38    0.25
   6  -2 -12    0.55    0.11
  -6   2  12    0.60    0.12
  -6   2  12    0.71    0.14
   5  -2 -12    4.57    0.24
  -5   2  12    4.74    0.28
  -5   2  12    4.62    0.25
   4  -2 -12    1.89    0.14
   4  -2 -12    1.59    0.14
   4  -2 -12    1.99    0.16
  -4   2  12    1.80    0.17
  -4   2  12    2.01    0.14
  -4   2  12    1.55    0.18
   3  -2 -12    1.67    0.16
   3  -2 -12    1.53    0.15
   3  -2 -12    1.68    0.17
   3  -2 -12    1.86    0.16
  -3   2  12    1.41    0.17
  -3   2  12    1.48    0.15
  -3   2  12    1.88    0.14
   2  -2 -12    3.97    0.23
   2  -2 -12    4.09    0.23
   2  -2 -12    3.69    0.21
   2  -2 -12    4.04    0.22
  -2   2  12    4.21    0.21
  -2   2  12    3.76    0.21
  -2   2  12    4.03    0.24
   1  -2 -12    0.07    0.08
   1  -2 -12    0.12    0.08
   1  -2 -12    0.06    0.07
   1  -2 -12    0.08    0.08
  -1   2  12    0.12    0.07
  -1   2  12    0.09    0.05
   0  -2 -12    0.65    0.13
   0  -2 -12    0.59    0.12
   0  -2 -12    0.60    0.12
   0  -2 -12    0.57    0.12
   0   2  12    0.47    0.11
  -1  -2 -12   -0.06    0.07
  -1  -2 -12   -0.01    0.06
  -1  -2 -12    0.10    0.08
  -1  -2 -12    0.01    0.08
   1   2  12    0.04    0.07
  -2  -2 -12    1.86    0.20
  -2  -2 -12    1.58    0.19
  -2  -2 -12    1.31    0.18
  -2  -2 -12    1.58    0.19
   2   2  12    1.75    0.20
  -3  -2 -12    1.43    0.18
  -3  -2 -12    1.18    0.17
  -3  -2 -12    1.23    0.18
  -3  -2 -12    1.18    0.18
   3   2  12    1.53    0.19
  -4  -2 -12    0.92    0.16
  -4  -2 -12    1.47    0.20
  -4  -2 -12    1.13    0.18
   4   2  12    0.99    0.17
  -8   3  12    0.11    0.09
  -8   3  12    0.00    0.08
   7  -3 -12    2.18    0.18
  -7   3  12    2.38    0.20
  -7   3  12    2.94    0.24
   6  -3 -12    4.35    0.25
  -6   3  12    3.91    0.26
  -6   3  12    3.75    0.24
   5  -3 -12    0.93    0.14
  -5   3  12    1.30    0.18
  -5   3  12    1.05    0.15
   4  -3 -12    3.03    0.21
   4  -3 -12    3.04    0.18
   4  -3 -12    2.90    0.18
  -4   3  12    2.91    0.22
  -4   3  12    2.86    0.19
   3  -3 -12    1.70    0.15
   3  -3 -12    1.88    0.16
   3  -3 -12    1.64    0.18
   3  -3 -12    1.92    0.15
  -3   3  12    1.94    0.15
  -3   3  12    1.90    0.20
  -3   3  12    1.82    0.15
   2  -3 -12    2.91    0.20
   2  -3 -12    2.83    0.21
   2  -3 -12    2.99    0.19
   2  -3 -12    2.59    0.19
  -2   3  12    2.58    0.20
  -2   3  12    3.27    0.17
  -2   3  12    2.57    0.18
   1  -3 -12    5.88    0.30
   1  -3 -12    5.47    0.27
   1  -3 -12    5.66    0.29
   1  -3 -12    5.27    0.27
  -1   3  12    5.68    0.28
   0  -3 -12    0.33    0.10
   0  -3 -12    0.29    0.10
   0  -3 -12    0.03    0.08
   0  -3 -12    0.30    0.10
   0   3  12    0.27    0.09
  -1  -3 -12    2.17    0.21
  -1  -3 -12    1.98    0.22
  -1  -3 -12    2.05    0.21
  -1  -3 -12    1.97    0.20
  -1  -3 -12    2.03    0.21
   1   3  12    1.81    0.20
  -2  -3 -12    0.30    0.12
  -2  -3 -12    0.27    0.10
  -2  -3 -12    0.19    0.10
  -2  -3 -12    0.21    0.10
   2   3  12    0.16    0.09
  -3  -3 -12    1.78    0.22
  -3  -3 -12    1.63    0.20
  -3  -3 -12    1.29    0.19
   3   3  12    1.69    0.21
  -4  -3 -12    1.37    0.20
  -4  -3 -12    0.96    0.17
  -4  -3 -12    1.68    0.22
   4   3  12    1.52    0.20
   8  -4 -12    3.54    0.25
  -8   4  12    3.37    0.25
   7  -4 -12    3.23    0.24
  -7   4  12    3.70    0.28
  -7   4  12    3.75    0.25
   6  -4 -12    0.03    0.08
  -6   4  12   -0.03    0.06
  -6   4  12    0.02    0.08
   5  -4 -12    3.34    0.24
  -5   4  12    3.11    0.21
  -5   4  12    3.00    0.24
   4  -4 -12    0.75    0.14
  -4   4  12    0.69    0.11
  -4   4  12    0.65    0.14
   3  -4 -12    1.04    0.15
   3  -4 -12    0.97    0.13
   3  -4 -12    1.24    0.15
   3  -4 -12    1.06    0.16
  -3   4  12    1.13    0.14
  -3   4  12    0.80    0.15
   2  -4 -12    0.83    0.14
   2  -4 -12    0.82    0.14
   2  -4 -12    1.11    0.15
   2  -4 -12    0.84    0.13
   2  -4 -12    0.77    0.13
  -2   4  12    0.80    0.15
  -2   4  12    0.95    0.14
   1  -4 -12    1.31    0.18
   1  -4 -12    0.94    0.14
   1  -4 -12    1.32    0.18
   1  -4 -12    1.48    0.17
  -1   4  12    0.93    0.14
   0  -4 -12    3.38    0.24
   0  -4 -12    3.77    0.24
   0  -4 -12    3.49    0.25
   0  -4 -12    3.46    0.24
   0   4  12    3.36    0.23
  -1  -4 -12    0.31    0.12
  -1  -4 -12    0.21    0.10
  -1  -4 -12    0.12    0.10
  -1  -4 -12    0.30    0.11
   1   4  12    0.14    0.09
  -2  -4 -12    2.30    0.24
  -2  -4 -12    2.09    0.24
  -2  -4 -12    1.97    0.22
   2   4  12    2.29    0.24
  -3  -4 -12    0.60    0.15
  -3  -4 -12    0.38    0.13
  -3  -4 -12    0.52    0.14
   7  -5 -12    4.34    0.29
  -7   5  12    3.96    0.26
   6  -5 -12    1.15    0.18
  -6   5  12    0.83    0.16
   5  -5 -12   -0.04    0.07
  -5   5  12   -0.04    0.06
   4  -5 -12    4.40    0.29
  -4   5  12    4.52    0.29
   3  -5 -12    0.08    0.08
   3  -5 -12    0.11    0.08
   3  -5 -12    0.07    0.08
   3  -5 -12   -0.06    0.07
   3  -5 -12    0.01    0.07
  -3   5  12   -0.04    0.08
  -3   5  12    0.10    0.08
   2  -5 -12    5.35    0.31
   2  -5 -12    5.32    0.28
   2  -5 -12    5.61    0.30
   2  -5 -12    5.14    0.28
  -2   5  12    5.87    0.29
  -2   5  12    4.75    0.31
   1  -5 -12    0.66    0.14
   1  -5 -12    0.53    0.13
   1  -5 -12    0.40    0.12
   1  -5 -12    0.50    0.12
  -1   5  12    0.38    0.12
  -1   5  12    0.50    0.11
  -1   5  12    0.38    0.12
   0  -5 -12    0.46    0.13
   0  -5 -12    0.31    0.12
   0  -5 -12    0.64    0.14
   0  -5 -12    0.37    0.13
   0   5  12    0.43    0.11
   0   5  12    0.55    0.13
  -1  -5 -12    1.42    0.20
  -1  -5 -12    1.15    0.18
  -1  -5 -12    1.48    0.21
   1   5  12    1.15    0.17
   1   5  12    1.51    0.20
   6  -6 -12    0.25    0.11
   5  -6 -12    0.09    0.09
  -5   6  12    0.03    0.09
   4  -6 -12    0.75    0.15
  -4   6  12    0.50    0.13
   3  -6 -12    4.94    0.27
   3  -6 -12    4.25    0.29
   3  -6 -12    3.96    0.25
  -3   6  12    4.32    0.26
  -3   6  12    4.23    0.30
   2  -6 -12    0.35    0.12
   2  -6 -12    0.34    0.12
   2  -6 -12    0.40    0.12
   2  -6 -12    0.39    0.12
  -2   6  12    0.42    0.12
  -2   6  12    0.37    0.11
  -2   6  12    0.45    0.12
   1  -6 -12    0.77    0.16
   1  -6 -12    0.88    0.16
   1  -6 -12    0.89    0.16
  -1   6  12    0.58    0.15
  -1   6  12    1.00    0.16
  -1   6  12    0.74    0.14
   0  -6 -12    0.18    0.11
   0  -6 -12    0.04    0.10
   0   6  12    0.09    0.10
   3  -7 -12    0.12    0.10
   2  -7 -12    0.89    0.16
   2  -7 -12    0.86    0.16
  -2   7  12    0.95    0.16
  -4  -9  13    0.97    0.17
   3   9 -13    0.91    0.18
   3   9 -13    0.95    0.17
   3   9 -13    1.00    0.18
  -3  -9  13    1.17    0.18
   2   9 -13    0.76    0.16
   2   9 -13    0.48    0.13
   2   9 -13    0.49    0.14
  -2  -9  13    0.55    0.14
   1   9 -13    0.21    0.11
   1   9 -13    0.04    0.10
   1   9 -13    0.02    0.10
  -1  -9  13    0.18    0.10
   0   9 -13   -0.07    0.07
   0   9 -13    0.12    0.10
   0   9 -13   -0.05    0.10
   0  -9  13    0.05    0.09
  -1   9 -13    0.51    0.14
  -1   9 -13    0.46    0.13
   1  -9  13    0.66    0.14
  -2   9 -13    0.85    0.17
  -2   9 -13    0.75    0.16
   2  -9  13    0.87    0.17
  -3   9 -13    1.19    0.19
  -3   9 -13    1.22    0.19
   3  -9  13    1.55    0.21
  -4   9 -13    0.74    0.16
  -4   9 -13    0.99    0.18
   4  -9  13    0.99    0.18
   4   8 -13    1.47    0.20
   4   8 -13    1.12    0.18
   4   8 -13    1.63    0.20
  -4  -8  13    1.35    0.18
  -4  -8  13    1.42    0.19
   3   8 -13    0.54    0.13
   3   8 -13    0.48    0.13
   3   8 -13    0.59    0.13
  -3  -8  13    0.57    0.13
   2   8 -13    0.36    0.12
   2   8 -13    0.54    0.13
   2   8 -13    0.28    0.12
  -2  -8  13    0.24    0.11
   1   8 -13    0.01    0.08
   1   8 -13    0.08    0.09
   1   8 -13   -0.04    0.08
  -1  -8  13    0.05    0.08
   0   8 -13    1.69    0.21
   0   8 -13    1.93    0.22
   0  -8  13    1.66    0.20
  -1   8 -13    6.93    0.35
   1  -8  13    6.07    0.33
  -2   8 -13    0.09    0.10
  -2   8 -13    0.03    0.09
   2  -8  13    0.08    0.09
  -3   8 -13    3.02    0.25
  -3   8 -13    2.53    0.25
   3  -8  13    3.02    0.24
  -4   8 -13    0.46    0.14
  -4   8 -13    0.62    0.15
   4  -8  13    0.28    0.12
  -5   8 -13    1.87    0.23
  -5   8 -13    1.91    0.23
   5  -8  13    1.96    0.22
  -6  -7  13    1.56    0.20
   5   7 -13   -0.04    0.08
   5   7 -13    0.01    0.08
   5   7 -13   -0.06    0.08
  -5  -7  13    0.03    0.07
  -5  -7  13   -0.02    0.07
  -5  -7  13    0.01    0.07
   4   7 -13    0.18    0.10
   4   7 -13    0.04    0.09
   4   7 -13    0.13    0.10
   4   7 -13    0.24    0.10
  -4  -7  13    0.26    0.09
  -4  -7  13    0.15    0.09
  -4  -7  13    0.06    0.07
   3   7 -13    1.43    0.20
   3   7 -13    1.39    0.19
   3   7 -13    1.08    0.16
   3   7 -13    1.37    0.18
  -3  -7  13    1.20    0.17
   2   7 -13    1.27    0.19
   2   7 -13    1.09    0.17
   2   7 -13    1.32    0.18
  -2  -7  13    0.98    0.15
   1   7 -13    3.21    0.23
   1   7 -13    3.54    0.25
   1   7 -13    2.96    0.25
  -1  -7  13    3.93    0.25
   0   7 -13    0.22    0.10
   0   7 -13    0.10    0.09
   0   7 -13    0.10    0.10
   0  -7  13    0.10    0.09
  -1   7 -13    4.26    0.27
  -1   7 -13    5.09    0.29
   1  -7  13    4.35    0.27
  -2   7 -13    6.66    0.34
  -2   7 -13    6.74    0.34
   2  -7  13    6.90    0.34
  -3   7 -13    0.22    0.10
  -3   7 -13    0.35    0.12
   3  -7  13    0.30    0.11
  -4   7 -13    0.09    0.10
  -4   7 -13    0.08    0.09
   4  -7  13    0.06    0.09
  -5   7 -13    0.01    0.09
  -5   7 -13    0.09    0.10
   5  -7  13    0.01    0.08
  -6   7 -13    0.27    0.13
  -6   7 -13    0.13    0.11
  -6  -6  13    0.72    0.15
  -6  -6  13    0.83    0.14
  -6  -6  13    0.92    0.16
   5   6 -13    2.44    0.19
   5   6 -13    2.29    0.22
   5   6 -13    2.28    0.22
  -5  -6  13    2.22    0.20
  -5  -6  13    2.26    0.23
  -5  -6  13    2.18    0.21
   4   6 -13    1.11    0.16
   4   6 -13    0.85    0.14
   4   6 -13    0.94    0.16
   4   6 -13    0.56    0.12
  -4  -6  13    0.88    0.12
  -4  -6  13    0.97    0.16
  -4  -6  13    0.87    0.14
  -4  -6  13    1.23    0.16
   3   6 -13    0.00    0.08
   3   6 -13    0.11    0.09
   3   6 -13    0.04    0.08
  -3  -6  13    0.05    0.06
  -3  -6  13    0.08    0.08
   2   6 -13    0.01    0.07
   2   6 -13   -0.06    0.06
   2   6 -13    0.01    0.09
  -2  -6  13   -0.04    0.06
   1   6 -13    1.41    0.17
   1   6 -13    1.46    0.20
   1   6 -13    1.16    0.16
  -1  -6  13    1.53    0.17
   0   6 -13   18.70    0.66
   0   6 -13   18.22    0.58
   0   6 -13   16.63    0.57
   0  -6  13   18.90    0.58
  -1   6 -13    0.04    0.08
  -1   6 -13    0.01    0.07
   1  -6  13   -0.15    0.06
  -2   6 -13    0.26    0.10
  -2   6 -13    0.10    0.09
   2  -6  13    0.12    0.09
  -3   6 -13    1.17    0.17
  -3   6 -13    1.68    0.20
   3  -6  13    1.40    0.18
  -4   6 -13    0.01    0.08
  -4   6 -13    0.04    0.08
  -4   6 -13   -0.06    0.08
   4  -6  13    0.06    0.09
  -5   6 -13    3.65    0.26
  -5   6 -13    3.32    0.26
   5  -6  13    3.47    0.25
  -6   6 -13    1.39    0.21
  -6   6 -13    1.61    0.21
  -6   6 -13    1.36    0.19
   6  -6  13    1.43    0.20
  -7  -5  13    0.00    0.07
  -7  -5  13   -0.09    0.06
  -6  -5  13    0.04    0.07
  -6  -5  13    0.16    0.09
  -6  -5  13    0.06    0.07
   5   5 -13    0.00    0.07
   5   5 -13    0.02    0.07
   5   5 -13    0.06    0.08
  -5  -5  13    0.00    0.06
  -5  -5  13    0.10    0.08
  -5  -5  13    0.04    0.07
   4   5 -13    5.28    0.27
   4   5 -13    5.62    0.28
   4   5 -13    5.42    0.30
  -4  -5  13    5.50    0.27
  -4  -5  13    5.70    0.27
  -4  -5  13    5.39    0.24
  -4  -5  13    5.01    0.29
   3   5 -13   -0.01    0.08
   3   5 -13    0.06    0.07
   3   5 -13    0.02    0.07
  -3  -5  13    0.02    0.05
  -3  -5  13    0.11    0.06
  -3  -5  13   -0.05    0.06
   2   5 -13    0.26    0.09
   2   5 -13    0.13    0.09
   2   5 -13    0.26    0.10
  -2  -5  13    0.23    0.09
   1   5 -13   11.27    0.42
   1   5 -13   11.20    0.42
  -1  -5  13   11.18    0.41
   0   5 -13    0.03    0.08
   0   5 -13    0.08    0.08
   0  -5  13    0.13    0.08
  -1   5 -13    0.30    0.10
  -1   5 -13    0.24    0.10
  -1   5 -13    0.24    0.10
   1  -5  13    0.27    0.10
  -2   5 -13    0.57    0.13
  -2   5 -13    0.32    0.10
  -2   5 -13    0.43    0.12
   2  -5  13    0.53    0.12
  -3   5 -13    2.21    0.22
  -3   5 -13    2.13    0.21
  -3   5 -13    2.05    0.22
   3  -5  13    2.07    0.21
  -4   5 -13    1.41    0.19
  -4   5 -13    1.56    0.19
  -4   5 -13    1.49    0.20
   4  -5  13    1.53    0.19
  -5   5 -13   -0.01    0.08
  -5   5 -13    0.23    0.10
   5  -5  13    0.15    0.10
  -6   5 -13    2.81    0.23
  -6   5 -13    2.55    0.27
  -6   5 -13    2.25    0.24
   6  -5  13    2.14    0.24
  -7  -4  13    0.43    0.12
  -7  -4  13    0.65    0.13
  -7  -4  13    0.19    0.10
  -6  -4  13    0.14    0.08
  -6  -4  13    0.12    0.08
  -6  -4  13    0.10    0.08
   5   4 -13    4.70    0.25
  -5  -4  13    4.83    0.29
  -5  -4  13    4.61    0.25
  -5  -4  13    5.26    0.25
   4   4 -13    0.00    0.07
   4   4 -13    0.04    0.07
   4   4 -13    0.01    0.07
  -4  -4  13    0.08    0.06
  -4  -4  13    0.00    0.06
  -4  -4  13    0.02    0.05
  -4  -4  13    0.00    0.06
   3   4 -13    8.27    0.34
   3   4 -13    8.80    0.35
   3   4 -13    8.83    0.38
  -3  -4  13    8.88    0.29
  -3  -4  13    8.59    0.31
  -3  -4  13    8.68    0.34
   2   4 -13    0.83    0.13
   2   4 -13    0.57    0.12
  -2  -4  13    0.84    0.13
   1   4 -13    0.79    0.13
   1   4 -13    0.95    0.14
  -1  -4  13    1.01    0.14
   0   4 -13    4.64    0.27
   0   4 -13    4.65    0.26
   0   4 -13    4.26    0.25
   0  -4  13    4.81    0.20
   0  -4  13    4.90    0.26
  -1   4 -13    5.13    0.27
  -1   4 -13    4.75    0.28
  -1   4 -13    5.12    0.27
   1  -4  13    4.77    0.26
  -2   4 -13    4.60    0.27
  -2   4 -13    4.81    0.29
  -2   4 -13    5.30    0.28
   2  -4  13    4.60    0.26
  -3   4 -13    1.92    0.20
  -3   4 -13    1.94    0.22
  -3   4 -13    1.77    0.19
   3  -4  13    1.78    0.20
  -4   4 -13    0.61    0.14
  -4   4 -13    0.60    0.13
  -4   4 -13    0.59    0.14
   4  -4  13    0.79    0.14
  -5   4 -13    0.88    0.16
  -5   4 -13    1.04    0.16
   5  -4  13    1.08    0.17
  -6   4 -13    0.08    0.10
  -6   4 -13    0.05    0.09
  -6   4 -13    0.01    0.09
   6  -4  13    0.08    0.09
  -8  -3  13    0.06    0.08
  -8  -3  13    0.04    0.07
  -7  -3  13    7.17    0.38
  -7  -3  13    7.23    0.34
  -7  -3  13    7.86    0.34
  -6  -3  13    2.09    0.17
  -6  -3  13    1.85    0.18
  -6  -3  13    1.95    0.19
  -6  -3  13    2.08    0.22
  -5  -3  13    0.02    0.07
  -5  -3  13    0.17    0.07
  -5  -3  13    0.08    0.06
  -5  -3  13   -0.02    0.05
   4   3 -13    2.00    0.17
   4   3 -13    1.80    0.17
   4   3 -13    1.85    0.16
  -4  -3  13    1.91    0.14
  -4  -3  13    1.82    0.14
  -4  -3  13    1.89    0.14
  -4  -3  13    2.00    0.20
  -4  -3  13    1.75    0.17
   3   3 -13    0.88    0.13
   3   3 -13    0.88    0.13
  -3  -3  13    0.70    0.10
  -3  -3  13    0.88    0.13
   2   3 -13    5.67    0.28
   2   3 -13    6.02    0.28
   2   3 -13    5.56    0.27
  -2  -3  13    5.82    0.27
  -2  -3  13    5.69    0.24
   1   3 -13    1.04    0.14
   1   3 -13    0.84    0.13
   1   3 -13    0.91    0.13
  -1  -3  13    0.94    0.11
  -1  -3  13    1.04    0.14
   0   3 -13    0.13    0.08
   0   3 -13    0.02    0.07
   0   3 -13    0.06    0.07
   0  -3  13    0.17    0.06
   0  -3  13    0.14    0.08
  -1   3 -13    4.85    0.27
  -1   3 -13    4.89    0.28
  -1   3 -13    4.87    0.27
   1  -3  13    4.81    0.26
  -2   3 -13    0.08    0.08
  -2   3 -13    0.14    0.09
  -2   3 -13    0.14    0.08
   2  -3  13    0.06    0.08
  -3   3 -13    6.40    0.32
  -3   3 -13    6.65    0.35
  -3   3 -13    7.00    0.33
   3  -3  13    6.33    0.32
  -4   3 -13    3.42    0.26
  -4   3 -13    3.54    0.25
  -4   3 -13    3.26    0.24
   4  -3  13    3.25    0.24
  -5   3 -13    1.71    0.20
  -5   3 -13    1.77    0.21
  -5   3 -13    1.73    0.20
   5  -3  13    1.75    0.21
  -6   3 -13    0.52    0.15
  -6   3 -13    0.69    0.15
   6  -3  13    0.59    0.14
  -8  -2  13    3.38    0.24
  -8  -2  13    3.55    0.24
  -7  -2  13    0.14    0.08
  -7  -2  13    0.10    0.07
  -7  -2  13    0.09    0.09
  -7  -2  13    0.30    0.10
  -6  -2  13    1.98    0.18
  -6  -2  13    2.12    0.18
  -6  -2  13    1.97    0.21
  -6  -2  13    2.12    0.17
  -5  -2  13    1.31    0.14
  -5  -2  13    1.13    0.14
  -5  -2  13    1.25    0.17
   4   2 -13    2.02    0.16
   4   2 -13    1.97    0.16
  -4  -2  13    2.13    0.18
  -4  -2  13    2.14    0.16
  -4  -2  13    2.14    0.17
  -4  -2  13    1.98    0.14
   3   2 -13   11.39    0.40
   3   2 -13   11.19    0.38
   3   2 -13   10.96    0.38
  -3  -2  13   11.11    0.42
  -3  -2  13   11.16    0.37
  -3  -2  13   10.82    0.38
   2   2 -13   11.01    0.38
   2   2 -13   10.66    0.38
   2   2 -13    9.87    0.38
   2   2 -13    9.90    0.32
  -2  -2  13   10.75    0.36
  -2  -2  13   10.33    0.37
   1   2 -13    1.93    0.18
   1   2 -13    2.07    0.15
   1   2 -13    2.03    0.17
   1   2 -13    1.80    0.19
  -1  -2  13    1.94    0.16
  -1  -2  13    2.05    0.15
   0   2 -13    3.78    0.22
   0   2 -13    3.64    0.24
   0   2 -13    3.14    0.19
   0   2 -13    3.21    0.21
   0  -2  13    3.65    0.22
  -1   2 -13    4.00    0.24
  -1   2 -13    3.79    0.21
  -1   2 -13    4.15    0.25
  -1   2 -13    4.11    0.24
   1  -2  13    3.86    0.23
  -2   2 -13    0.46    0.12
  -2   2 -13    0.31    0.10
  -2   2 -13    0.48    0.12
   2  -2  13    0.82    0.13
  -3   2 -13    0.48    0.12
  -3   2 -13    0.53    0.13
  -3   2 -13    0.30    0.11
   3  -2  13    0.35    0.11
  -4   2 -13    1.81    0.21
  -4   2 -13    2.05    0.23
  -4   2 -13    2.22    0.23
   4  -2  13    2.38    0.23
  -5   2 -13    2.51    0.25
  -5   2 -13    2.81    0.23
   5  -2  13    2.54    0.25
  -6   2 -13   -0.05    0.09
  -6   2 -13   -0.01    0.10
   6  -2  13    0.04    0.09
  -8  -1  13    0.26    0.11
  -8  -1  13    0.17    0.09
  -7  -1  13    0.29    0.10
  -7  -1  13    0.41    0.10
  -7  -1  13    0.29    0.11
  -6  -1  13    0.91    0.13
  -6  -1  13    0.86    0.14
  -6  -1  13    1.21    0.17
  -5  -1  13    3.83    0.20
  -5  -1  13    4.30    0.24
  -5  -1  13    3.92    0.25
   4   1 -13    0.92    0.12
   4   1 -13    0.81    0.11
  -4  -1  13    0.72    0.13
  -4  -1  13    0.85    0.11
  -4  -1  13    0.89    0.13
  -4  -1  13    0.52    0.09
   3   1 -13    2.69    0.16
   3   1 -13    2.83    0.18
   3   1 -13    2.94    0.19
   3   1 -13    2.83    0.19
  -3  -1  13    2.77    0.19
  -3  -1  13    2.37    0.17
  -3  -1  13    2.94    0.19
   2   1 -13    8.17    0.34
   2   1 -13    7.82    0.30
   2   1 -13    8.03    0.32
   2   1 -13    8.65    0.33
  -2  -1  13    8.28    0.32
  -2  -1  13    7.72    0.31
   1   1 -13    1.14    0.13
   1   1 -13    1.19    0.15
   1   1 -13    1.31    0.16
   1   1 -13    1.01    0.14
  -1  -1  13    1.20    0.14
  -1  -1  13    1.08    0.14
   0   1 -13    8.68    0.35
   0   1 -13    8.75    0.35
   0   1 -13    8.07    0.32
   0   1 -13    8.50    0.36
   0  -1  13    8.03    0.34
  -1   1 -13    0.24    0.09
  -1   1 -13    0.34    0.10
  -1   1 -13    0.15    0.08
  -1   1 -13    0.40    0.11
   1  -1  13    0.19    0.09
  -2   1 -13    0.80    0.14
  -2   1 -13    0.62    0.13
  -2   1 -13    0.64    0.13
  -2   1 -13    0.62    0.12
   2  -1  13    0.70    0.13
  -3   1 -13   10.29    0.44
  -3   1 -13    9.80    0.41
  -3   1 -13    9.45    0.40
   3  -1  13   10.65    0.42
  -4   1 -13    2.07    0.22
  -4   1 -13    1.91    0.23
  -4   1 -13    2.23    0.22
   4  -1  13    1.94    0.21
  -5   1 -13    0.45    0.13
  -5   1 -13    0.41    0.12
   5  -1  13    0.58    0.14
  -8   0  13    3.59    0.27
  -8   0  13    4.10    0.25
  -7   0  13    0.09    0.09
  -7   0  13    0.14    0.07
  -7   0  13    0.07    0.08
  -6   0  13    0.88    0.15
  -6   0  13    0.94    0.15
  -5   0  13    0.68    0.12
  -5   0  13    0.94    0.14
   4   0 -13    0.94    0.12
   4   0 -13    1.11    0.13
   4   0 -13    1.22    0.14
  -4   0  13    1.02    0.12
  -4   0  13    1.01    0.14
  -4   0  13    1.03    0.15
   3   0 -13    4.24    0.21
   3   0 -13    4.50    0.23
   3   0 -13    4.59    0.23
   3   0 -13    4.01    0.22
  -3   0  13    4.14    0.23
  -3   0  13    4.16    0.24
  -3   0  13    4.29    0.22
   2   0 -13    0.17    0.08
   2   0 -13    0.18    0.08
   2   0 -13    0.19    0.08
   2   0 -13    0.20    0.08
  -2   0  13    0.29    0.08
  -2   0  13    0.19    0.08
  -2   0  13    0.26    0.08
   1   0 -13    0.09    0.06
   1   0 -13    0.02    0.07
   1   0 -13    0.15    0.08
   1   0 -13    0.03    0.07
  -1   0  13    0.01    0.06
  -1   0  13    0.04    0.06
   0   0 -13    0.26    0.09
   0   0 -13    0.14    0.08
   0   0 -13    0.19    0.09
   0   0 -13    0.18    0.09
   0   0  13    0.09    0.08
  -1   0 -13    5.48    0.29
  -1   0 -13    5.50    0.30
  -1   0 -13    5.44    0.28
  -1   0 -13    5.77    0.29
   1   0  13    5.53    0.28
  -2   0 -13    6.74    0.33
  -2   0 -13    6.48    0.32
  -2   0 -13    6.84    0.33
  -2   0 -13    7.16    0.36
   2   0  13    6.79    0.32
  -3   0 -13    0.03    0.08
  -3   0 -13   -0.02    0.09
  -3   0 -13   -0.01    0.06
  -3   0 -13   -0.04    0.08
   3   0  13   -0.01    0.07
  -4   0 -13    1.10    0.17
  -4   0 -13    0.78    0.15
   4   0  13    1.19    0.18
  -5   0 -13    0.11    0.10
  -5   0 -13    0.05    0.10
   5   0  13    0.15    0.10
  -8   1  13    0.36    0.12
  -7   1  13    1.77    0.21
  -7   1  13    1.63    0.20
  -6   1  13    0.36    0.11
  -6   1  13    0.41    0.11
   5  -1 -13    1.85    0.16
  -5   1  13    1.75    0.20
  -5   1  13    2.22    0.18
   4  -1 -13    1.67    0.16
   4  -1 -13    1.42    0.16
   4  -1 -13    1.63    0.14
  -4   1  13    1.44    0.16
  -4   1  13    1.25    0.16
  -4   1  13    1.41    0.14
   3  -1 -13    1.53    0.16
   3  -1 -13    1.24    0.15
   3  -1 -13    1.53    0.16
   3  -1 -13    1.59    0.16
  -3   1  13    1.37    0.15
  -3   1  13    1.32    0.16
  -3   1  13    1.32    0.14
   2  -1 -13    3.65    0.21
   2  -1 -13    3.67    0.22
   2  -1 -13    3.33    0.21
   2  -1 -13    3.53    0.22
  -2   1  13    3.48    0.23
  -2   1  13    3.35    0.20
  -2   1  13    3.15    0.20
   1  -1 -13    0.02    0.07
   1  -1 -13    0.07    0.07
   1  -1 -13   -0.03    0.07
   1  -1 -13    0.22    0.09
  -1   1  13    0.10    0.06
  -1   1  13   -0.07    0.05
  -1   1  13    0.03    0.07
   0  -1 -13    7.10    0.32
   0  -1 -13    6.83    0.34
   0  -1 -13    7.14    0.33
   0  -1 -13    6.80    0.32
   0   1  13    7.02    0.32
  -1  -1 -13    0.92    0.15
  -1  -1 -13    0.94    0.15
  -1  -1 -13    1.20    0.16
  -1  -1 -13    0.89    0.15
   1   1  13    1.27    0.17
  -2  -1 -13    0.18    0.10
  -2  -1 -13    0.37    0.11
  -2  -1 -13    0.28    0.11
  -2  -1 -13    0.28    0.10
   2   1  13    0.46    0.12
  -3  -1 -13    2.09    0.22
  -3  -1 -13    2.41    0.24
  -3  -1 -13    2.62    0.22
   3   1  13    1.96    0.22
  -4  -1 -13    0.54    0.14
  -4  -1 -13    0.29    0.12
  -4  -1 -13    0.12    0.10
   4   1  13    0.38    0.13
  -7   2  13    1.28    0.18
  -7   2  13    1.31    0.19
   6  -2 -13    1.48    0.17
  -6   2  13    1.47    0.18
  -6   2  13    1.07    0.17
   5  -2 -13    0.69    0.12
  -5   2  13    0.57    0.11
  -5   2  13    0.69    0.13
   4  -2 -13    4.05    0.21
   4  -2 -13    4.07    0.24
   4  -2 -13    3.87    0.21
  -4   2  13    4.11    0.26
  -4   2  13    3.96    0.23
   3  -2 -13    1.27    0.16
   3  -2 -13    1.44    0.16
   3  -2 -13    1.27    0.15
   3  -2 -13    1.31    0.15
  -3   2  13    1.88    0.15
  -3   2  13    1.30    0.15
  -3   2  13    1.24    0.17
   2  -2 -13    0.55    0.12
   2  -2 -13    0.61    0.12
   2  -2 -13    0.40    0.11
   2  -2 -13    0.49    0.11
  -2   2  13    0.46    0.11
  -2   2  13    0.52    0.09
  -2   2  13    0.35    0.10
   1  -2 -13    2.76    0.20
   1  -2 -13    3.03    0.22
   1  -2 -13    3.12    0.21
   1  -2 -13    2.99    0.22
  -1   2  13    3.59    0.22
  -1   2  13    2.79    0.22
   0  -2 -13    0.15    0.09
   0  -2 -13    0.19    0.09
   0  -2 -13    0.09    0.08
   0  -2 -13    0.05    0.08
   0   2  13    0.15    0.09
  -1  -2 -13    3.99    0.26
  -1  -2 -13    3.54    0.25
  -1  -2 -13    3.58    0.26
  -1  -2 -13    4.19    0.26
   1   2  13    3.76    0.25
  -2  -2 -13    1.52    0.20
  -2  -2 -13    1.76    0.20
  -2  -2 -13    1.39    0.19
  -2  -2 -13    1.25    0.18
   2   2  13    1.70    0.20
  -3  -2 -13    0.84    0.16
  -3  -2 -13    0.69    0.15
  -3  -2 -13    0.83    0.15
   3   2  13    0.96    0.17
  -7   3  13    0.84    0.15
  -7   3  13    0.78    0.16
   6  -3 -13    0.17    0.09
  -6   3  13    0.34    0.10
  -6   3  13    0.23    0.10
   5  -3 -13    9.73    0.39
  -5   3  13    9.51    0.38
  -5   3  13    9.23    0.42
   4  -3 -13   -0.05    0.07
  -4   3  13   -0.04    0.06
  -4   3  13    0.04    0.08
   3  -3 -13    1.81    0.20
   3  -3 -13    2.04    0.17
   3  -3 -13    2.12    0.18
   3  -3 -13    1.95    0.18
  -3   3  13    1.69    0.20
  -3   3  13    1.84    0.18
  -3   3  13    1.74    0.15
   2  -3 -13    0.96    0.15
   2  -3 -13    1.15    0.16
   2  -3 -13    0.79    0.13
   2  -3 -13    0.79    0.14
  -2   3  13    1.08    0.15
  -2   3  13    0.92    0.15
   1  -3 -13    0.50    0.12
   1  -3 -13    0.76    0.14
   1  -3 -13    0.58    0.12
   1  -3 -13    0.73    0.14
  -1   3  13    0.55    0.13
  -1   3  13    0.48    0.11
   0  -3 -13    6.64    0.33
   0  -3 -13    6.19    0.33
   0  -3 -13    6.02    0.33
   0  -3 -13    5.80    0.31
   0   3  13    6.16    0.32
  -1  -3 -13    0.30    0.12
  -1  -3 -13    0.32    0.11
  -1  -3 -13    0.60    0.14
  -1  -3 -13    0.28    0.10
   1   3  13    0.31    0.11
  -2  -3 -13    3.42    0.26
  -2  -3 -13    3.20    0.25
  -2  -3 -13    3.24    0.25
   2   3  13    3.24    0.25
   7  -4 -13    1.49    0.19
  -7   4  13    1.51    0.20
   6  -4 -13   -0.07    0.07
  -6   4  13   -0.03    0.07
  -6   4  13   -0.01    0.08
   5  -4 -13    0.29    0.11
  -5   4  13    0.23    0.10
   4  -4 -13    2.47    0.21
  -4   4  13    2.49    0.25
   3  -4 -13   -0.01    0.07
   3  -4 -13    0.03    0.07
   3  -4 -13   -0.06    0.06
  -3   4  13    0.03    0.07
  -3   4  13    0.06    0.07
   2  -4 -13    4.00    0.25
   2  -4 -13    4.11    0.26
   2  -4 -13    4.34    0.26
   2  -4 -13    3.57    0.26
  -2   4  13    4.45    0.25
  -2   4  13    4.12    0.28
   1  -4 -13    1.01    0.16
   1  -4 -13    0.78    0.15
   1  -4 -13    0.94    0.16
   1  -4 -13    0.99    0.16
  -1   4  13    0.94    0.16
  -1   4  13    1.14    0.16
   0  -4 -13    2.06    0.22
   0  -4 -13    2.35    0.25
   0  -4 -13    2.50    0.24
   0  -4 -13    1.92    0.22
   0   4  13    2.21    0.22
  -1  -4 -13    0.86    0.16
  -1  -4 -13    0.81    0.16
  -1  -4 -13    0.95    0.17
   1   4  13    0.98    0.17
   6  -5 -13    0.18    0.10
   5  -5 -13    0.72    0.14
   4  -5 -13   -0.15    0.06
  -4   5  13   -0.10    0.06
   3  -5 -13    2.32    0.25
   3  -5 -13    2.10    0.21
   3  -5 -13    1.85    0.20
  -3   5  13    1.75    0.22
  -3   5  13    2.18    0.21
   2  -5 -13    0.00    0.09
   2  -5 -13   -0.03    0.08
   2  -5 -13    0.02    0.08
   2  -5 -13    0.08    0.10
   2  -5 -13    0.01    0.09
  -2   5  13   -0.07    0.07
  -2   5  13    0.01    0.08
   1  -5 -13    1.67    0.20
   1  -5 -13    2.14    0.23
   1  -5 -13    2.02    0.24
  -1   5  13    2.29    0.23
  -1   5  13    2.12    0.24
   0  -5 -13    1.69    0.22
   0  -5 -13    1.30    0.20
   0  -5 -13    1.24    0.19
   0   5  13    1.51    0.20
   3  -6 -13    0.84    0.15
   2  -6 -13    1.78    0.21
   2  -6 -13    1.70    0.20
  -2   6  13    1.92    0.21
   2   9 -14    2.69    0.27
   2   9 -14    2.49    0.26
  -2  -9  14    2.60    0.26
   1   9 -14    1.10    0.19
   1   9 -14    0.93    0.18
   1   9 -14    1.10    0.18
  -1  -9  14    0.75    0.16
   0   9 -14    0.11    0.10
   0   9 -14    0.10    0.11
   0   9 -14    0.06    0.11
   0  -9  14    0.12    0.10
  -1   9 -14    0.43    0.13
  -1   9 -14    0.50    0.14
   1  -9  14    0.48    0.14
   4   8 -14    0.11    0.10
   4   8 -14    0.31    0.11
   4   8 -14    0.43    0.13
  -4  -8  14    0.46    0.13
  -4  -8  14    0.35    0.12
   3   8 -14    0.32    0.12
   3   8 -14    0.54    0.13
   3   8 -14    0.42    0.12
  -3  -8  14    0.35    0.12
   2   8 -14    0.11    0.10
   2   8 -14    0.10    0.11
   2   8 -14    0.04    0.10
  -2  -8  14    0.00    0.09
   1   8 -14    0.79    0.16
   1   8 -14    0.83    0.16
  -1  -8  14    1.06    0.17
   0   8 -14    0.04    0.10
   0   8 -14    0.06    0.10
   0  -8  14    0.01    0.08
  -1   8 -14    0.48    0.14
  -1   8 -14    0.39    0.14
   1  -8  14    0.42    0.13
  -2   8 -14    5.15    0.32
  -2   8 -14    4.43    0.30
   2  -8  14    4.89    0.31
  -3   8 -14    0.43    0.14
  -3   8 -14    0.29    0.12
   3  -8  14    0.39    0.13
   5   7 -14    0.40    0.12
  -5  -7  14    0.64    0.14
  -5  -7  14    0.72    0.13
   4   7 -14    0.28    0.11
   4   7 -14    0.23    0.11
   4   7 -14    0.19    0.10
  -4  -7  14    0.19    0.09
  -4  -7  14    0.54    0.12
  -4  -7  14    0.47    0.11
   3   7 -14    0.17    0.10
   3   7 -14    0.21    0.11
   3   7 -14    0.18    0.10
  -3  -7  14    0.16    0.10
   2   7 -14    1.92    0.22
   2   7 -14    1.85    0.22
  -2  -7  14    1.64    0.20
   1   7 -14    0.19    0.10
   1   7 -14    0.29    0.11
  -1  -7  14    0.16    0.10
   0   7 -14    0.65    0.15
   0   7 -14    0.78    0.15
   0  -7  14    0.93    0.16
  -1   7 -14    0.46    0.13
  -1   7 -14    0.40    0.13
   1  -7  14    0.24    0.11
  -2   7 -14    6.02    0.34
  -2   7 -14    6.76    0.36
   2  -7  14    6.18    0.34
  -3   7 -14    0.05    0.09
  -3   7 -14    0.04    0.10
   3  -7  14    0.21    0.10
  -4   7 -14    0.76    0.16
  -4   7 -14    0.61    0.15
   4  -7  14    0.48    0.14
  -6  -6  14    0.11    0.09
  -6  -6  14    0.01    0.07
   5   6 -14    0.22    0.09
  -5  -6  14    0.17    0.09
  -5  -6  14    0.12    0.09
  -5  -6  14    0.18    0.09
   4   6 -14    3.36    0.24
   4   6 -14    3.66    0.24
   4   6 -14    3.82    0.25
  -4  -6  14    3.51    0.24
  -4  -6  14    3.83    0.24
  -4  -6  14    3.19    0.24
   3   6 -14    1.70    0.20
   3   6 -14    1.66    0.20
   3   6 -14    1.84    0.22
  -3  -6  14    1.70    0.17
  -3  -6  14    1.83    0.20
   2   6 -14    0.38    0.12
   2   6 -14    0.29    0.11
   2   6 -14    0.36    0.12
  -2  -6  14    0.29    0.10
   1   6 -14    1.89    0.21
   1   6 -14    1.95    0.21
   1   6 -14    1.80    0.22
  -1  -6  14    1.94    0.21
   0   6 -14   -0.04    0.08
   0   6 -14    0.09    0.09
   0  -6  14    0.06    0.08
  -1   6 -14    3.28    0.25
  -1   6 -14    4.21    0.27
   1  -6  14    3.53    0.25
  -2   6 -14    2.28    0.23
  -2   6 -14    2.28    0.23
   2  -6  14    2.27    0.23
  -3   6 -14    0.62    0.14
  -3   6 -14    0.52    0.14
   3  -6  14    0.40    0.13
  -4   6 -14    0.76    0.15
  -4   6 -14    0.50    0.13
   4  -6  14    0.46    0.14
  -5   6 -14   -0.07    0.09
  -5   6 -14    0.01    0.10
   5  -6  14   -0.03    0.09
  -7  -5  14    0.30    0.11
  -6  -5  14    0.03    0.07
  -6  -5  14    0.07    0.09
  -6  -5  14    0.04    0.07
   5   5 -14    1.37    0.17
  -5  -5  14    1.79    0.19
  -5  -5  14    1.68    0.21
  -5  -5  14    1.74    0.17
   4   5 -14    0.22    0.10
   4   5 -14    0.21    0.10
  -4  -5  14    0.14    0.08
  -4  -5  14    0.06    0.07
   3   5 -14    1.89    0.20
   3   5 -14    2.12    0.23
   3   5 -14    1.81    0.19
  -3  -5  14    2.04    0.20
   2   5 -14    0.04    0.07
   2   5 -14    0.05    0.08
   2   5 -14    0.09    0.09
  -2  -5  14    0.19    0.09
   1   5 -14    1.76    0.20
   1   5 -14    1.85    0.20
  -1  -5  14    1.79    0.19
   0   5 -14    1.56    0.19
   0   5 -14    1.64    0.19
   0  -5  14    1.55    0.18
  -1   5 -14    1.45    0.18
  -1   5 -14    1.67    0.20
  -1   5 -14    1.85    0.21
   1  -5  14    1.61    0.19
  -2   5 -14    1.83    0.21
  -2   5 -14    1.73    0.20
  -2   5 -14    1.89    0.22
   2  -5  14    1.50    0.19
  -3   5 -14    5.41    0.31
  -3   5 -14    5.00    0.30
  -3   5 -14    5.34    0.32
   3  -5  14    5.69    0.32
  -4   5 -14    0.97    0.17
  -4   5 -14    1.49    0.20
   4  -5  14    1.07    0.18
  -5   5 -14    1.28    0.19
  -5   5 -14    1.39    0.20
   5  -5  14    1.34    0.20
  -7  -4  14    0.06    0.08
  -7  -4  14    0.11    0.08
  -6  -4  14    0.84    0.15
  -6  -4  14    0.71    0.12
   5   4 -14    3.66    0.22
  -5  -4  14    3.58    0.20
  -5  -4  14    3.70    0.26
   4   4 -14    4.48    0.25
   4   4 -14    4.12    0.24
  -4  -4  14    3.97    0.23
  -4  -4  14    4.07    0.26
   3   4 -14    9.12    0.37
   3   4 -14    8.81    0.41
   3   4 -14    9.78    0.39
  -3  -4  14   10.84    0.39
   2   4 -14    0.16    0.09
   2   4 -14    0.37    0.10
  -2  -4  14    0.16    0.09
   1   4 -14    0.72    0.13
   1   4 -14    0.83    0.14
  -1  -4  14    0.75    0.13
   0   4 -14    0.32    0.11
   0   4 -14    0.24    0.10
   0   4 -14    0.16    0.10
   0  -4  14    0.27    0.10
  -1   4 -14    4.90    0.29
  -1   4 -14    4.87    0.28
  -1   4 -14    4.28    0.26
   1  -4  14    4.61    0.27
  -2   4 -14    1.88    0.21
  -2   4 -14    2.01    0.22
  -2   4 -14    2.04    0.21
   2  -4  14    1.97    0.21
  -3   4 -14    1.79    0.21
  -3   4 -14    1.72    0.22
  -3   4 -14    2.09    0.22
   3  -4  14    1.77    0.21
  -4   4 -14    0.99    0.17
  -4   4 -14    1.24    0.18
   4  -4  14    1.35    0.19
  -5   4 -14    0.20    0.11
  -5   4 -14    0.23    0.11
   5  -4  14    0.18    0.11
  -6   4 -14    0.55    0.15
  -7  -3  14    0.01    0.07
  -6  -3  14    4.41    0.24
  -6  -3  14    4.84    0.30
  -5  -3  14    1.83    0.21
   4   3 -14   -0.02    0.07
   4   3 -14   -0.06    0.06
  -4  -3  14    0.08    0.07
  -4  -3  14   -0.04    0.06
  -4  -3  14    0.07    0.06
   3   3 -14    3.84    0.23
   3   3 -14    3.63    0.22
  -3  -3  14    3.75    0.20
  -3  -3  14    3.43    0.21
   2   3 -14    0.04    0.08
   2   3 -14    0.03    0.08
   2   3 -14    0.15    0.09
  -2  -3  14    0.23    0.09
  -2  -3  14    0.14    0.07
   1   3 -14    5.76    0.30
   1   3 -14    5.71    0.29
   1   3 -14    5.67    0.29
  -1  -3  14    5.71    0.25
  -1  -3  14    5.58    0.28
   0   3 -14    8.74    0.37
   0   3 -14    9.39    0.40
   0   3 -14    8.38    0.36
   0  -3  14    8.57    0.32
   0  -3  14    8.71    0.36
  -1   3 -14    0.10    0.08
  -1   3 -14    0.22    0.10
  -1   3 -14    0.27    0.11
   1  -3  14    0.12    0.09
  -2   3 -14    6.08    0.33
  -2   3 -14    5.94    0.32
  -2   3 -14    5.56    0.31
   2  -3  14    6.17    0.32
  -3   3 -14    0.03    0.08
  -3   3 -14    0.01    0.08
  -3   3 -14    0.07    0.09
   3  -3  14    0.02    0.08
  -4   3 -14    0.19    0.10
  -4   3 -14    0.32    0.12
   4  -3  14    0.06    0.09
  -5   3 -14    3.55    0.27
   5  -3  14    3.78    0.27
  -8  -2  14    0.06    0.08
  -7  -2  14    1.11    0.16
  -7  -2  14    1.07    0.15
  -7  -2  14    1.01    0.17
  -6  -2  14    0.67    0.12
  -6  -2  14    0.69    0.14
  -6  -2  14    0.57    0.12
  -5  -2  14    0.80    0.15
  -5  -2  14    0.44    0.10
   4   2 -14    2.12    0.17
   4   2 -14    2.56    0.18
  -4  -2  14    2.43    0.18
  -4  -2  14    2.58    0.21
  -4  -2  14    2.61    0.18
   3   2 -14    0.19    0.09
   3   2 -14    0.17    0.09
   3   2 -14    0.27    0.10
  -3  -2  14    0.25    0.08
  -3  -2  14    0.28    0.09
  -3  -2  14    0.29    0.09
   2   2 -14    0.95    0.12
   2   2 -14    1.15    0.15
   2   2 -14    1.09    0.15
   2   2 -14    1.06    0.15
  -2  -2  14    0.98    0.14
  -2  -2  14    0.91    0.13
   1   2 -14    0.28    0.10
   1   2 -14    0.32    0.10
   1   2 -14    0.20    0.09
   1   2 -14    0.32    0.08
  -1  -2  14    0.29    0.09
  -1  -2  14    0.28    0.09
   0   2 -14    6.19    0.30
   0   2 -14    5.93    0.27
   0   2 -14    6.06    0.30
   0   2 -14    5.30    0.30
   0  -2  14    5.83    0.27
   0  -2  14    5.55    0.29
  -1   2 -14    1.95    0.21
  -1   2 -14    1.92    0.16
  -1   2 -14    2.15    0.21
  -1   2 -14    1.79    0.19
   1  -2  14    1.72    0.19
  -2   2 -14    0.01    0.09
  -2   2 -14   -0.10    0.07
  -2   2 -14   -0.06    0.07
   2  -2  14   -0.04    0.07
  -3   2 -14    1.67    0.21
  -3   2 -14    1.87    0.21
  -3   2 -14    1.71    0.21
   3  -2  14    1.73    0.20
  -4   2 -14    0.23    0.11
  -4   2 -14    0.30    0.12
   4  -2  14    0.14    0.10
  -5   2 -14    0.85    0.17
  -5   2 -14    1.01    0.18
   5  -2  14    0.90    0.17
  -8  -1  14    0.68    0.13
  -8  -1  14    0.34    0.12
  -7  -1  14    1.09    0.16
  -7  -1  14    1.12    0.18
  -7  -1  14    1.60    0.17
  -6  -1  14    2.10    0.21
  -6  -1  14    2.10    0.22
  -5  -1  14    1.12    0.16
  -5  -1  14    1.65    0.19
   4   1 -14    0.09    0.07
   4   1 -14    0.00    0.07
  -4  -1  14    0.02    0.07
  -4  -1  14    0.04    0.06
  -4  -1  14    0.03    0.07
   3   1 -14    1.50    0.16
   3   1 -14    1.75    0.18
   3   1 -14    1.56    0.15
   3   1 -14    1.40    0.16
  -3  -1  14    1.73    0.17
  -3  -1  14    1.51    0.17
  -3  -1  14    1.65    0.18
   2   1 -14    0.08    0.07
   2   1 -14    0.02    0.07
   2   1 -14   -0.01    0.05
   2   1 -14   -0.01    0.07
  -2  -1  14    0.02    0.06
  -2  -1  14    0.04    0.06
   1   1 -14    7.63    0.34
   1   1 -14    7.07    0.33
   1   1 -14    7.52    0.33
   1   1 -14    7.04    0.30
  -1  -1  14    7.05    0.32
  -1  -1  14    7.40    0.32
   0   1 -14    0.35    0.10
   0   1 -14    0.32    0.10
   0   1 -14    0.30    0.10
   0   1 -14    0.51    0.12
   0  -1  14    0.16    0.09
  -1   1 -14   -0.02    0.06
  -1   1 -14   -0.04    0.07
  -1   1 -14    0.11    0.08
  -1   1 -14   -0.02    0.08
   1  -1  14    0.05    0.07
  -2   1 -14    3.68    0.24
  -2   1 -14    3.61    0.26
  -2   1 -14    3.84    0.26
  -2   1 -14    4.06    0.27
   2  -1  14    3.56    0.25
  -3   1 -14    0.16    0.10
  -3   1 -14    0.24    0.11
   3  -1  14    0.29    0.11
  -4   1 -14    1.76    0.22
  -4   1 -14    1.77    0.22
   4  -1  14    2.40    0.24
  -7   0  14    0.64    0.14
  -7   0  14    0.85    0.16
  -6   0  14    0.07    0.07
  -6   0  14   -0.03    0.07
  -5   0  14    0.69    0.13
  -5   0  14    0.82    0.14
   4   0 -14    0.60    0.11
   4   0 -14    0.58    0.10
  -4   0  14    0.72    0.13
  -4   0  14    0.56    0.12
   3   0 -14    0.27    0.09
   3   0 -14    0.31    0.10
   3   0 -14    0.37    0.09
   3   0 -14    0.25    0.09
  -3   0  14    0.28    0.09
  -3   0  14    0.37    0.10
  -3   0  14    0.17    0.09
   2   0 -14    2.63    0.18
   2   0 -14    2.56    0.20
   2   0 -14    2.70    0.20
   2   0 -14    2.76    0.19
  -2   0  14    2.52    0.19
  -2   0  14    3.20    0.20
  -2   0  14    2.75    0.20
   1   0 -14    0.84    0.13
   1   0 -14    0.72    0.14
   1   0 -14    0.67    0.13
   1   0 -14    0.66    0.12
  -1   0  14    0.45    0.11
  -1   0  14    0.66    0.13
   0   0 -14    4.03    0.25
   0   0 -14    4.18    0.24
   0   0 -14    3.74    0.25
   0   0 -14    4.09    0.25
   0   0  14    4.15    0.25
  -1   0 -14    1.43    0.18
  -1   0 -14    1.34    0.18
  -1   0 -14    1.53    0.20
  -1   0 -14    1.43    0.18
   1   0  14    1.44    0.18
  -2   0 -14    0.93    0.16
  -2   0 -14    1.13    0.16
  -2   0 -14    1.19    0.17
  -2   0 -14    1.24    0.18
   2   0  14    1.21    0.17
  -3   0 -14    3.75    0.26
  -3   0 -14    3.52    0.26
  -3   0 -14    3.46    0.25
   3   0  14    3.48    0.26
  -4   0 -14    1.49    0.21
  -4   0 -14    1.46    0.21
   4   0  14    1.78    0.22
  -7   1  14    0.44    0.13
  -7   1  14    0.25    0.11
  -6   1  14    7.91    0.37
  -6   1  14    7.36    0.37
  -5   1  14    0.51    0.12
  -5   1  14    0.71    0.14
   4  -1 -14    1.58    0.17
  -4   1  14    1.85    0.20
  -4   1  14    1.51    0.17
   3  -1 -14    1.27    0.16
   3  -1 -14    1.25    0.15
   3  -1 -14    1.27    0.16
   3  -1 -14    1.01    0.14
  -3   1  14    1.19    0.15
  -3   1  14    1.22    0.15
  -3   1  14    0.84    0.14
   2  -1 -14    3.52    0.23
   2  -1 -14    3.60    0.23
   2  -1 -14    3.33    0.23
   2  -1 -14    3.33    0.22
  -2   1  14    3.02    0.22
  -2   1  14    3.50    0.22
  -2   1  14    3.19    0.20
   1  -1 -14    7.83    0.35
   1  -1 -14    8.10    0.35
   1  -1 -14    7.05    0.33
   1  -1 -14    7.81    0.36
  -1   1  14    7.46    0.30
  -1   1  14    7.61    0.34
  -1   1  14    6.52    0.34
   0  -1 -14    3.71    0.26
   0  -1 -14    3.57    0.24
   0  -1 -14    4.00    0.25
   0  -1 -14    4.11    0.26
   0   1  14    4.57    0.26
  -1  -1 -14    2.46    0.24
  -1  -1 -14    2.79    0.23
  -1  -1 -14    2.67    0.22
  -1  -1 -14    1.98    0.22
   1   1  14    2.09    0.22
  -2  -1 -14    1.75    0.21
  -2  -1 -14    1.83    0.22
  -2  -1 -14    1.77    0.21
   2   1  14    2.16    0.23
  -3  -1 -14    0.01    0.08
  -3  -1 -14   -0.03    0.09
  -3  -1 -14   -0.03    0.08
   3   1  14    0.02    0.09
  -7   2  14    1.61    0.21
  -6   2  14    0.23    0.10
  -6   2  14    0.19    0.10
   5  -2 -14    1.62    0.18
  -5   2  14    1.44    0.19
  -5   2  14    1.97    0.20
   4  -2 -14    0.78    0.13
  -4   2  14    0.76    0.13
  -4   2  14    0.53    0.13
   3  -2 -14    9.88    0.39
   3  -2 -14   10.59    0.39
   3  -2 -14   11.08    0.42
   3  -2 -14    9.83    0.38
  -3   2  14   10.86    0.39
  -3   2  14   10.15    0.43
  -3   2  14   10.08    0.38
   2  -2 -14    2.97    0.22
   2  -2 -14    2.71    0.21
   2  -2 -14    2.63    0.20
   2  -2 -14    2.91    0.21
  -2   2  14    2.96    0.21
  -2   2  14    2.86    0.23
   1  -2 -14    0.01    0.08
   1  -2 -14    0.01    0.08
   1  -2 -14    0.02    0.07
   1  -2 -14   -0.01    0.07
  -1   2  14    0.08    0.09
  -1   2  14    0.00    0.07
   0  -2 -14    1.30    0.18
   0  -2 -14    1.19    0.17
   0  -2 -14    1.56    0.19
   0  -2 -14    1.27    0.18
   0   2  14    1.75    0.20
  -1  -2 -14    1.06    0.17
  -1  -2 -14    1.33    0.19
  -1  -2 -14    1.21    0.18
   1   2  14    1.08    0.17
  -2  -2 -14    4.06    0.28
  -2  -2 -14    3.74    0.27
  -2  -2 -14    4.00    0.28
   2   2  14    4.30    0.29
  -7   3  14    1.43    0.19
   6  -3 -14    0.02    0.07
  -6   3  14    0.13    0.09
  -6   3  14    0.12    0.09
   5  -3 -14    1.18    0.17
  -5   3  14    0.79    0.14
  -5   3  14    1.02    0.18
   4  -3 -14    1.34    0.18
  -4   3  14    1.63    0.21
   3  -3 -14    1.37    0.18
   3  -3 -14    1.47    0.17
   3  -3 -14    0.95    0.15
  -3   3  14    1.25    0.15
  -3   3  14    1.20    0.18
   2  -3 -14    1.22    0.17
   2  -3 -14    1.23    0.17
   2  -3 -14    0.82    0.15
   2  -3 -14    1.10    0.17
  -2   3  14    1.06    0.15
  -2   3  14    0.72    0.14
   1  -3 -14    3.77    0.26
   1  -3 -14    3.49    0.25
   1  -3 -14    3.83    0.25
   1  -3 -14    3.43    0.24
  -1   3  14    3.76    0.25
  -1   3  14    3.29    0.26
   0  -3 -14   -0.12    0.07
   0  -3 -14   -0.03    0.09
   0  -3 -14    0.04    0.09
   0   3  14   -0.10    0.07
  -1  -3 -14    0.20    0.11
  -1  -3 -14    0.30    0.12
  -1  -3 -14    0.30    0.12
   1   3  14    0.39    0.13
   6  -4 -14   -0.02    0.08
   5  -4 -14    1.02    0.17
   4  -4 -14    0.22    0.11
  -4   4  14    0.31    0.11
   3  -4 -14    5.14    0.28
   3  -4 -14    5.46    0.32
   3  -4 -14    5.44    0.29
  -3   4  14    4.97    0.32
   2  -4 -14    3.03    0.24
   2  -4 -14    3.50    0.24
   2  -4 -14    3.10    0.23
  -2   4  14    3.13    0.23
  -2   4  14    3.24    0.26
   1  -4 -14    0.99    0.17
   1  -4 -14    0.93    0.16
   1  -4 -14    0.85    0.16
  -1   4  14    0.91    0.17
  -1   4  14    1.04    0.16
   0  -4 -14    0.36    0.13
   0  -4 -14    0.30    0.12
   0  -4 -14    0.34    0.12
   0   4  14    0.36    0.13
   2  -5 -14    1.37    0.19
   2  -5 -14    1.63    0.20
  -2   5  14    1.60    0.19
   1  -5 -14    0.12    0.10
   1  -5 -14    0.10    0.10
  -1   5  14    0.17    0.10
   3   8 -15    0.12    0.11
   3   8 -15    0.12    0.10
  -3  -8  15    0.02    0.09
   2   8 -15    0.88    0.17
   2   8 -15    1.26    0.20
   2   8 -15    1.07    0.19
  -2  -8  15    0.98    0.17
   1   8 -15    0.71    0.16
   1   8 -15    0.47    0.14
  -1  -8  15    0.71    0.15
   0   8 -15    0.55    0.15
   0   8 -15    0.81    0.17
   0  -8  15    0.54    0.14
  -1   8 -15    1.19    0.19
  -1   8 -15    1.76    0.23
   1  -8  15    1.31    0.20
   4   7 -15    0.19    0.11
   4   7 -15    0.04    0.09
   4   7 -15    0.13    0.10
  -4  -7  15    0.09    0.09
   3   7 -15    0.15    0.10
   3   7 -15    0.14    0.10
   3   7 -15    0.09    0.09
  -3  -7  15    0.34    0.11
   2   7 -15    1.45    0.20
   2   7 -15    1.21    0.18
  -2  -7  15    0.81    0.15
   1   7 -15    1.73    0.22
   1   7 -15    1.43    0.20
  -1  -7  15    1.93    0.22
   0   7 -15    0.60    0.15
   0   7 -15    0.25    0.11
   0  -7  15    0.43    0.12
  -1   7 -15    1.32    0.19
  -1   7 -15    1.39    0.20
   1  -7  15    1.21    0.18
  -2   7 -15    0.52    0.14
  -2   7 -15    0.59    0.15
   2  -7  15    0.80    0.16
  -3   7 -15    0.08    0.10
  -3   7 -15    0.17    0.11
   4   6 -15    3.20    0.23
   4   6 -15    3.07    0.23
  -4  -6  15    2.98    0.25
  -4  -6  15    2.72    0.22
   3   6 -15    0.92    0.15
   3   6 -15    0.71    0.15
  -3  -6  15    0.75    0.14
   2   6 -15    0.10    0.11
   2   6 -15    0.14    0.10
  -2  -6  15    0.25    0.10
   1   6 -15    0.08    0.09
   1   6 -15   -0.02    0.09
  -1  -6  15    0.10    0.09
   0   6 -15    2.62    0.25
   0   6 -15    2.62    0.25
   0  -6  15    2.70    0.22
  -1   6 -15    0.53    0.14
  -1   6 -15    0.57    0.15
   1  -6  15    0.38    0.12
  -2   6 -15   -0.10    0.08
  -2   6 -15    0.15    0.11
   2  -6  15    0.17    0.10
  -3   6 -15    4.20    0.29
  -3   6 -15    3.90    0.29
   3  -6  15    4.03    0.28
  -5  -5  15    0.06    0.07
   4   5 -15    1.75    0.20
   4   5 -15    1.64    0.19
  -4  -5  15    1.22    0.18
  -4  -5  15    1.84    0.19
   3   5 -15    0.18    0.10
   3   5 -15    0.18    0.10
   3   5 -15    0.27    0.11
  -3  -5  15    0.18    0.10
   2   5 -15    2.80    0.23
   2   5 -15    2.58    0.21
  -2  -5  15    2.25    0.22
   1   5 -15    8.07    0.37
   1   5 -15    8.53    0.38
  -1  -5  15    8.39    0.38
   0   5 -15    0.21    0.10
   0   5 -15    0.35    0.12
   0  -5  15    0.31    0.11
  -1   5 -15    2.61    0.26
  -1   5 -15    2.42    0.24
  -1   5 -15    2.37    0.24
   1  -5  15    2.32    0.23
  -2   5 -15    1.74    0.21
  -2   5 -15    1.42    0.20
   2  -5  15    1.56    0.20
  -3   5 -15    0.66    0.15
  -3   5 -15    0.93    0.17
   3  -5  15    0.84    0.16
  -4   5 -15    3.77    0.28
  -4   5 -15    3.96    0.29
   4  -5  15    4.27    0.29
  -5  -4  15    0.10    0.09
   4   4 -15    0.90    0.14
   4   4 -15    0.78    0.14
  -4  -4  15    0.59    0.14
  -4  -4  15    0.76    0.13
   3   4 -15    4.31    0.29
   3   4 -15    4.24    0.26
   3   4 -15    4.45    0.26
  -3  -4  15    4.71    0.26
   2   4 -15    2.13    0.21
   2   4 -15    1.82    0.20
  -2  -4  15    2.26    0.21
   1   4 -15    0.75    0.14
   1   4 -15    0.48    0.12
  -1  -4  15    0.60    0.13
   0   4 -15    1.44    0.20
   0   4 -15    1.34    0.18
   0   4 -15    1.49    0.19
   0  -4  15    1.46    0.18
  -1   4 -15    0.05    0.09
  -1   4 -15    0.03    0.08
  -1   4 -15   -0.11    0.08
   1  -4  15    0.07    0.08
  -2   4 -15    6.76    0.35
  -2   4 -15    6.17    0.34
   2  -4  15    6.64    0.34
  -3   4 -15    0.09    0.10
  -3   4 -15    0.27    0.12
   3  -4  15    0.02    0.09
  -4   4 -15    0.10    0.10
  -4   4 -15   -0.08    0.09
   4  -4  15    0.04    0.09
  -5  -3  15    0.31    0.11
   4   3 -15    1.93    0.19
   4   3 -15    1.67    0.19
  -4  -3  15    1.85    0.21
  -4  -3  15    2.13    0.17
   3   3 -15    0.06    0.08
   3   3 -15    0.07    0.08
  -3  -3  15    0.03    0.08
  -3  -3  15   -0.06    0.06
   2   3 -15    4.14    0.26
   2   3 -15    4.18    0.25
   2   3 -15    3.52    0.24
  -2  -3  15    4.42    0.26
   1   3 -15    0.55    0.12
   1   3 -15    0.74    0.14
   1   3 -15    0.38    0.12
  -1  -3  15    0.61    0.13
   0   3 -15    0.13    0.09
   0   3 -15    0.26    0.10
   0   3 -15    0.20    0.10
   0  -3  15    0.34    0.11
   0  -3  15    0.28    0.08
  -1   3 -15    3.74    0.27
  -1   3 -15    3.26    0.24
  -1   3 -15    4.02    0.26
   1  -3  15    3.81    0.25
  -2   3 -15    0.18    0.11
  -2   3 -15    0.16    0.11
   2  -3  15    0.42    0.12
  -3   3 -15   -0.03    0.08
  -3   3 -15   -0.01    0.08
   3  -3  15    0.00    0.09
  -4   3 -15    1.56    0.21
  -4   3 -15    0.94    0.18
   4  -3  15    1.18    0.19
  -6  -2  15    0.16    0.10
  -6  -2  15    0.15    0.08
  -5  -2  15    0.00    0.07
  -5  -2  15   -0.02    0.06
   4   2 -15    0.53    0.12
   4   2 -15    0.55    0.11
  -4  -2  15    0.56    0.11
  -4  -2  15    0.58    0.13
   3   2 -15    2.39    0.20
   3   2 -15    2.62    0.20
   3   2 -15    2.69    0.20
  -3  -2  15    2.60    0.20
  -3  -2  15    2.68    0.19
  -3  -2  15    2.80    0.22
   2   2 -15    2.94    0.22
   2   2 -15    3.15    0.22
   2   2 -15    3.18    0.22
  -2  -2  15    2.83    0.19
  -2  -2  15    2.83    0.21
   1   2 -15    1.50    0.16
   1   2 -15    1.24    0.17
   1   2 -15    1.63    0.19
   1   2 -15    1.67    0.20
  -1  -2  15    1.21    0.15
  -1  -2  15    1.38    0.17
   0   2 -15    0.49    0.12
   0   2 -15    0.22    0.11
   0   2 -15    0.35    0.10
   0   2 -15    0.31    0.11
   0  -2  15    0.31    0.11
   0  -2  15    0.29    0.09
  -1   2 -15    0.49    0.13
  -1   2 -15    0.41    0.13
  -1   2 -15    0.45    0.13
   1  -2  15    0.22    0.09
  -2   2 -15    3.17    0.25
  -2   2 -15    2.99    0.24
   2  -2  15    3.08    0.23
  -3   2 -15    2.00    0.23
  -3   2 -15    2.42    0.24
   3  -2  15    2.29    0.24
  -7  -1  15    0.76    0.15
  -6  -1  15    0.11    0.08
  -6  -1  15   -0.01    0.07
  -5  -1  15    1.26    0.18
  -5  -1  15    1.04    0.15
  -4  -1  15    5.33    0.30
  -4  -1  15    5.17    0.28
   3   1 -15    0.01    0.08
   3   1 -15   -0.04    0.07
   3   1 -15    0.05    0.08
  -3  -1  15    0.10    0.08
  -3  -1  15    0.04    0.07
  -3  -1  15    0.01    0.06
   2   1 -15    3.13    0.22
   2   1 -15    2.87    0.21
   2   1 -15    3.00    0.22
   2   1 -15    3.06    0.20
  -2  -1  15    3.30    0.22
  -2  -1  15    3.07    0.22
  -2  -1  15    3.44    0.22
   1   1 -15    4.45    0.27
   1   1 -15    4.42    0.26
   1   1 -15    4.50    0.28
   1   1 -15    5.05    0.26
  -1  -1  15    4.75    0.27
  -1  -1  15    4.46    0.26
   0   1 -15    2.52    0.24
   0   1 -15    2.08    0.18
   0   1 -15    2.26    0.23
   0   1 -15    2.33    0.22
   0  -1  15    2.06    0.21
   0  -1  15    2.31    0.19
  -1   1 -15    1.83    0.19
  -1   1 -15    1.44    0.19
  -1   1 -15    1.73    0.20
  -1   1 -15    1.96    0.23
   1  -1  15    1.84    0.20
  -2   1 -15    0.05    0.09
  -2   1 -15    0.01    0.08
  -2   1 -15   -0.02    0.08
   2  -1  15    0.00    0.08
  -3   1 -15    0.61    0.15
  -3   1 -15    0.52    0.13
   3  -1  15    0.47    0.13
  -7   0  15   -0.06    0.07
  -6   0  15    1.34    0.19
  -6   0  15    1.50    0.19
  -5   0  15    0.38    0.12
  -5   0  15    0.46    0.12
  -4   0  15    7.55    0.35
  -4   0  15    7.15    0.35
   3   0 -15    5.38    0.28
   3   0 -15    4.86    0.27
   3   0 -15    5.22    0.29
   3   0 -15    5.62    0.27
  -3   0  15    5.94    0.31
  -3   0  15    5.68    0.28
  -3   0  15    5.06    0.28
   2   0 -15   -0.07    0.07
   2   0 -15    0.05    0.08
   2   0 -15    0.04    0.08
   2   0 -15    0.05    0.07
  -2   0  15   -0.05    0.06
  -2   0  15   -0.05    0.06
  -2   0  15    0.05    0.07
   1   0 -15    1.28    0.18
   1   0 -15    1.05    0.15
   1   0 -15    0.97    0.15
   1   0 -15    1.07    0.16
  -1   0  15    0.85    0.13
  -1   0  15    0.94    0.15
  -1   0  15    0.99    0.15
   0   0 -15    0.17    0.10
   0   0 -15    0.02    0.08
   0   0 -15    0.19    0.09
   0   0 -15    0.05    0.09
   0   0  15    0.05    0.08
  -1   0 -15    3.06    0.24
  -1   0 -15    2.73    0.23
  -1   0 -15    3.12    0.23
   1   0  15    3.31    0.24
  -2   0 -15    3.98    0.27
  -2   0 -15    3.74    0.28
  -2   0 -15    3.36    0.25
   2   0  15    3.88    0.27
  -6   1  15    0.27    0.11
  -6   1  15    0.29    0.11
  -5   1  15    4.42    0.27
  -5   1  15    3.91    0.27
   4  -1 -15    1.69    0.18
  -4   1  15    1.75    0.19
  -4   1  15    1.78    0.21
   3  -1 -15    0.37    0.11
   3  -1 -15    0.60    0.12
   3  -1 -15    0.51    0.12
  -3   1  15    0.37    0.10
  -3   1  15    0.43    0.10
  -3   1  15    0.58    0.13
   2  -1 -15    0.46    0.11
   2  -1 -15    0.47    0.12
   2  -1 -15    0.58    0.13
   2  -1 -15    0.44    0.12
  -2   1  15    0.51    0.11
  -2   1  15    0.35    0.11
  -2   1  15    0.43    0.11
   1  -1 -15    0.14    0.10
   1  -1 -15    0.07    0.10
   1  -1 -15   -0.03    0.07
   1  -1 -15   -0.01    0.07
  -1   1  15    0.09    0.09
  -1   1  15   -0.01    0.07
   0  -1 -15    1.33    0.19
   0  -1 -15    1.43    0.19
   0  -1 -15    1.34    0.19
   0  -1 -15    1.21    0.18
   0   1  15    1.67    0.20
  -1  -1 -15    3.39    0.25
  -1  -1 -15    3.77    0.26
  -1  -1 -15    3.45    0.26
   1   1  15    3.00    0.24
  -2  -1 -15    0.65    0.16
  -2  -1 -15    0.61    0.14
  -2  -1 -15    0.68    0.16
   2   1  15    0.68    0.15
  -6   2  15    1.01    0.17
  -5   2  15    1.21    0.19
  -5   2  15    0.88    0.15
   4  -2 -15    2.26    0.20
  -4   2  15    2.73    0.23
  -4   2  15    2.24    0.19
   3  -2 -15    2.09    0.20
   3  -2 -15    1.85    0.20
   3  -2 -15    1.88    0.21
  -3   2  15    2.47    0.19
  -3   2  15    1.67    0.21
   2  -2 -15   -0.01    0.07
   2  -2 -15    0.09    0.09
   2  -2 -15    0.09    0.09
   2  -2 -15    0.05    0.09
  -2   2  15    0.12    0.09
  -2   2  15    0.13    0.09
   1  -2 -15    3.22    0.24
   1  -2 -15    3.13    0.23
   1  -2 -15    2.84    0.24
   1  -2 -15    3.72    0.25
  -1   2  15    3.31    0.23
   0  -2 -15    0.12    0.10
   0  -2 -15    0.04    0.09
   0  -2 -15    0.04    0.08
   0   2  15    0.02    0.08
  -1  -2 -15    3.02    0.25
  -1  -2 -15    2.80    0.24
  -1  -2 -15    2.96    0.25
   1   2  15    3.52    0.26
  -6   3  15    0.27    0.10
   5  -3 -15    0.57    0.14
   4  -3 -15    0.30    0.11
  -4   3  15    0.16    0.11
   3  -3 -15    2.33    0.22
   3  -3 -15    1.93    0.22
   3  -3 -15    2.13    0.22
  -3   3  15    2.77    0.27
   2  -3 -15    1.39    0.19
   2  -3 -15    0.87    0.15
   2  -3 -15    1.07    0.17
   2  -3 -15    1.18    0.17
  -2   3  15    1.05    0.18
  -2   3  15    0.69    0.14
   1  -3 -15    0.14    0.10
   1  -3 -15    0.00    0.09
   1  -3 -15    0.06    0.09
  -1   3  15    0.11    0.09
  -1   3  15    0.07    0.09
   0  -3 -15    0.52    0.14
   0  -3 -15    0.60    0.14
   0   3  15    0.58    0.14
   2  -4 -15    0.36    0.12
   2  -4 -15    0.22    0.11
  -2   4  15    0.06    0.09
   4   7 -16    1.11    0.18
   4   7 -16    1.22    0.19
   3   7 -16    0.03    0.10
   3   7 -16   -0.04    0.09
   3   7 -16    0.07    0.10
  -3  -7  16    0.02    0.10
   2   7 -16    2.22    0.25
   2   7 -16    1.80    0.23
  -2  -7  16    1.98    0.23
   1   7 -16   -0.04    0.10
   1   7 -16    0.00    0.10
  -1  -7  16    0.03    0.09
   0   7 -16    1.07    0.18
   0   7 -16    1.00    0.18
   0  -7  16    1.15    0.18
   4   6 -16    2.30    0.24
   4   6 -16    1.84    0.21
   4   6 -16    2.41    0.25
   3   6 -16    0.63    0.15
   3   6 -16    0.61    0.14
  -3  -6  16    0.59    0.14
   2   6 -16   -0.07    0.09
   2   6 -16    0.12    0.10
  -2  -6  16    0.02    0.09
   1   6 -16    0.38    0.14
   1   6 -16    0.52    0.14
  -1  -6  16    0.41    0.13
   0   6 -16    0.00    0.09
   0   6 -16    0.01    0.09
   0  -6  16   -0.01    0.08
  -1   6 -16    4.56    0.31
  -1   6 -16    4.26    0.30
   1  -6  16    4.06    0.28
   4   5 -16    0.14    0.10
   4   5 -16    0.10    0.09
   3   5 -16    0.45    0.13
   3   5 -16    0.69    0.15
  -3  -5  16    0.47    0.12
   2   5 -16    0.05    0.09
   2   5 -16   -0.05    0.08
  -2  -5  16    0.13    0.09
   1   5 -16    1.62    0.20
   1   5 -16    1.57    0.20
  -1  -5  16    1.25    0.18
   0   5 -16    3.90    0.28
   0   5 -16    4.00    0.28
   0  -5  16    4.41    0.28
  -1   5 -16    2.00    0.23
  -1   5 -16    1.83    0.22
   1  -5  16    2.17    0.24
  -2   5 -16    0.10    0.10
  -2   5 -16   -0.05    0.09
   2  -5  16   -0.03    0.08
  -4  -4  16    0.52    0.13
   3   4 -16    0.77    0.15
   3   4 -16    0.46    0.13
  -3  -4  16    0.46    0.12
   2   4 -16    1.27    0.18
   2   4 -16    1.15    0.17
  -2  -4  16    1.36    0.18
   1   4 -16    0.61    0.14
   1   4 -16    0.49    0.13
  -1  -4  16    0.43    0.12
   0   4 -16   -0.04    0.09
   0   4 -16    0.05    0.10
   0  -4  16   -0.02    0.09
  -1   4 -16    2.45    0.25
  -1   4 -16    2.11    0.23
   1  -4  16    2.15    0.23
  -2   4 -16    0.50    0.14
  -2   4 -16    0.94    0.17
   2  -4  16    0.77    0.15
  -4  -3  16    0.05    0.08
   3   3 -16    0.28    0.11
   3   3 -16    0.55    0.13
  -3  -3  16    0.34    0.11
  -3  -3  16    0.25    0.10
   2   3 -16    2.59    0.22
   2   3 -16    2.63    0.22
   2   3 -16    1.94    0.21
  -2  -3  16    2.47    0.20
   1   3 -16    1.78    0.21
   1   3 -16    1.42    0.19
   1   3 -16    1.29    0.19
  -1  -3  16    1.50    0.19
   0   3 -16    2.87    0.23
   0   3 -16    3.00    0.25
   0   3 -16    2.44    0.24
   0  -3  16    3.26    0.24
  -1   3 -16    0.05    0.09
  -1   3 -16   -0.05    0.08
   1  -3  16    0.15    0.10
  -2   3 -16    0.30    0.12
  -2   3 -16    0.29    0.12
   2  -3  16    0.17    0.11
  -5  -2  16    0.72    0.15
  -4  -2  16    1.89    0.22
   3   2 -16   -0.02    0.08
   3   2 -16    0.04    0.08
  -3  -2  16    0.02    0.07
  -3  -2  16   -0.05    0.06
  -3  -2  16   -0.06    0.06
   2   2 -16    2.20    0.22
   2   2 -16    2.44    0.21
   2   2 -16    2.83    0.22
  -2  -2  16    2.46    0.19
  -2  -2  16    2.51    0.21
   1   2 -16    1.51    0.19
   1   2 -16    1.84    0.21
   1   2 -16    1.52    0.20
  -1  -2  16    1.70    0.18
  -1  -2  16    1.44    0.18
   0   2 -16    0.61    0.12
   0   2 -16    0.84    0.16
   0   2 -16    0.78    0.16
   0   2 -16    0.94    0.17
   0  -2  16    0.59    0.12
   0  -2  16    0.63    0.14
  -1   2 -16    2.77    0.26
  -1   2 -16    2.23    0.24
   1  -2  16    2.28    0.24
  -2   2 -16    0.17    0.11
  -2   2 -16    0.31    0.13
   2  -2  16    0.43    0.13
  -6  -1  16    0.67    0.13
  -5  -1  16    2.48    0.25
  -5  -1  16    2.31    0.23
  -4  -1  16    0.31    0.11
  -4  -1  16    0.28    0.10
   3   1 -16    2.93    0.21
   3   1 -16    3.05    0.22
  -3  -1  16    2.95    0.22
  -3  -1  16    2.59    0.21
  -3  -1  16    2.94    0.21
   2   1 -16    0.05    0.09
   2   1 -16    0.18    0.10
   2   1 -16    0.09    0.09
  -2  -1  16   -0.06    0.07
  -2  -1  16    0.05    0.07
  -2  -1  16    0.06    0.07
   1   1 -16    1.21    0.17
   1   1 -16    1.25    0.18
   1   1 -16    1.66    0.18
   1   1 -16    1.55    0.19
  -1  -1  16    1.79    0.20
  -1  -1  16    1.20    0.16
   0   1 -16    1.74    0.19
   0   1 -16    1.59    0.20
   0   1 -16    1.57    0.20
   0  -1  16    2.03    0.21
   0  -1  16    1.54    0.19
  -1   1 -16    0.13    0.11
  -1   1 -16    0.06    0.08
  -1   1 -16    0.19    0.10
   1  -1  16    0.10    0.10
  -6   0  16    0.04    0.08
  -5   0  16    4.01    0.27
  -5   0  16    3.79    0.26
  -4   0  16    2.33    0.23
  -4   0  16    2.10    0.23
   3   0 -16    0.46    0.12
   3   0 -16    0.37    0.11
  -3   0  16    0.37    0.11
  -3   0  16    0.42    0.12
  -3   0  16    0.40    0.11
   2   0 -16    2.01    0.21
   2   0 -16    2.48    0.23
   2   0 -16    2.42    0.24
   2   0 -16    1.85    0.19
  -2   0  16    1.91    0.20
  -2   0  16    1.70    0.20
  -2   0  16    2.01    0.20
   1   0 -16   -0.03    0.08
   1   0 -16    0.03    0.09
   1   0 -16    0.15    0.08
   1   0 -16   -0.05    0.09
  -1   0  16    0.12    0.09
  -1   0  16    0.13    0.07
  -1   0  16    0.03    0.07
   0   0 -16    0.86    0.15
   0   0 -16    1.12    0.18
   0   0 -16    1.21    0.18
   0   0  16    1.07    0.16
   0   0  16    1.08    0.17
  -1   0 -16    0.61    0.15
  -1   0 -16    0.48    0.12
  -1   0 -16    0.49    0.14
   1   0  16    0.49    0.14
  -2   0 -16    0.77    0.15
  -5   1  16    0.23    0.10
  -5   1  16    0.13    0.09
  -4   1  16    1.26    0.18
  -4   1  16    1.33    0.18
   3  -1 -16    0.18    0.09
   3  -1 -16    0.10    0.09
   3  -1 -16    0.12    0.09
  -3   1  16    0.25    0.09
  -3   1  16    0.13    0.08
   2  -1 -16    0.07    0.09
   2  -1 -16    0.05    0.09
   2  -1 -16    0.10    0.09
   2  -1 -16    0.10    0.10
  -2   1  16    0.08    0.09
  -2   1  16    0.15    0.10
   1  -1 -16    0.17    0.10
   1  -1 -16    0.07    0.10
   1  -1 -16    0.09    0.10
  -1   1  16    0.15    0.10
  -1   1  16    0.13    0.09
   0  -1 -16   -0.05    0.07
   0  -1 -16    0.13    0.11
   0  -1 -16   -0.02    0.10
   0   1  16   -0.15    0.08
   0   1  16    0.12    0.10
  -1  -1 -16    1.36    0.19
  -5   2  16    0.02    0.08
   4  -2 -16    0.29    0.11
   3  -2 -16    0.08    0.08
  -3   2  16   -0.16    0.06
   2  -2 -16    1.84    0.21
   2  -2 -16    1.87    0.21
   2  -2 -16    1.99    0.22
  -2   2  16    1.67    0.22
  -2   2  16    2.06    0.22
   1  -2 -16    0.24    0.11
   1  -2 -16    0.06    0.10
   1  -2 -16    0.13    0.09
  -1   2  16    0.04    0.09
  -1   2  16    0.13    0.10
   4  -3 -16    5.33    0.32
   2  -3 -16    0.21    0.11
   2  -3 -16    0.21    0.11
  -2   3  16    0.08    0.11
   3   6 -17    0.64    0.16
   3   6 -17    0.72    0.16
  -3  -6  17    0.57    0.14
   2   6 -17    0.30    0.13
  -2  -6  17    0.29    0.12
   3   5 -17    0.76    0.16
   3   5 -17    0.41    0.13
  -3  -5  17    0.56    0.13
   2   5 -17    0.42    0.13
   2   5 -17    0.65    0.15
  -2  -5  17    0.30    0.11
   1   5 -17    0.81    0.17
   1   5 -17    0.99    0.18
  -1  -5  17    0.99    0.17
   0   5 -17    0.06    0.11
   0   5 -17   -0.07    0.09
   0  -5  17    0.04    0.09
   3   4 -17    0.45    0.14
   3   4 -17    0.67    0.15
  -3  -4  17    0.99    0.16
   2   4 -17    1.00    0.17
   2   4 -17    0.57    0.14
  -2  -4  17    0.91    0.16
   1   4 -17    0.09    0.10
   1   4 -17    0.15    0.11
  -1  -4  17    0.12    0.10
   0   4 -17    1.09    0.18
   0   4 -17    1.31    0.20
   0  -4  17    1.16    0.18
   3   3 -17    1.53    0.20
   3   3 -17    1.34    0.19
  -3  -3  17    1.55    0.21
  -3  -3  17    1.53    0.19
   2   3 -17    0.22    0.11
   2   3 -17    0.26    0.12
  -2  -3  17    0.50    0.13
   1   3 -17    1.42    0.20
   1   3 -17    1.35    0.19
  -1  -3  17    1.83    0.22
   0   3 -17    0.26    0.12
   0   3 -17    0.26    0.12
   0  -3  17    0.11    0.10
   3   2 -17    3.03    0.23
   3   2 -17    2.97    0.23
  -3  -2  17    3.20    0.25
  -3  -2  17    3.02    0.23
   2   2 -17    0.08    0.10
   2   2 -17   -0.07    0.08
  -2  -2  17    0.00    0.08
  -2  -2  17   -0.05    0.07
   1   2 -17    3.45    0.26
   1   2 -17    3.40    0.26
  -1  -2  17    3.62    0.26
   0   2 -17    1.73    0.22
   0   2 -17    1.65    0.21
   0  -2  17    2.22    0.24
  -4  -1  17    3.07    0.23
  -4  -1  17    2.82    0.24
   3   1 -17    0.22    0.11
   3   1 -17    0.10    0.09
  -3  -1  17    0.26    0.10
  -3  -1  17    0.26    0.11
   2   1 -17    0.06    0.09
   2   1 -17    0.04    0.08
  -2  -1  17   -0.01    0.08
  -2  -1  17    0.00    0.07
  -2  -1  17    0.11    0.08
   1   1 -17    0.31    0.13
   1   1 -17    0.23    0.13
  -1  -1  17    0.17    0.10
  -1  -1  17    0.28    0.10
  -1  -1  17    0.25    0.10
   0   1 -17    0.65    0.15
   0   1 -17    0.54    0.13
   0   1 -17    0.69    0.15
   0  -1  17    0.72    0.16
   0  -1  17    0.45    0.12
  -1   1 -17    0.69    0.14
  -4   0  17    0.64    0.14
  -4   0  17    0.47    0.12
  -3   0  17    0.00    0.08
  -3   0  17    0.16    0.09
   2   0 -17   -0.10    0.09
   2   0 -17    0.10    0.11
  -2   0  17   -0.05    0.08
  -2   0  17    0.01    0.07
   1   0 -17    0.51    0.13
   1   0 -17    0.39    0.13
   1   0 -17    0.58    0.14
  -1   0  17    0.53    0.13
  -1   0  17    0.66    0.14
   0   0 -17    4.03    0.27
   2  -1 -17    0.42    0.13
   2  -1 -17    0.44    0.13
   2  -1 -17    0.33    0.12
  -2   1  17    0.38    0.12
   1  -1 -17    1.78    0.21
   3   3 -18    0.21    0.12
   0   0   0    0.00    0.00
;
_shelx_hkl_checksum              77770
loop_
_space_group_symop_operation_xyz
'x, y, z'
'-x, -y, -z'
loop_
_atom_site_label
_atom_site_type_symbol
_atom_site_fract_x
_atom_site_fract_y
_atom_site_fract_z
_atom_site_U_iso_or_equiv
_atom_site_adp_type
_atom_site_occupancy
_atom_site_site_symmetry_order
_atom_site_calc_flag
_atom_site_refinement_flags_posn
_atom_site_refinement_flags_adp
Co1 Co 0.69709(2) 0.78336(2) 0.74426(2) 0.03005(7) Uani 1 1 d . .
S1C S 1.12471(6) 0.48890(6) 0.67214(5) 0.05688(13) Uani 1 1 d . .
S2C S 0.49770(7) 0.31178(5) 0.84311(4) 0.05671(13) Uani 1 1 d . .
O2 O 0.41030(14) 0.90836(13) 0.78596(8) 0.0392(2) Uani 1 1 d . .
N1 N 0.24652(16) 0.90254(15) 0.61806(10) 0.0361(3) Uani 1 1 d . .
H1A H 0.1687 0.9460 0.6529 0.043 Uiso 1 1 calc R U
O21 O 0.96341(15) 1.03177(14) 0.70326(9) 0.0423(2) Uani 1 1 d . .
N3 N 0.50968(14) 0.80828(13) 0.62546(9) 0.0290(2) Uani 1 1 d . .
N31 N 0.83102(14) 0.99914(13) 0.85337(9) 0.0291(2) Uani 1 1 d . .
N2C N 0.59352(19) 0.62992(17) 0.82883(12) 0.0460(3) Uani 1 1 d . .
N1C N 0.8569(2) 0.65736(17) 0.67056(13) 0.0472(3) Uani 1 1 d . .
C41 C 0.81043(18) 1.06147(17) 0.96168(11) 0.0334(3) Uani 1 1 d . .
C21 C 0.94680(18) 1.08743(17) 0.80245(12) 0.0327(3) Uani 1 1 d . .
C2 C 0.38795(17) 0.87481(15) 0.68073(11) 0.0293(3) Uani 1 1 d . .
N11 N 1.04356(18) 1.23924(17) 0.86509(13) 0.0478(3) Uani 1 1 d . .
H11A H 1.1186 1.2971 0.8334 0.057 Uiso 1 1 calc R U
C5 C 0.3410(2) 0.8004(2) 0.44632(12) 0.0428(3) Uani 1 1 d . .
H5 H 0.3261 0.7752 0.3663 0.051 Uiso 1 1 calc R U
C6 C 0.2224(2) 0.8647(2) 0.50262(13) 0.0407(3) Uani 1 1 d . .
H6 H 0.1212 0.8837 0.4617 0.049 Uiso 1 1 calc R U
C51 C 0.9120(2) 1.2203(2) 1.02500(13) 0.0452(4) Uani 1 1 d . .
H51 H 0.8981 1.2653 1.1003 0.054 Uiso 1 1 calc R U
C4 C 0.48864(19) 0.77212(18) 0.51123(12) 0.0351(3) Uani 1 1 d . .
N41 N 0.70003(19) 0.97145(18) 1.00831(11) 0.0454(3) Uani 1 1 d . .
H41A H 0.6413 0.8732 0.9696 0.054 Uiso 1 1 calc R U
H41B H 0.6851 1.0096 1.0781 0.054 Uiso 1 1 calc R U
N4 N 0.6105(2) 0.7083(2) 0.46106(12) 0.0568(4) Uani 1 1 d . .
H4A H 0.7012 0.6908 0.5020 0.068 Uiso 1 1 calc R U
H4B H 0.6000 0.6837 0.3870 0.068 Uiso 1 1 calc R U
C1C C 0.96765(19) 0.58409(17) 0.66977(12) 0.0364(3) Uani 1 1 d . .
C2C C 0.55267(19) 0.49827(18) 0.83672(12) 0.0368(3) Uani 1 1 d . .
C61 C 1.0274(2) 1.3027(2) 0.97364(17) 0.0527(4) Uani 1 1 d . .
H61 H 1.0986 1.4069 1.0138 0.063 Uiso 1 1 calc R U
loop_
_atom_site_aniso_label
_atom_site_aniso_U_11
_atom_site_aniso_U_22
_atom_site_aniso_U_33
_atom_site_aniso_U_23
_atom_site_aniso_U_13
_atom_site_aniso_U_12
Co1 0.03111(12) 0.03356(11) 0.02698(10) 0.00666(7) 0.00534(7) 0.01258(7)
S1C 0.0442(2) 0.0569(3) 0.0775(3) 0.0168(2) 0.0146(2) 0.0287(2)
S2C 0.0681(3) 0.0437(2) 0.0617(3) 0.0219(2) 0.0202(2) 0.0071(2)
O2 0.0437(6) 0.0500(6) 0.0270(5) 0.0069(4) 0.0118(4) 0.0191(5)
N1 0.0327(6) 0.0475(7) 0.0357(6) 0.0133(5) 0.0112(5) 0.0208(5)
O21 0.0441(6) 0.0556(6) 0.0384(5) 0.0192(5) 0.0188(5) 0.0225(5)
N3 0.0282(5) 0.0352(5) 0.0250(5) 0.0057(4) 0.0073(4) 0.0118(4)
N31 0.0276(5) 0.0351(5) 0.0262(5) 0.0066(4) 0.0071(4) 0.0116(4)
N2C 0.0441(7) 0.0470(7) 0.0484(8) 0.0194(6) 0.0055(6) 0.0078(6)
N1C 0.0481(8) 0.0484(7) 0.0491(8) 0.0069(6) 0.0125(6) 0.0248(6)
C41 0.0325(7) 0.0430(7) 0.0267(6) 0.0052(5) 0.0035(5) 0.0191(5)
C21 0.0282(6) 0.0387(7) 0.0368(7) 0.0140(5) 0.0077(5) 0.0146(5)
C2 0.0281(6) 0.0321(6) 0.0291(6) 0.0080(5) 0.0080(5) 0.0091(5)
N11 0.0422(7) 0.0412(7) 0.0575(9) 0.0136(6) 0.0104(6) 0.0031(5)
C5 0.0433(8) 0.0596(9) 0.0260(6) 0.0083(6) 0.0026(6) 0.0188(7)
C6 0.0352(7) 0.0538(9) 0.0357(7) 0.0148(6) 0.0013(6) 0.0158(6)
C51 0.0536(10) 0.0453(8) 0.0323(7) -0.0016(6) -0.0024(6) 0.0216(7)
C4 0.0339(7) 0.0433(7) 0.0287(6) 0.0059(5) 0.0079(5) 0.0140(6)
N41 0.0502(8) 0.0594(8) 0.0287(6) 0.0082(5) 0.0171(5) 0.0163(6)
N4 0.0551(9) 0.0927(12) 0.0288(6) 0.0045(7) 0.0130(6) 0.0418(9)
C1C 0.0359(7) 0.0356(7) 0.0364(7) 0.0041(5) 0.0089(6) 0.0108(5)
C2C 0.0336(7) 0.0446(7) 0.0318(7) 0.0118(6) 0.0061(5) 0.0067(6)
C61 0.0504(10) 0.0371(8) 0.0596(11) 0.0010(7) -0.0083(8) 0.0097(7)
loop_
_atom_type_symbol
_atom_type_description
_atom_type_scat_dispersion_real
_atom_type_scat_dispersion_imag
_atom_type_scat_source
C C 0.0033 0.0016 'International Tables Vol C Tables 4.2.6.8 and 6.1.1.4'
H H 0.0000 0.0000 'International Tables Vol C Tables 4.2.6.8 and 6.1.1.4'
N N 0.0061 0.0033 'International Tables Vol C Tables 4.2.6.8 and 6.1.1.4'
O O 0.0106 0.0060 'International Tables Vol C Tables 4.2.6.8 and 6.1.1.4'
S S 0.1246 0.1234 'International Tables Vol C Tables 4.2.6.8 and 6.1.1.4'
Co Co 0.3494 0.9721 'International Tables Vol C Tables 4.2.6.8 and 6.1.1.4'
loop_
_geom_angle_atom_site_label_1
_geom_angle_atom_site_label_2
_geom_angle_atom_site_label_3
_geom_angle
N1C Co1 N2C 97.89(6)
N1C Co1 N3 109.91(5)
N2C Co1 N3 112.08(5)
N1C Co1 N31 113.56(5)
N2C Co1 N31 110.36(5)
N3 Co1 N31 112.26(4)
C2 N1 C6 121.93(12)
C4 N3 C2 120.14(12)
C4 N3 Co1 132.44(9)
C2 N3 Co1 107.43(8)
C41 N31 C21 120.63(12)
C41 N31 Co1 128.21(9)
C21 N31 Co1 111.07(8)
C2C N2C Co1 149.49(13)
C1C N1C Co1 154.09(14)
N41 C41 N31 118.73(13)
N41 C41 C51 120.71(13)
N31 C41 C51 120.53(14)
O21 C21 N31 120.65(13)
O21 C21 N11 121.56(13)
N31 C21 N11 117.79(12)
O2 C2 N1 122.27(12)
O2 C2 N3 119.20(12)
N1 C2 N3 118.54(11)
C61 N11 C21 122.59(14)
C6 C5 C4 117.54(13)
C5 C6 N1 120.68(14)
C61 C51 C41 117.50(14)
N4 C4 N3 118.13(13)
N4 C4 C5 120.70(13)
N3 C4 C5 121.17(12)
N1C C1C S1C 177.90(15)
N2C C2C S2C 177.82(14)
C51 C61 N11 120.93(15)
loop_
_geom_bond_atom_site_label_1
_geom_bond_atom_site_label_2
_geom_bond_distance
Co1 N1C 1.9868(13)
Co1 N2C 1.9919(14)
Co1 N3 2.0275(11)
Co1 N31 2.0380(11)
S1C C1C 1.6152(15)
S2C C2C 1.6292(16)
O2 C2 1.2482(16)
N1 C2 1.3662(18)
N1 C6 1.3692(19)
O21 C21 1.2417(17)
N3 C4 1.3560(17)
N3 C2 1.3745(16)
N31 C41 1.3643(16)
N31 C21 1.3698(17)
N2C C2C 1.165(2)
N1C C1C 1.174(2)
C41 N41 1.3188(19)
C41 C51 1.439(2)
C21 N11 1.3815(19)
N11 C61 1.359(2)
C5 C6 1.351(2)
C5 C4 1.420(2)
C51 C61 1.344(3)
C4 N4 1.3351(19)
