#------------------------------------------------------------------------------
#$Date: 2017-03-04 15:11:25 +0200 (Sat, 04 Mar 2017) $
#$Revision: 193426 $
#$URL: file:///home/coder/svn-repositories/cod/cif/4/34/51/4345161.cif $
#------------------------------------------------------------------------------
#
# This file is available in the Crystallography Open Database (COD),
# http://www.crystallography.net/
#
# All data on this site have been placed in the public domain by the
# contributors.
#
data_4345161
loop_
_publ_author_name
'Marinho, Maria Vanda'
'Reis, Daniella O.'
'Oliveira, Willian X. C.'
'Marques, Lippy F.'
'Stumpf, Humberto O.'
'D\'eniz, Mariadel'
'Pas\'an, Jorge'
'Ruiz-P\'erez, Catalina'
'Cano, Joan'
'Lloret, Francesc'
'Julve, Miguel'
_publ_section_title
;
 Photoluminescent and Slow Magnetic Relaxation Studies on
 Lanthanide(III)-2,5-pyrazinedicarboxylate Frameworks.
;
_journal_issue                   4
_journal_name_full               'Inorganic chemistry'
_journal_page_first              2108
_journal_page_last               2123
_journal_paper_doi               10.1021/acs.inorgchem.6b02774
_journal_volume                  56
_journal_year                    2017
_chemical_formula_sum            'C9 H13 Eu N3 O11'
_chemical_formula_weight         491.10
_chemical_name_systematic
;
 ?
;
_space_group_crystal_system      triclinic
_space_group_IT_number           2
_space_group_name_Hall           '-P 1'
_space_group_name_H-M_alt        'P -1'
_symmetry_space_group_name_Hall  '-P 1'
_symmetry_space_group_name_H-M   'P -1'
_atom_sites_solution_hydrogens   geom
_audit_creation_method           SHELXL-2013
_cell_angle_alpha                71.630(3)
_cell_angle_beta                 89.254(3)
_cell_angle_gamma                89.101(3)
_cell_formula_units_Z            2
_cell_length_a                   6.0520(2)
_cell_length_b                   10.4994(3)
_cell_length_c                   13.4547(4)
_cell_measurement_reflns_used    12346
_cell_measurement_temperature    293(2)
_cell_measurement_theta_max      73.613
_cell_measurement_theta_min      3.461
_cell_volume                     811.25(5)
_computing_cell_refinement
;
CrysAlisPro, Agilent Technologies,
Version 1.171.37.31f (release 05-03-2014 CrysAlis171 .NET)
(compiled Mar  5 2014,18:34:03)
;
_computing_data_collection
;
CrysAlisPro, Agilent Technologies,
Version 1.171.37.31f (release 05-03-2014 CrysAlis171 .NET)
(compiled Mar  5 2014,18:34:03)
;
_computing_data_reduction
;
CrysAlisPro, Agilent Technologies,
Version 1.171.37.31f (release 05-03-2014 CrysAlis171 .NET)
(compiled Mar  5 2014,18:34:03)
;
_computing_structure_refinement  'SHELXL-2013 (Sheldrick, 2013)'
_computing_structure_solution    'SHELXS-97 (Sheldrick, 1997)'
_diffrn_ambient_temperature      293(2)
_diffrn_detector                 'CCD plate'
_diffrn_detector_area_resol_mean 10.5953
_diffrn_detector_type            Atlas
_diffrn_measured_fraction_theta_full 0.998
_diffrn_measured_fraction_theta_max 0.979
_diffrn_measurement_device_type  'SuperNova, Dual, Cu at zero, Atlas'
_diffrn_measurement_method       'w scans'
_diffrn_radiation_monochromator  mirror
_diffrn_radiation_type           CuK\a
_diffrn_radiation_wavelength     1.5418
_diffrn_reflns_av_R_equivalents  0.0453
_diffrn_reflns_av_unetI/netI     0.0311
_diffrn_reflns_Laue_measured_fraction_full 0.998
_diffrn_reflns_Laue_measured_fraction_max 0.979
_diffrn_reflns_limit_h_max       7
_diffrn_reflns_limit_h_min       -7
_diffrn_reflns_limit_k_max       12
_diffrn_reflns_limit_k_min       -12
_diffrn_reflns_limit_l_max       16
_diffrn_reflns_limit_l_min       -16
_diffrn_reflns_number            12344
_diffrn_reflns_point_group_measured_fraction_full 0.998
_diffrn_reflns_point_group_measured_fraction_max 0.979
_diffrn_reflns_theta_full        67.680
_diffrn_reflns_theta_max         73.613
_diffrn_reflns_theta_min         3.461
_diffrn_source                   'sealed X-ray tube'
_exptl_absorpt_coefficient_mu    28.271
_exptl_absorpt_correction_T_max  0.429
_exptl_absorpt_correction_T_min  0.058
_exptl_absorpt_correction_type   gaussian
_exptl_absorpt_process_details
;
CrysAlisPro, Agilent Technologies,
Version 1.171.35.21 (release 20-01-2012 CrysAlis171 .NET)
(compiled Jan 23 2012,18:06:46)
Numerical absorption correction based on gaussian integration over
            a multifaceted crystal model
;
_exptl_crystal_colour            yellow
_exptl_crystal_density_diffrn    2.010
_exptl_crystal_description       needle
_exptl_crystal_F_000             458
_exptl_crystal_size_max          0.250
_exptl_crystal_size_mid          0.080
_exptl_crystal_size_min          0.050
_refine_diff_density_max         0.671
_refine_diff_density_min         -0.646
_refine_diff_density_rms         0.110
_refine_ls_extinction_coef       0.0078(3)
_refine_ls_extinction_expression Fc^*^=kFc[1+0.001xFc^2^\l^3^/sin(2\q)]^-1/4^
_refine_ls_extinction_method     SHELXL
_refine_ls_goodness_of_fit_ref   1.096
_refine_ls_hydrogen_treatment    constr
_refine_ls_matrix_type           full
_refine_ls_number_parameters     226
_refine_ls_number_reflns         3204
_refine_ls_number_restraints     0
_refine_ls_restrained_S_all      1.096
_refine_ls_R_factor_all          0.0286
_refine_ls_R_factor_gt           0.0274
_refine_ls_shift/su_max          0.000
_refine_ls_shift/su_mean         0.000
_refine_ls_structure_factor_coef Fsqd
_refine_ls_weighting_details
'w=1/[\s^2^(Fo^2^)+(0.0381P)^2^+1.3904P] where P=(Fo^2^+2Fc^2^)/3'
_refine_ls_weighting_scheme      calc
_refine_ls_wR_factor_gt          0.0727
_refine_ls_wR_factor_ref         0.0731
_reflns_Friedel_coverage         0.000
_reflns_number_gt                3141
_reflns_number_total             3204
_reflns_threshold_expression     'I > 2\s(I)'
_cod_data_source_file            ic6b02774_si_004.cif
_cod_data_source_block           compound_4
_cod_depositor_comments
'Adding full bibliography for 4345159--4345161.cif.'
_cod_original_cell_volume        811.25(4)
_cod_database_code               4345161
_shelx_space_group_comment
;
The symmetry employed for this shelxl refinement is uniquely defined
by the following loop, which should always be used as a source of
symmetry information in preference to the above space-group names.
They are only intended as comments.
;
_shelx_estimated_absorpt_t_min   0.053
_shelx_estimated_absorpt_t_max   0.332
_shelxl_version_number           2013-4
_shelx_res_file
;
TITL ull2381 in P -1
CELL  1.54180   6.0520  10.4994  13.4547   71.630   89.254   89.101
ZERR     2.00   0.0002   0.0003   0.0004    0.003    0.003    0.003
LATT   1
SFAC  C    H    N    EU   O
UNIT  18   6    6    2    22
MERG   2
EQIV $1 -x, -y+1, -z+2
EQIV $2  -x+1, -y+2, -z+1
FMAP   2
PLAN   20
SIZE     0.050   0.080   0.250
OMIT  -5 1 11
OMIT  -3 4 14
ACTA
BOND
L.S.  30
TEMP    20.00
WGHT    0.038100    1.390400
EXTI    0.007769
FVAR       7.77719
EU1   4    0.250427    0.659490    0.707074    11.00000    0.01603    0.02600 =
         0.01457   -0.00474    0.00116    0.00189
N1    3    0.080215    0.884983    0.575964    11.00000    0.02417    0.03395 =
         0.02595   -0.00473    0.00309   -0.00055
N2    3    0.433264    0.555987    0.896598    11.00000    0.02949    0.03192 =
         0.02061   -0.00574    0.00203   -0.00160
N3    3    0.091400    0.573032    0.559021    11.00000    0.01874    0.03682 =
         0.02044   -0.00932    0.00309    0.00088
O1    5    0.450753    0.768728    0.546430    11.00000    0.02752    0.03749 =
         0.02747   -0.00184    0.00348    0.00451
O3    5    0.065325    0.701927    0.851387    11.00000    0.03101    0.05494 =
         0.02307   -0.01420    0.00000    0.01098
O5    5   -0.148284    0.641665    0.699509    11.00000    0.02310    0.03843 =
         0.02777   -0.01693    0.00355    0.00168
O2    5    0.505069    0.914308    0.388168    11.00000    0.04348    0.04526 =
         0.03433    0.00239    0.01630    0.01055
O4    5   -0.001080    0.682045    1.017324    11.00000    0.04998    0.06706 =
         0.02426   -0.01069    0.00693    0.02009
O6    5   -0.441409    0.527606    0.676309    11.00000    0.01772    0.03419 =
         0.02586   -0.00903    0.00531    0.00173
O1W   5    0.155672    0.421338    0.781997    11.00000    0.03704    0.03285 =
         0.02932   -0.00464    0.00537   -0.00205
O2W   5    0.444526    0.836893    0.743972    11.00000    0.05082    0.03755 =
         0.03123   -0.00701   -0.00085   -0.01200
C1    1    0.398556    0.869131    0.470711    11.00000    0.02906    0.03005 =
         0.02821   -0.00564    0.00084   -0.00096
C2    1    0.186451    0.939283    0.485202    11.00000    0.02509    0.03485 =
         0.02552   -0.00873    0.00051   -0.00060
C3    1   -0.106392    0.946102    0.590329    11.00000    0.03088    0.03749 =
         0.02720   -0.00241    0.00337    0.00169
AFIX  43
H3    2   -0.185406    0.911268    0.652527    11.00000   -1.20000
AFIX   0
C4    1    0.109954    0.659778    0.947213    11.00000    0.02909    0.03657 =
         0.02231   -0.00894    0.00423   -0.00083
C5    1    0.317409    0.574446    0.975872    11.00000    0.02650    0.03153 =
         0.02056   -0.00704    0.00174   -0.00407
C6    1    0.615633    0.481162    0.920916    11.00000    0.02933    0.03890 =
         0.01929   -0.00674    0.00314    0.00266
AFIX  43
H6    2    0.700452    0.465628    0.867664    11.00000   -1.20000
AFIX   0
C7    1   -0.247180    0.569416    0.657086    11.00000    0.01879    0.02894 =
         0.01743   -0.00372   -0.00016    0.00479
C8    1   -0.116487    0.529317    0.574616    11.00000    0.01739    0.03355 =
         0.01700   -0.00570    0.00190    0.00480
O3W   5    0.619933    0.839175    0.930213    11.00000    0.10206    0.08671 =
         0.09254   -0.04236   -0.04939    0.03316
PART    1
O4WA  5    0.153679    0.233847    0.675534    10.50000    0.07097
PART    2
O4WB  5    0.319638    0.199726    0.749690    10.50000    0.12760
PART    0
O5W   5    0.019564    0.015251    0.845379    10.50000    0.18265    0.11197 =
         0.20507    0.01394    0.07527   -0.03921
O6W   5    0.360061    0.853165    1.115200    10.50000    0.20435    0.26886 =
         0.44619   -0.29059    0.06232   -0.05992
C9    1    0.208187    0.543721    0.484099    11.00000    0.01823    0.03724 =
         0.02421   -0.00978    0.00232   -0.00098
AFIX  43
H9    2    0.353262    0.572676    0.471017    11.00000   -1.20000
AFIX   0
HKLF    4

REM  ull2381 in P -1
REM R1 =  0.0274 for    3141 Fo > 4sig(Fo)  and  0.0286 for all    3204 data
REM    226 parameters refined using      0 restraints

END

WGHT      0.0401      1.1634

REM Highest difference peak  0.671,  deepest hole -0.646,  1-sigma level  0.110
Q1    1   0.2189  0.2075  0.7238  11.00000  0.05    0.67
Q2    1   0.4011  0.1915  0.7788  11.00000  0.05    0.67
Q3    1   0.1565  0.8822  1.1480  11.00000  0.05    0.66
Q4    1   0.3169  0.7004  0.6388  11.00000  0.05    0.63
Q5    1   0.0923  0.3883  0.8463  11.00000  0.05    0.61
Q6    1   0.2002  0.6237  0.7778  11.00000  0.05    0.59
Q7    1   0.2431  0.7496  0.6843  11.00000  0.05    0.59
Q8    1   0.4581  0.9219  0.7049  11.00000  0.05    0.56
Q9    1   0.3549  0.7657  1.2353  11.00000  0.05    0.55
Q10   1   0.4193  0.9044  1.1075  11.00000  0.05    0.50
Q11   1   0.0162 -0.0041  0.8221  11.00000  0.05    0.46
Q12   1   0.2661  0.5596  0.7367  11.00000  0.05    0.46
Q13   1   0.3277  0.9233  1.0281  11.00000  0.05    0.43
Q14   1   0.1144 -0.0033  0.8597  11.00000  0.05    0.41
Q15   1   0.4275  0.7744  1.1389  11.00000  0.05    0.41
Q16   1   0.0929  0.2419  0.6473  11.00000  0.05    0.39
Q17   1   0.4009  0.6663  0.7008  11.00000  0.05    0.39
Q18   1   0.4891  0.8381  0.8129  11.00000  0.05    0.38
Q19   1   0.0743  0.0044  0.9357  11.00000  0.05    0.38
Q20   1   0.7424  0.7898  0.9482  11.00000  0.05    0.37
;
_shelx_res_checksum              30785
_shelx_hkl_file
;
  -2 -12  -1 13774.2 541.721  48
  -2 -12  -2 8894.32 471.411  48
  -2 -12  -3 31042.0 837.196  52
  -2 -12  -3 36629.9 1050.25  48
  -2 -12  -4 718.192 206.510  48
  -2 -12  -4 598.418 144.831  52
  -2 -12  -5 37298.6 1125.36  48
  -2 -12  -5 32954.6 926.217  52
  -2 -12  -6 19280.7 668.712  52
  -2 -12  -6 21419.1 829.855  48
  -2 -12  -7 6295.52 355.669  52
  -2 -12  -7 7793.27 492.477  48
  -2 -12  -8 20002.9 756.844  48
  -2 -12  -9 405.564 148.441  48
  -1 -12   1 24440.7 721.801  48
  -1 -12   0 6111.39 398.785  48
  -1 -12  -1 24764.1 886.856  48
  -1 -12  -2 17269.4 782.435  48
  -1 -12  -3 950.090 282.521  48
  -1 -12  -4 32947.4 1182.23  48
  -1 -12  -5 1391.65 317.622  48
  -1 -12  -6 24378.3 1029.63  48
  -1 -12  -7 19382.8 907.083  48
  -1 -12  -8 3018.21 388.204  48
  -1 -12  -9 22577.0 891.582  48
  -1 -12 -10 293.010 166.145  48
   0 -12   1 7241.66 381.529  48
   0 -12   0 29450.0 913.120  48
   0 -12  -1 14971.5 683.896  48
   0 -12  -2 15943.0 634.507  31
   0 -12  -2 14705.3 720.471  48
   0 -12  -3 44264.9 1350.53  48
   0 -12  -3 43142.3 1190.87  31
   0 -12  -4 994.120 283.135  48
   0 -12  -4 1008.41 229.898  31
   0 -12  -5 30012.7 1132.37  48
   0 -12  -5 30490.6 1043.19  31
   0 -12  -6 12322.3 717.404  48
   0 -12  -6 11200.7 631.903  31
   0 -12  -7 8562.18 595.682  48
   0 -12  -7 8817.79 567.751  31
   0 -12  -8 30325.7 1039.44  31
   0 -12  -8 31330.4 1101.91  48
   0 -12  -9 775.976 223.685  48
   0 -12  -9 1296.00 241.984  31
   0 -12 -10 27801.3 894.003  48
   0 -12 -10 29624.9 901.532  31
   1 -12   0 10315.3 456.605  31
   1 -12  -1 24752.2 811.634  31
   1 -12  -1 21159.2 694.701  48
   1 -12  -2 37144.0 1036.34  48
   1 -12  -2 41630.6 1164.27  31
   1 -12  -3 1569.98 234.952  48
   1 -12  -3 1504.69 273.634  31
   1 -12  -4 29842.1 967.126  48
   1 -12  -4 33462.2 1105.00  31
   1 -12  -5 2252.24 328.730  31
   1 -12  -5 1537.51 243.645  48
   1 -12  -6 48258.3 1293.45  48
   1 -12  -6 56811.0 1522.24  31
   1 -12  -7 80215.9 1855.59  31
   1 -12  -7 68306.9 1573.00  48
   1 -12  -8 8605.72 542.539  31
   1 -12  -8 6431.50 383.861  48
   1 -12  -9 42310.8 1187.96  31
   1 -12 -10 1610.30 221.416  31
   2 -12  -1 25339.1 764.588  31
   2 -12  -2 2493.37 266.176  31
   2 -12  -2 2085.81 207.419  37
   2 -12  -3 42991.5 1152.51  31
   2 -12  -3 39910.4 1090.03  37
   2 -12  -4 1899.28 269.699  31
   2 -12  -5 18812.2 765.306  31
   2 -12  -6 11827.8 593.086  31
   2 -12  -7 13666.3 615.545  31
   2 -12  -8 48278.6 1188.61  31
   2 -12  -9 1473.96 181.197  31
  -4 -11  -3 26153.9 784.243  52
  -4 -11  -4 16751.6 634.453  52
  -4 -11  -5 406.459 141.888  52
  -4 -11  -6 28435.9 854.353  52
  -3 -11   1 2530.45 227.610  52
  -3 -11   0 20330.5 725.550  52
  -3 -11  -1 1069.13 222.038  52
  -3 -11  -2 20942.5 741.101  48
  -3 -11  -2 22009.5 874.224  52
  -3 -11  -3 13239.0 709.126  52
  -3 -11  -3 12291.9 588.935  48
  -3 -11  -4 8283.35 582.659  52
  -3 -11  -4 7312.55 475.666  48
  -3 -11  -5 21525.7 838.546  48
  -3 -11  -5 24151.3 998.047  52
  -3 -11  -6 23.1482 236.561  52
  -3 -11  -6 62.4297 156.523  48
  -3 -11  -7 27380.6 935.792  48
  -3 -11  -7 28351.2 1083.18  52
  -3 -11  -8 13428.4 699.734  52
  -3 -11  -8 12391.7 582.183  48
  -3 -11  -9 13770.6 560.391  48
  -3 -11  -9 15473.8 699.176  52
  -3 -11 -10 24215.2 803.800  52
  -2 -11   2 25698.2 740.464  52
  -2 -11   2 28701.7 848.473  48
  -2 -11   1 49966.9 1257.17  52
  -2 -11   1 52420.7 1357.19  48
  -2 -11   0 680.400 241.800  48
  -2 -11   0 827.808 213.168  52
  -2 -11  -1 47224.6 1432.24  48
  -2 -11  -1 45252.4 1346.98  52
  -2 -11  -2 4103.60 426.074  52
  -2 -11  -2 4187.55 464.888  48
  -2 -11  -3 33292.3 1229.35  52
  -2 -11  -3 32541.6 1259.75  48
  -2 -11  -4 55308.5 1673.68  52
  -2 -11  -4 52007.3 1682.90  48
  -2 -11  -5 313.658 240.350  52
  -2 -11  -5 281.512 294.053  48
  -2 -11  -6 55253.5 1721.13  52
  -2 -11  -6 56494.2 1789.47  48
  -2 -11  -7 6562.10 662.642  32
  -2 -11  -7 5767.70 544.957  52
  -2 -11  -7 6228.34 614.237  48
  -2 -11  -8 23028.8 1097.74  32
  -2 -11  -8 21595.7 1058.83  48
  -2 -11  -9 36740.2 1339.90  48
  -2 -11  -9 40130.4 1388.75  32
  -2 -11 -10 8725.57 598.877  32
  -2 -11 -10 7311.78 558.795  48
  -2 -11 -11 44093.9 1262.96  48
  -2 -11 -11 44143.2 1244.89  32
  -1 -11   2 32158.9 1073.68  48
  -1 -11   1 5513.14 502.770  48
  -1 -11   0 56295.0 1686.92  48
  -1 -11  -1 684.941 340.910  48
  -1 -11  -2 31514.7 1330.44  48
  -1 -11  -3 33159.2 1416.29  48
  -1 -11  -4 12255.3 899.418  48
  -1 -11  -4 11807.2 656.713  31
  -1 -11  -5 30477.4 1124.59  31
  -1 -11  -5 35616.3 1511.30  48
  -1 -11  -6 547.368 432.527  48
  -1 -11  -6 1134.90 283.643  31
  -1 -11  -7 58950.2 2007.10  48
  -1 -11  -7 52581.1 1622.19  31
  -1 -11  -7 58084.3 1872.32  32
  -1 -11  -8 9589.48 744.339  32
  -1 -11  -8 9800.63 835.099  48
  -1 -11  -9 22168.1 1172.99  48
  -1 -11  -9 23005.7 1071.16  32
  -1 -11 -10 45126.7 1581.78  48
  -1 -11 -10 43502.7 1408.14  32
  -1 -11 -11 1149.29 312.293  48
  -1 -11 -11 1247.55 255.052  32
  -1 -11 -12 32122.5 1064.91  48
  -1 -11 -12 29748.8 863.931  32
   0 -11   2 4301.98 412.130  48
   0 -11   1 46558.0 1440.02  48
   0 -11   1 43283.9 1199.52  31
   0 -11   0 336.472 285.736  48
   0 -11   0 401.182 202.665  31
   0 -11  -1 60519.1 1833.68  48
   0 -11  -1 57032.5 1624.04  31
   0 -11  -2 16337.6 853.289  31
   0 -11  -2 17815.3 997.469  48
   0 -11  -3 17994.7 920.970  31
   0 -11  -3 17605.7 1019.39  48
   0 -11  -4 57261.2 1912.25  48
   0 -11  -4 55598.6 1746.31  31
   0 -11  -5 6459.81 605.097  31
   0 -11  -5 5629.56 655.909  48
   0 -11  -6 64786.5 1979.34  31
   0 -11  -6 66158.6 2132.82  48
   0 -11  -7 5565.57 631.409  31
   0 -11  -7 5221.62 635.945  48
   0 -11  -8 42258.5 1637.06  48
   0 -11  -9 33875.6 1405.17  48
   0 -11 -10 11007.0 754.385  48
   0 -11 -11 36577.0 1268.86  48
   0 -11 -12 1110.65 233.590  48
   1 -11   3 20019.1 649.316  31
   1 -11   2 13751.0 620.101  31
   1 -11   1 4465.17 406.781  48
   1 -11   1 5346.76 446.834  31
   1 -11   0 42323.7 1336.49  48
   1 -11   0 45390.5 1399.45  31
   1 -11  -1 6798.22 578.060  31
   1 -11  -1 6365.96 538.105  48
   1 -11  -2 42523.5 1433.56  48
   1 -11  -2 46283.1 1533.45  31
   1 -11  -3 15623.4 904.345  31
   1 -11  -3 15943.6 865.995  48
   1 -11  -4 40802.6 1457.62  48
   1 -11  -4 48577.7 1653.67  31
   1 -11  -5 83187.1 2212.86  48
   1 -11  -5 86529.2 2351.15  31
   1 -11  -6 540.364 271.869  48
   1 -11  -6 843.676 420.938  31
   1 -11  -7 117373. 2820.56  31
   1 -11  -7 101083. 2514.28  48
   1 -11  -8 16810.1 889.090  48
   1 -11  -8 18895.4 1047.86  31
   1 -11  -9 35288.3 1234.29  48
   1 -11 -10 37252.2 1173.57  48
   1 -11 -11 5236.40 370.092  48
   2 -11   2 12954.4 570.222  31
   2 -11   1 42548.4 1215.46  31
   2 -11   0 232.032 148.540  37
   2 -11   0 153.921 208.563  31
   2 -11  -1 42661.0 1350.02  31
   2 -11  -1 38049.6 1227.97  37
   2 -11  -2 29361.7 1156.92  31
   2 -11  -3 24019.5 1062.20  31
   2 -11  -4 64695.2 1873.94  31
   2 -11  -5 600.692 300.496  31
   2 -11  -6 31855.0 1255.79  31
   2 -11  -7 16072.8 874.737  31
   2 -11  -8 65977.3 1808.19  31
   2 -11  -9 16267.2 788.927  31
   2 -11 -10 4952.78 406.169  31
   2 -11 -11 23516.8 768.812  31
   3 -11   1 1236.58 166.262  31
   3 -11   0 45550.5 1132.12  31
   3 -11   0 42360.3 1022.52  37
   3 -11  -1 2145.68 270.073  31
   3 -11  -1 2204.32 267.905  37
   3 -11  -2 23210.9 890.326  37
   3 -11  -2 23534.0 857.433  31
   3 -11  -3 24439.9 845.643  35
   3 -11  -3 26783.7 938.938  31
   3 -11  -3 26247.4 1003.08  37
   3 -11  -4 12210.3 631.184  31
   3 -11  -4 11871.4 696.513  37
   3 -11  -5 48482.6 1351.97  31
   3 -11  -6 196.909 171.445  31
   3 -11  -7 42147.3 1161.31  31
   3 -11  -8 5749.19 366.036  31
  -4 -10   1 19842.6 707.963  52
  -4 -10   0 14562.3 656.321  52
  -4 -10  -1 3938.18 388.411  52
  -4 -10  -2 61231.1 1652.00  52
  -4 -10  -3 897.954 283.191  52
  -4 -10  -4 21337.3 971.405  52
  -4 -10  -5 31239.0 1196.40  52
  -4 -10  -6 4348.11 459.914  52
  -4 -10  -7 43473.5 1409.89  52
  -4 -10  -8 471.529 212.827  52
  -4 -10  -9 22824.6 883.423  52
  -4 -10 -10 5899.07 390.750  52
  -3 -10   3 199.625 148.007  52
  -3 -10   3 332.256 110.419  26
  -3 -10   2 62068.2 1580.76  52
  -3 -10   1 31738.3 1147.15  52
  -3 -10   1 30014.0 971.693  48
  -3 -10   0 2889.68 417.541  52
  -3 -10   0 2866.29 336.145  48
  -3 -10  -1 12988.9 711.579  48
  -3 -10  -1 13452.7 839.966  52
  -3 -10  -2 1620.56 318.919  48
  -3 -10  -2 1326.25 390.397  52
  -3 -10  -3 39409.6 1542.84  52
  -3 -10  -3 37355.3 1331.91  48
  -3 -10  -4 4790.07 493.650  48
  -3 -10  -4 4751.73 597.655  52
  -3 -10  -5 11618.9 880.166  52
  -3 -10  -5 10884.8 738.362  48
  -3 -10  -6 34123.4 1324.14  48
  -3 -10  -6 37826.8 1484.00  32
  -3 -10  -7 1574.92 427.569  32
  -3 -10  -7 1176.70 317.105  48
  -3 -10  -8 36331.4 1346.68  48
  -3 -10  -8 41138.2 1524.30  32
  -3 -10  -9 960.913 344.517  32
  -3 -10  -9 968.703 272.491  48
  -3 -10 -10 41031.3 1371.83  32
  -3 -10 -10 35673.2 1184.67  48
  -3 -10 -11 13133.8 687.586  32
  -3 -10 -11 11596.6 565.012  48
  -3 -10 -12 5673.47 385.816  32
  -2 -10   5 26383.6 763.512  26
  -2 -10   4 4595.61 348.019  52
  -2 -10   3 49087.3 1372.20  52
  -2 -10   3 49919.5 1411.78  48
  -2 -10   2 4982.54 467.608  52
  -2 -10   2 4995.20 488.141  48
  -2 -10   1 59951.5 1775.03  48
  -2 -10   1 57014.2 1725.90  52
  -2 -10   0 43126.6 1538.28  48
  -2 -10   0 42068.3 1512.52  52
  -2 -10  -1 9657.59 756.901  48
  -2 -10  -1 9994.28 768.183  52
  -2 -10  -2 59254.5 1955.36  48
  -2 -10  -2 63578.3 2017.62  52
  -2 -10  -3 2063.59 472.162  48
  -2 -10  -3 2467.79 457.657  52
  -2 -10  -4 48625.3 1826.33  48
  -2 -10  -4 49848.4 1851.78  52
  -2 -10  -5 31461.0 1519.76  32
  -2 -10  -5 31017.0 1471.54  48
  -2 -10  -6 38732.4 1706.10  32
  -2 -10  -6 35601.6 1602.96  48
  -2 -10  -7 91735.0 2740.92  48
  -2 -10  -7 99744.1 2888.25  32
  -2 -10  -8 51.3085 454.727  32
  -2 -10  -8 114.352 401.586  48
  -2 -10  -9 63516.8 2209.28  53
  -2 -10  -9 63613.2 2182.30  48
  -2 -10  -9 67228.8 2241.62  32
  -2 -10 -10 16566.9 1043.39  32
  -2 -10 -10 16354.2 1026.98  48
  -2 -10 -10 16528.3 1045.80  53
  -2 -10 -11 26665.0 1197.49  32
  -2 -10 -11 23513.3 1147.16  53
  -2 -10 -11 23744.0 1146.96  48
  -2 -10 -12 24196.9 1020.15  32
  -2 -10 -12 23277.4 1008.98  53
  -2 -10 -12 23989.7 1038.22  48
  -2 -10 -13 401.236 187.381  48
  -2 -10 -13 523.904 180.446  32
  -2 -10 -13 534.493 172.920  53
  -1 -10   5 5617.74 402.795  26
  -1 -10   3 5462.54 415.697  52
  -1 -10   3 5447.74 552.091  48
  -1 -10   2 32963.0 1341.57  48
  -1 -10   2 32089.1 1115.76  52
  -1 -10   1 24420.1 1221.57  48
  -1 -10   1 24970.6 1031.30  52
  -1 -10   0 31591.1 1418.51  48
  -1 -10   0 30102.9 1192.10  52
  -1 -10  -1 48176.5 1832.86  48
  -1 -10  -1 46385.5 1564.92  52
  -1 -10  -2-109.047 398.905  48
  -1 -10  -2 186.237 226.998  52
  -1 -10  -2 200.497 187.891  31
  -1 -10  -3 73305.9 1986.32  31
  -1 -10  -3 70703.8 2114.78  52
  -1 -10  -4 27282.8 1446.02  48
  -1 -10  -4 25397.4 1226.27  52
  -1 -10  -4 26251.6 1149.83  31
  -1 -10  -5 44692.0 1814.83  32
  -1 -10  -5 43647.2 1579.19  31
  -1 -10  -5 43759.8 1893.95  48
  -1 -10  -6 50747.2 2088.36  48
  -1 -10  -6 52990.9 2020.14  32
  -1 -10  -7 27732.8 1452.31  32
  -1 -10  -7 27092.3 1549.23  48
  -1 -10  -8 77202.5 2420.92  53
  -1 -10  -8 77264.0 2663.86  48
  -1 -10  -8 78875.3 2530.86  32
  -1 -10  -9 7540.87 786.973  32
  -1 -10  -9 9567.58 1005.50  48
  -1 -10  -9 8475.54 779.833  53
  -1 -10 -10 35163.8 1534.30  32
  -1 -10 -10 38055.4 1529.99  53
  -1 -10 -11 10086.2 726.769  53
  -1 -10 -11 9794.43 761.861  32
  -1 -10 -12 16105.2 850.105  32
  -1 -10 -12 15590.9 784.617  53
  -1 -10 -13 43761.1 1425.42  48
  -1 -10 -13 43117.7 1223.66  32
  -1 -10 -14-17.2281 143.689  48
   0 -10   5 65655.8 1526.06  26
   0 -10   4 360.890 145.666  31
   0 -10   3 28384.0 1185.56  48
   0 -10   3 28174.1 998.979  31
   0 -10   2 6198.62 514.597  31
   0 -10   2 6384.41 641.803  48
   0 -10   1 45261.4 1672.99  48
   0 -10   1 43001.9 1457.26  31
   0 -10   0 85374.7 2440.05  48
   0 -10   0 80213.8 2179.21  31
   0 -10  -1 1377.14 338.714  31
   0 -10  -1 1345.53 429.197  48
   0 -10  -2 65313.8 2033.86  31
   0 -10  -2 67961.4 2231.01  48
   0 -10  -3 25860.7 1255.73  31
   0 -10  -3 28531.0 1425.63  48
   0 -10  -4 75789.7 2471.58  48
   0 -10  -4 76958.7 2315.47  31
   0 -10  -5 69481.0 2390.73  48
   0 -10  -6 23751.3 1240.87  32
   0 -10  -6 24178.2 1398.29  48
   0 -10  -7 60274.8 3750.89  17
   0 -10  -7 63376.7 2087.50  32
   0 -10  -7 66538.0 2391.09  48
   0 -10  -8 371.779 445.032  48
   0 -10  -8 322.989 289.867  32
   0 -10  -8 501.635 652.399  17
   0 -10  -9 60583.1 2276.30  48
   0 -10  -9 55478.7 1874.95  32
   0 -10 -10 17118.6 1158.34  48
   0 -10 -10 15923.1 907.533  32
   0 -10 -11 23156.3 999.825  32
   0 -10 -13 6362.76 530.259  48
   1 -10   5 3308.11 278.976  31
   1 -10   4 53096.4 1404.44  31
   1 -10   3 543.345 245.794  48
   1 -10   3 617.331 250.069  31
   1 -10   2 22106.3 1024.40  31
   1 -10   2 21521.1 1016.04  48
   1 -10   1 14230.5 865.702  48
   1 -10   1 14073.4 868.947  31
   1 -10   0 24578.2 1176.26  31
   1 -10   0 21979.5 1107.49  48
   1 -10  -1 74064.4 2194.13  48
   1 -10  -1 79002.9 2274.12  31
   1 -10  -2 6.31685 334.515  31
   1 -10  -2 104.906 287.718  48
   1 -10  -3 97965.0 2652.72  48
   1 -10  -3 100550. 2749.28  31
   1 -10  -4 22072.3 1174.10  48
   1 -10  -4 22269.0 1246.09  31
   1 -10  -5 31588.5 1446.14  48
   1 -10  -5 34977.0 1576.18  31
   1 -10  -6 29760.4 1416.97  48
   1 -10  -6 27356.7 2378.79  20
   1 -10  -6 33466.8 1429.41  16
   1 -10  -7 31460.8 1443.35  16
   1 -10  -7 29571.2 1411.93  48
   1 -10  -8 124129. 3148.52  48
   1 -10  -8 118594. 5303.05  20
   1 -10  -9 2760.20 478.482  48
   1 -10 -10 51179.2 1754.33  48
   1 -10 -11 46642.1 1547.97  48
   1 -10 -12 29081.4 1054.99  48
   2 -10   5 32640.2 863.752  31
   2 -10   4 3580.32 339.669  31
   2 -10   3 64962.5 1693.13  31
   2 -10   2 12243.5 747.069  31
   2 -10   1 32258.0 1149.02  37
   2 -10   1 33359.8 1312.87  31
   2 -10   0 67866.5 2024.23  31
   2 -10  -1 2694.13 494.413  31
   2 -10  -2 67108.1 2095.57  31
   2 -10  -3 393.923 361.267  31
   2 -10  -4 127766. 3148.16  31
   2 -10  -5 49788.8 1834.26  31
   2 -10  -5 46845.4 3032.74  20
   2 -10  -6 5373.20 1120.64  20
   2 -10  -6 7240.46 739.104  31
   2 -10  -7 73741.9 3988.91  20
   2 -10  -7 72862.5 2266.73  31
   3 -10   3 3650.80 314.745  31
   3 -10   2 51572.8 1242.88  37
   3 -10   2 56780.3 1448.22  31
   3 -10   1 51547.6 1440.82  37
   3 -10   1 55626.2 1528.88  31
   3 -10   0 10321.8 669.088  37
   3 -10   0 11391.7 694.636  31
   3 -10  -1 45713.9 1547.13  37
   3 -10  -1 43191.4 1317.50  35
   3 -10  -1 44322.4 1460.64  31
   3 -10  -2 1604.46 348.005  31
   3 -10  -3 76002.8 2068.62  31
   3 -10  -4 5660.46 549.704  31
   3 -10  -5 36390.8 1350.40  31
   3 -10  -6 48505.3 1594.97  31
   3 -10  -7 3685.04 442.066  31
   3 -10  -8 59101.5 1651.73  31
   3 -10  -9 5378.25 437.080  31
   3 -10 -10 25941.1 831.274  31
   4 -10   0 29255.0 916.482  37
   4 -10   0 24814.2 738.394  31
   4 -10  -1 14568.7 701.944  37
   4 -10  -1 13220.1 573.335  35
   4 -10  -1 13114.1 551.549  31
   4 -10  -2 59295.9 1378.50  31
   4 -10  -2 58033.8 1496.99  35
   4 -10  -3 1309.59 283.241  35
   4 -10  -3 1268.83 211.747  31
   4 -10  -3 1773.99 333.411  37
   4 -10  -4 45017.3 1445.54  37
   4 -10  -4 43717.7 1382.56  35
   4 -10  -5 28969.3 1109.72  37
   4 -10  -6 20733.1 870.241  37
   4 -10  -7 28050.5 922.279  37
  -5  -9   0 4745.90 330.151  52
  -5  -9  -1 13588.1 608.738  52
  -5  -9  -2 24821.0 887.205  52
  -5  -9  -3 836.503 221.849  52
  -5  -9  -4 27959.5 949.705  42
  -5  -9  -4 28133.2 1006.34  52
  -5  -9  -5 1304.34 233.115  42
  -5  -9  -5 1375.93 260.969  52
  -5  -9  -6 29561.7 953.487  42
  -5  -9  -6 31431.0 1048.84  52
  -5  -9  -7 13732.0 583.320  42
  -5  -9  -7 15602.4 684.281  52
  -5  -9  -8 9665.82 483.152  52
  -4  -9   4 15094.8 571.366  52
  -4  -9   3 20193.4 773.187  52
  -4  -9   2 40610.5 1259.98  52
  -4  -9   1 433.152 269.963  52
  -4  -9   0 32338.8 1271.22  52
  -4  -9  -1 15296.7 915.681  52
  -4  -9  -2 36578.1 1469.27  52
  -4  -9  -3 52003.6 1825.23  52
  -4  -9  -3 54667.5 1678.17  42
  -4  -9  -4 235.430 368.788  52
  -4  -9  -4 262.136 236.302  42
  -4  -9  -5 54645.0 1922.86  52
  -4  -9  -5 56969.9 1777.96  42
  -4  -9  -6 19165.3 992.977  42
  -4  -9  -6 18498.5 932.407  32
  -4  -9  -7 22548.9 1048.47  42
  -4  -9  -7 23385.5 1051.15  32
  -4  -9  -8 22156.7 988.187  42
  -4  -9  -8 22541.3 1015.92  32
  -4  -9  -9 6103.24 478.837  42
  -4  -9  -9 7103.02 540.733  32
  -4  -9 -10 66014.4 1644.02  32
  -4  -9 -11 4754.30 354.368  32
  -3  -9   5 10062.0 465.944  26
  -3  -9   5 11955.9 579.428  52
  -3  -9   4 33062.0 1148.22  52
  -3  -9   4 34661.4 1074.32  26
  -3  -9   3 87001.4 1974.66  48
  -3  -9   3 91731.0 2243.59  52
  -3  -9   2 800.218 358.414  52
  -3  -9   2 1081.07 274.462  48
  -3  -9   1 40504.9 1563.65  52
  -3  -9   1 37780.4 1348.94  48
  -3  -9   0 15597.2 877.156  48
  -3  -9   0 17288.1 1064.65  52
  -3  -9  -1 12676.7 958.839  52
  -3  -9  -1 12477.1 807.684  48
  -3  -9  -2 43298.3 1575.87  48
  -3  -9  -2 44220.3 1802.64  52
  -3  -9  -3 28044.1 1458.60  52
  -3  -9  -3 27272.8 1247.36  48
  -3  -9  -4 45157.1 1682.24  48
  -3  -9  -4 46829.2 1771.41  32
  -3  -9  -5 13044.2 964.184  32
  -3  -9  -5 12912.6 898.924  48
  -3  -9  -6 48547.5 1900.07  32
  -3  -9  -6 46698.3 1765.74  48
  -3  -9  -7 27253.8 1327.50  48
  -3  -9  -7 27055.9 1433.26  32
  -3  -9  -7 28134.7 1611.59  53
  -3  -9  -8 10486.5 845.231  48
  -3  -9  -8 11197.2 957.624  32
  -3  -9  -8 10986.1 1045.08  53
  -3  -9  -9 23700.1 1449.94  53
  -3  -9  -9 21741.7 1175.16  48
  -3  -9  -9 22221.9 1296.71  32
  -3  -9 -10 3277.70 482.234  48
  -3  -9 -10 3242.70 634.691  53
  -3  -9 -10 3318.54 559.292  32
  -3  -9 -11 36118.6 1458.60  32
  -3  -9 -11 31599.7 1250.41  48
  -3  -9 -11 35017.5 1543.55  53
  -3  -9 -12 7971.71 614.171  32
  -3  -9 -12 7725.36 660.933  53
  -3  -9 -12 7438.93 518.390  48
  -3  -9 -13 14362.9 730.142  53
  -3  -9 -13 15088.6 696.418  32
  -2  -9   7 40035.6 951.236  26
  -2  -9   6 7765.45 475.814  26
  -2  -9   5 27359.6 1022.60  52
  -2  -9   4 19915.8 961.470  52
  -2  -9   4 20632.3 973.007  48
  -2  -9   3 5803.27 593.324  48
  -2  -9   3 5644.26 586.703  52
  -2  -9   2 77501.5 2238.22  48
  -2  -9   2 76625.0 2233.43  52
  -2  -9   1 159.106 300.813  48
  -2  -9   1 673.693 364.235  52
  -2  -9   0 85623.7 2481.41  48
  -2  -9   0 84304.5 2495.14  52
  -2  -9  -1 49067.0 1840.89  48
  -2  -9  -1 50535.6 1903.90  52
  -2  -9  -2 38067.7 1685.74  52
  -2  -9  -2 40362.3 1678.27  48
  -2  -9  -3 95014.3 2762.78  48
  -2  -9  -3 94533.5 2772.48  32
  -2  -9  -4 9633.43 907.932  32
  -2  -9  -4 7371.52 774.606  48
  -2  -9  -5 146407. 3780.08  32
  -2  -9  -5 143364. 3696.69  48
  -2  -9  -6 17597.6 1273.72  53
  -2  -9  -6 16761.6 1226.18  32
  -2  -9  -6 16286.7 1173.84  48
  -2  -9  -7 76256.4 2784.14  53
  -2  -9  -7 74591.8 2632.03  48
  -2  -9  -7 81033.1 2781.04  32
  -2  -9  -8 72016.7 2684.19  32
  -2  -9  -8 74390.4 2772.96  53
  -2  -9  -9 10122.5 1043.03  53
  -2  -9  -9 10624.0 1024.47  32
  -2  -9 -10 56398.5 2297.61  53
  -2  -9 -11 740.691 441.093  53
  -2  -9 -12 24868.2 1320.13  53
  -2  -9 -13 41663.6 1474.74  32
  -2  -9 -13 40847.9 1509.45  53
  -2  -9 -14 20421.0 830.979  32
  -2  -9 -14 18335.3 812.488  53
  -1  -9   7 902.940 202.177  26
  -1  -9   6 39368.1 1268.78  26
  -1  -9   5 14683.8 733.376  52
  -1  -9   4 12129.8 737.909  52
  -1  -9   4 13315.2 886.996  48
  -1  -9   3 43049.1 1669.44  48
  -1  -9   3 39580.9 1450.03  52
  -1  -9   2 763.075 411.863  48
  -1  -9   2 686.980 272.649  52
  -1  -9   1 83232.4 2338.79  52
  -1  -9   1 87765.9 2579.93  48
  -1  -9   0 20920.5 1228.49  48
  -1  -9   0 20889.4 1114.89  52
  -1  -9  -1 76331.3 2296.40  52
  -1  -9  -1 81861.2 2531.60  48
  -1  -9  -2 90106.8 2560.84  52
  -1  -9  -2 91281.0 2334.65  31
  -1  -9  -2 96940.5 2818.28  48
  -1  -9  -3 3470.84 588.914  48
  -1  -9  -3 4506.99 634.612  32
  -1  -9  -3 4172.82 495.634  31
  -1  -9  -3 3427.85 512.034  52
  -1  -9  -4 130528. 3511.94  48
  -1  -9  -4 128518. 3397.78  32
  -1  -9  -5 1729.03 500.850  48
  -1  -9  -5 2175.03 508.477  32
  -1  -9  -6 121765. 3438.70  32
  -1  -9  -6 121674. 3545.27  48
  -1  -9  -6 121233. 3400.66  53
  -1  -9  -7 17736.3 2088.39  17
  -1  -9  -7 17403.3 1262.05  32
  -1  -9  -7 19423.7 1301.65  53
  -1  -9  -8 28765.6 1660.22  32
  -1  -9  -8 30642.9 1681.54  53
  -1  -9  -8 30879.2 2872.49  17
  -1  -9  -9 89347.5 2986.36  53
  -1  -9  -9 85691.1 2411.30  15
  -1  -9  -9 89824.8 5029.65  17
  -1  -9  -9 92872.6 3033.37  32
  -1  -9 -10 2016.20 362.182  15
  -1  -9 -10 1697.59 494.427  53
  -1  -9 -10 2623.66 903.391  17
  -1  -9 -11 51543.9 2044.00  53
  -1  -9 -12 9917.05 835.020  53
  -1  -9 -13 30484.8 1284.11  53
  -1  -9 -13 31459.9 1293.81  32
  -1  -9 -14 47735.6 1365.84  32
  -1  -9 -14 44587.4 1323.86  53
   0  -9   7 41546.7 1115.31  26
   0  -9   6 3529.50 393.126  26
   0  -9   5 33791.2 1125.03  31
   0  -9   4 40928.7 1572.80  48
   0  -9   4 37963.2 1329.62  31
   0  -9   3 7508.44 617.579  31
   0  -9   3 7637.35 758.574  48
   0  -9   2 83733.9 2479.25  48
   0  -9   2 78780.5 2198.23  31
   0  -9   1 5181.38 561.054  31
   0  -9   1 5762.53 685.945  48
   0  -9   0 142519. 3476.35  48
   0  -9   0 136858. 3193.05  31
   0  -9  -1 73059.4 2213.98  31
   0  -9  -1 78085.8 2435.66  48
   0  -9  -2 8110.76 797.111  48
   0  -9  -2 7738.80 711.401  31
   0  -9  -3 124416. 3340.88  48
   0  -9  -3 128068. 3194.03  31
   0  -9  -4 355.187 314.138  32
   0  -9  -4 196.849 329.880  48
   0  -9  -5 122272. 3446.82  48
   0  -9  -5 117775. 5495.21  17
   0  -9  -5 121540. 3185.49  32
   0  -9  -6 18570.0 2237.68  17
   0  -9  -6 22047.1 1396.12  48
   0  -9  -6 21460.2 1302.52  16
   0  -9  -6 20214.6 1206.68  32
   0  -9  -7 78157.8 2542.23  32
   0  -9  -7 81125.7 4893.27  17
   0  -9  -7 82408.4 2605.87  16
   0  -9  -8 107897. 3098.42  32
   0  -9  -8 101463. 5732.62  17
   0  -9  -9 5520.33 681.023  32
   0  -9  -9 5493.48 1428.05  17
   0  -9 -10 53981.0 2024.57  32
   0  -9 -10 57570.4 4117.27  17
   0  -9 -11 6498.49 655.381  32
   0  -9 -12 58111.9 1829.32  32
   1  -9   7 1361.90 181.819  31
   1  -9   6 42462.8 1142.39  26
   1  -9   6 41655.9 1219.65  31
   1  -9   5 55211.8 1604.20  31
   1  -9   4 34610.4 1333.41  31
   1  -9   4 32629.5 1338.02  48
   1  -9   3 28699.9 1274.17  31
   1  -9   3 27845.0 1283.84  48
   1  -9   2 475.473 353.392  31
   1  -9   2 286.768 332.174  48
   1  -9   1 97926.4 2646.86  31
   1  -9   1 91884.8 2603.54  48
   1  -9   0 11020.6 846.353  48
   1  -9   0 10400.4 842.827  31
   1  -9  -1 49471.4 1822.99  48
   1  -9  -1 49680.2 1839.61  31
   1  -9  -2 45075.0 1778.55  31
   1  -9  -2 46011.8 1767.36  48
   1  -9  -3 23238.3 1239.51  48
   1  -9  -3 24543.9 1326.43  31
   1  -9  -4 101420. 4771.55  20
   1  -9  -4 104943. 2917.80  48
   1  -9  -4 110315. 2854.86  16
   1  -9  -5 2896.22 895.352  20
   1  -9  -5 1895.79 447.405  48
   1  -9  -5 3657.17 593.239  16
   1  -9  -6 65838.9 2301.51  48
   1  -9  -6 67323.1 2318.62  16
   1  -9  -6 67749.0 4364.30  17
   1  -9  -6 61144.5 4025.12  20
   1  -9  -7 18498.5 2395.29  17
   1  -9  -7 19307.3 1231.02  48
   1  -9  -7 19811.7 1255.01  16
   1  -9  -8 68074.3 2391.79  16
   1  -9  -8 67005.2 4545.72  17
   1  -9  -9 112026. 5893.42  17
   1  -9 -10-243.444 699.154  17
   1  -9 -10 1123.38 410.631  16
   1  -9 -14 27550.6 885.530  48
   2  -9   6 6909.88 456.333  31
   2  -9   5 38665.2 1282.52  31
   2  -9   4 52280.6 1658.72  31
   2  -9   3 16187.9 964.329  31
   2  -9   2 72819.7 2204.17  31
   2  -9   2 69526.2 1974.60  37
   2  -9   1 3058.13 527.318  31
   2  -9   0 50355.9 1867.63  31
   2  -9  -1 12094.1 918.356  31
   2  -9  -2 132185. 3313.14  31
   2  -9  -3 143865. 5866.89  20
   2  -9  -3 154052. 3660.82  31
   2  -9  -4 1343.28 454.217  31
   2  -9  -4 1321.20 729.727  20
   2  -9  -5 69809.5 2358.06  16
   2  -9  -5 66397.8 4124.02  20
   2  -9  -6 53853.4 3772.54  20
   2  -9  -6 56305.1 2140.50  16
   2  -9  -7 32772.1 2995.46  20
   2  -9  -7 31334.9 1572.21  16
   2  -9  -8 36627.8 3164.60  17
   2  -9  -8 34339.2 3092.83  20
   2  -9  -8 35115.9 1670.81  16
   2  -9  -9 7264.39 1414.96  17
   2  -9  -9 8407.42 1529.38  20
   3  -9   5 12488.3 597.240  31
   3  -9   4 25390.6 979.430  31
   3  -9   3 97357.5 2149.68  37
   3  -9   3 100636. 2361.56  31
   3  -9   2 359.220 291.734  31
   3  -9   2 299.541 240.090  37
   3  -9   1 98360.9 2526.80  31
   3  -9   1 97986.9 2549.19  37
   3  -9   0 18969.5 972.436  35
   3  -9   0 19273.8 1055.36  31
   3  -9   0 19888.0 1139.61  37
   3  -9  -1 49287.5 1755.22  31
   3  -9  -2 71396.9 2178.16  31
   3  -9  -3 22340.7 1163.01  31
   3  -9  -4 74552.2 4067.79  22
   3  -9  -4 81828.1 2365.52  31
   3  -9  -5 4838.65 1246.53  20
   3  -9  -5 4286.50 561.424  31
   3  -9  -6 46235.3 1710.26  31
   3  -9  -6 46982.9 3413.02  20
   3  -9  -7 61822.1 3922.31  20
   3  -9  -7 62879.5 2011.54  31
   3  -9  -8 38169.5 1488.95  31
   3  -9  -9 56307.9 1725.40  31
   3  -9 -10 691.161 230.761  31
   4  -9   3 6496.02 381.530  31
   4  -9   2 43351.9 1199.32  31
   4  -9   1 1133.61 306.083  37
   4  -9   1 956.846 218.788  35
   4  -9   1 857.946 224.063  31
   4  -9   0 79193.7 1935.46  31
   4  -9   0 76599.7 1946.00  35
   4  -9   0 80841.8 2180.99  37
   4  -9  -1 23806.5 1081.49  35
   4  -9  -1 24093.3 1000.48  31
   4  -9  -1 26070.7 1238.03  37
   4  -9  -2 9118.85 804.756  37
   4  -9  -2 8399.09 716.826  35
   4  -9  -2 8458.44 597.511  31
   4  -9  -3 35796.4 1260.08  31
   4  -9  -3 37936.9 1628.53  37
   4  -9  -4 1753.76 498.348  37
   4  -9  -5 72965.3 2295.58  37
   4  -9  -6 10466.7 811.671  37
   4  -9  -7 39205.7 1418.96  37
   5  -9  -1 18107.0 707.417  35
   5  -9  -2 21759.6 844.590  35
   5  -9  -2 22192.8 879.644  37
   5  -9  -3 3728.54 328.128  27
   5  -9  -3 3867.42 398.172  35
   5  -9  -3 3987.06 399.828  37
   5  -9  -4 54866.0 1452.59  37
   5  -9  -4 54515.3 1404.30  27
   5  -9  -5 2891.56 361.388  35
   5  -9  -5 1913.02 237.196  37
   5  -9  -6 63772.9 1585.07  35
  -5  -8   2 21039.2 670.846  40
  -5  -8   2 22810.3 804.672  52
  -5  -8   1 7723.11 517.089  52
  -5  -8   1 7790.75 458.619  40
  -5  -8   0 36535.2 1230.93  52
  -5  -8   0 35030.0 1121.66  40
  -5  -8  -1 3934.72 442.938  52
  -5  -8  -2 22159.1 1035.27  52
  -5  -8  -2 23919.1 1086.92  42
  -5  -8  -3 18128.5 990.295  42
  -5  -8  -3 17950.0 952.532  52
  -5  -8  -4 20051.6 1057.77  42
  -5  -8  -4 17862.4 966.047  52
  -5  -8  -5 45313.5 1627.65  42
  -5  -8  -5 43824.4 1553.60  52
  -5  -8  -6-84.8381 309.444  42
  -5  -8  -6 58.8790 234.848  52
  -5  -8  -7 35710.4 1390.68  42
  -5  -8  -7 34264.3 1306.79  52
  -5  -8  -8 4813.04 494.661  42
  -5  -8  -9 22079.3 919.544  42
  -4  -8   5 1903.11 263.411  52
  -4  -8   4 44954.9 1376.60  52
  -4  -8   3 7478.00 611.088  52
  -4  -8   2 29537.7 1266.21  52
  -4  -8   1 39077.1 1315.01  40
  -4  -8   1 41557.1 1593.09  52
  -4  -8   0 4538.89 600.786  52
  -4  -8  -1 76073.4 2287.01  42
  -4  -8  -1 74129.8 2343.33  52
  -4  -8  -2 1736.74 484.970  52
  -4  -8  -2 1596.11 423.560  42
  -4  -8  -3 87953.2 2648.77  42
  -4  -8  -3 87419.3 2689.37  52
  -4  -8  -4 52594.7 2029.94  42
  -4  -8  -4 54105.3 1777.81  32
  -4  -8  -5 16393.4 1139.77  42
  -4  -8  -5 18389.9 1028.21  32
  -4  -8  -6 82871.0 2708.12  42
  -4  -8  -6 78040.0 2329.50  32
  -4  -8  -7 420.574 479.771  53
  -4  -8  -7 840.009 417.232  42
  -4  -8  -7 997.013 418.497  24
  -4  -8  -7 745.024 317.691  32
  -4  -8  -8 39822.4 1761.68  42
  -4  -8  -8 41525.6 1649.04  32
  -4  -8  -8 45749.9 1977.16  53
  -4  -8  -8 43552.5 1848.47  24
  -4  -8  -9 32244.0 1406.89  32
  -4  -8  -9 34901.3 1671.32  53
  -4  -8  -9 31014.3 1462.77  42
  -4  -8 -10 19584.2 1175.63  53
  -4  -8 -10 17271.7 1002.45  42
  -4  -8 -10 18306.6 985.237  32
  -4  -8 -11 36390.1 1449.51  53
  -4  -8 -11 34137.4 1261.53  42
  -4  -8 -11 35841.3 1272.84  32
  -4  -8 -12 213.683 218.876  53
  -4  -8 -12-47.2409 161.395  32
  -3  -8   7 37983.0 933.060  26
  -3  -8   6 1154.70 222.988  26
  -3  -8   6 798.103 266.919  52
  -3  -8   5 57873.1 1656.26  26
  -3  -8   5 59266.0 1760.77  52
  -3  -8   4 16828.2 986.066  52
  -3  -8   3 33954.8 1312.32  48
  -3  -8   3 34249.1 1498.03  52
  -3  -8   2 47907.8 1831.39  52
  -3  -8   2 47974.8 1650.01  48
  -3  -8   1 18385.4 1008.14  48
  -3  -8   1 17988.8 1151.87  52
  -3  -8   0 107816. 2759.22  48
  -3  -8   0 111866. 2817.93  42
  -3  -8   0 111398. 3081.81  52
  -3  -8  -1 40060.3 1785.34  52
  -3  -8  -1 40597.1 1568.90  48
  -3  -8  -1 39462.9 1595.31  42
  -3  -8  -2 126749. 3475.54  52
  -3  -8  -2 128160. 3119.46  48
  -3  -8  -2 129925. 3252.24  42
  -3  -8  -3 14173.4 993.847  32
  -3  -8  -3 14330.4 1006.07  42
  -3  -8  -3 15580.1 971.401  48
  -3  -8  -4 23205.1 1308.58  42
  -3  -8  -4 22661.0 1299.41  32
  -3  -8  -4 22829.7 1213.55  48
  -3  -8  -5 105806. 3102.10  42
  -3  -8  -5 105598. 3350.21  53
  -3  -8  -5 100473. 3002.90  32
  -3  -8  -5 104711. 2888.89  48
  -3  -8  -5 108590. 3240.12  24
  -3  -8  -6 312.266 295.592  42
  -3  -8  -6 429.140 373.991  32
  -3  -8  -6 658.072 548.743  53
  -3  -8  -6 443.923 339.081  24
  -3  -8  -6 652.449 346.019  48
  -3  -8  -7 45723.7 2228.11  53
  -3  -8  -7 42760.6 1985.91  24
  -3  -8  -7 40838.1 1856.76  42
  -3  -8  -7 41489.9 1931.97  32
  -3  -8  -7 41975.3 1826.59  48
  -3  -8  -8 2016.93 467.080  42
  -3  -8  -8 2061.44 684.870  53
  -3  -8  -8 1779.37 473.340  24
  -3  -8  -9 39950.9 1820.52  24
  -3  -8  -9 40994.0 1766.22  42
  -3  -8  -9 40966.1 2137.00  53
  -3  -8 -10 36149.9 1640.56  24
  -3  -8 -10 37878.3 1976.66  53
  -3  -8 -10 37972.4 1618.32  42
  -3  -8 -11 3100.83 457.018  42
  -3  -8 -11 2420.41 602.100  53
  -3  -8 -12 33024.8 1578.17  53
  -3  -8 -13 1491.65 385.570  53
  -3  -8 -14 23227.6 947.667  53
  -3  -8 -14 22025.2 864.112  32
  -2  -8   8 24214.0 806.916  26
  -2  -8   7 6493.26 511.526  26
  -2  -8   6 38783.7 1387.95  52
  -2  -8   5 1329.06 398.329  52
  -2  -8   5 1331.76 377.210  48
  -2  -8   4 55441.2 1890.09  48
  -2  -8   4 55029.1 1895.14  52
  -2  -8   3 67411.8 2178.26  48
  -2  -8   3 69651.9 2219.85  52
  -2  -8   2 20185.1 1158.97  48
  -2  -8   2 19993.5 1186.63  52
  -2  -8   1 57124.5 2072.83  52
  -2  -8   1 56253.6 1986.84  48
  -2  -8   0 2991.51 527.289  52
  -2  -8   0 3339.33 530.251  48
  -2  -8  -1 153200. 6737.83   6
  -2  -8  -1 153903. 3682.67  48
  -2  -8  -1 155803. 3787.68  52
  -2  -8  -2 24010.4 1289.38  48
  -2  -8  -2 22375.3 1254.54  32
  -2  -8  -3 109299. 3086.51  32
  -2  -8  -3 109227. 3041.72  48
  -2  -8  -4 67294.5 2346.02  48
  -2  -8  -4 65810.0 2370.20  32
  -2  -8  -4 70995.6 2563.31  53
  -2  -8  -5 24722.7 1548.07  53
  -2  -8  -5 29333.6 1468.17  24
  -2  -8  -5 23762.1 1439.39  32
  -2  -8  -5 25095.5 1431.47  48
  -2  -8  -6 102693. 3246.24  32
  -2  -8  -6 107316. 3448.68  53
  -2  -8  -6 111096. 3125.23  24
  -2  -8  -7 531.861 435.622  53
  -2  -8  -7 540.281 336.082  24
  -2  -8  -8 147898. 4337.00  53
  -2  -8  -8 169714. 4069.41  24
  -2  -8  -9 46568.1 2256.92  53
  -2  -8  -9 42122.0 1762.73  15
  -2  -8  -9 46620.6 1927.93  24
  -2  -8 -10 29119.9 1457.16  15
  -2  -8 -10 29196.8 1771.49  53
  -2  -8 -11 41527.1 2047.63  53
  -2  -8 -12 1557.53 599.661  53
  -2  -8 -13 108213. 3012.97  53
  -2  -8 -14 11020.9 785.796  53
  -2  -8 -15 17892.3 783.394  53
  -1  -8   9 12691.4 512.008  26
  -1  -8   8 21378.4 863.604  26
  -1  -8   7 17710.5 928.636  26
  -1  -8   6 13380.0 792.479  52
  -1  -8   5 65162.2 1976.04  52
  -1  -8   5 68332.8 2195.95  48
  -1  -8   4 15295.2 955.068  52
  -1  -8   4 17232.5 1108.47  48
  -1  -8   3 40003.7 1603.60  52
  -1  -8   3 43649.1 1783.30  48
  -1  -8   2 45504.7 1708.49  52
  -1  -8   2 46751.4 1836.97  48
  -1  -8   1 18717.7 1081.65  52
  -1  -8   1 20091.2 1187.85  48
  -1  -8   1 21773.7 2335.63   6
  -1  -8   0 142964. 6066.63   6
  -1  -8   0 140649. 3374.64  52
  -1  -8   0 146327. 3562.23  48
  -1  -8  -1 3800.97 555.838  48
  -1  -8  -1 3009.03 465.747  52
  -1  -8  -1 2614.09 814.203   6
  -1  -8  -2 48551.1 1906.81  48
  -1  -8  -2 42815.9 3098.06   6
  -1  -8  -2 43813.2 1515.41  31
  -1  -8  -2 46082.8 1791.72  32
  -1  -8  -3 16794.4 1082.50  32
  -1  -8  -3 14700.9 1053.53  48
  -1  -8  -4 69363.4 2376.96  53
  -1  -8  -4 68657.8 3650.00  17
  -1  -8  -4 68208.1 2423.64  48
  -1  -8  -4 70683.7 2389.54  32
  -1  -8  -5 127355. 3517.25  53
  -1  -8  -5 126528. 3514.45  32
  -1  -8  -5 134258. 5629.84  17
  -1  -8  -6 12893.1 1081.97  53
  -1  -8  -6 15591.6 2019.40  17
  -1  -8  -7 100246. 5337.30  17
  -1  -8  -7 99483.4 3196.72  53
  -1  -8  -8 27156.0 1639.04  53
  -1  -8  -8 28314.4 1418.28  15
  -1  -8  -9 57037.0 4228.18   8
  -1  -8  -9 54390.5 2364.09  53
  -1  -8  -9 53321.4 2079.58  15
  -1  -8 -10 65056.6 2366.30  15
  -1  -8 -11 18783.9 1231.40  15
  -1  -8 -14 87412.1 2383.90  53
  -1  -8 -15 13836.3 710.977  53
   0  -8   9 46269.1 1070.29  26
   0  -8   8 38147.2 1186.30  26
   0  -8   7 21004.0 846.484  31
   0  -8   7 23732.4 1052.81  26
   0  -8   6 80519.4 2058.46  31
   0  -8   5 3912.66 476.545  31
   0  -8   5 4535.78 648.868  48
   0  -8   4 86295.8 2593.35  48
   0  -8   4 83927.4 2336.66  31
   0  -8   3 35527.1 1613.74  48
   0  -8   3 33407.9 1403.09  31
   0  -8   2 52552.6 1968.72  48
   0  -8   2 51368.6 1780.86  31
   0  -8   1 123858. 5513.36   6
   0  -8   1 134544. 3365.14  48
   0  -8   1 126115. 3052.89  31
   0  -8   0 27316.1 1250.63  31
   0  -8   0 25294.6 1323.04  48
   0  -8   0 28305.4 2490.57   6
   0  -8  -1 105400. 2734.33  31
   0  -8  -1 110679. 2975.44  48
   0  -8  -1 104735. 4773.80   6
   0  -8  -2 48007.8 1863.37  48
   0  -8  -2 48084.7 1762.63  32
   0  -8  -3 99904.3 2716.04  32
   0  -8  -3 101965. 2647.33  16
   0  -8  -3 102961. 2923.96  48
   0  -8  -4 76298.9 2516.15  48
   0  -8  -4 71841.3 2280.31  32
   0  -8  -4 70389.5 4093.47  17
   0  -8  -4 75830.7 2340.06  16
   0  -8  -5 10542.6 1709.26  17
   0  -8  -5 11232.1 934.353  16
   0  -8  -5 10070.3 840.758  32
   0  -8  -6 188859. 4345.87  32
   0  -8  -6 180556. 7508.79  17
   0  -8  -6 188004. 4341.75  16
   0  -8  -7 27341.1 1508.65  16
   0  -8  -7 26547.5 2879.16  17
   0  -8  -8 38112.6 3554.59  17
   0  -8  -8 37516.4 1798.28  16
   0  -8  -9 94232.2 2991.06  16
   0  -8 -10 15720.1 1167.91  16
   0  -8 -11 110503. 3251.13  15
   1  -8   8 32052.0 894.261  26
   1  -8   8 33088.9 997.555  31
   1  -8   7 54433.3 1492.21  26
   1  -8   7 53338.2 1555.66  31
   1  -8   6 3981.89 500.793  31
   1  -8   5 130835. 3173.18  48
   1  -8   5 128907. 3096.24  31
   1  -8   4 2182.84 665.244  19
   1  -8   4 2233.03 446.861  31
   1  -8   4 2743.89 508.954  48
   1  -8   3 81187.8 2421.68  31
   1  -8   3 79351.7 2456.28  48
   1  -8   2 111846. 2970.27  31
   1  -8   2 115732. 3040.81  48
   1  -8   1 26523.4 2501.25   6
   1  -8   1 25678.6 1281.45  31
   1  -8   1 23871.8 1265.65  48
   1  -8   0 101486. 2793.14  31
   1  -8   0 106138. 2831.91  48
   1  -8   0 97039.8 4781.59   6
   1  -8  -1 7134.85 683.865  48
   1  -8  -1 8027.97 1314.11   6
   1  -8  -1 8463.98 757.735  31
   1  -8  -2 88099.3 4193.33  20
   1  -8  -2 89689.6 2613.95  31
   1  -8  -2 93730.9 2624.67  48
   1  -8  -3 39742.0 1643.72  48
   1  -8  -3 40300.2 2929.62  20
   1  -8  -3 42593.3 1639.25  16
   1  -8  -4 47122.3 3534.64  17
   1  -8  -4 49287.1 1899.78  16
   1  -8  -4 46020.3 3280.77  20
   1  -8  -4 45662.4 1804.03  48
   1  -8  -5 66037.6 2316.85  16
   1  -8  -5 67503.3 2301.18  48
   1  -8  -5 64076.1 4266.40  17
   1  -8  -6 2303.38 1042.01  17
   1  -8  -6 1250.88 430.918  16
   1  -8  -7 35991.2 1754.05  16
   1  -8  -7 39720.0 3634.46  17
   1  -8  -8 6386.48 787.824  16
   1  -8  -8 6385.03 1550.84  17
   1  -8  -9 107641. 6166.50  17
   1  -8  -9 106280. 3253.58  16
   1  -8 -10 86326.2 2825.74  16
   1  -8 -10 78777.4 5156.10  17
   1  -8 -11 14008.0 1048.42  16
   1  -8 -11 11542.2 1927.94  17
   2  -8   8 36509.2 1023.15  31
   2  -8   7 2835.08 371.712  31
   2  -8   6 39140.6 1424.69  31
   2  -8   5 1766.71 470.191  31
   2  -8   4 110935. 2925.95  31
   2  -8   4 110622. 4777.28  19
   2  -8   3 21985.1 1114.88  48
   2  -8   3 21504.6 1234.35  31
   2  -8   3 22977.3 1115.58  37
   2  -8   2 43424.2 1610.87  48
   2  -8   2 47358.5 1843.58  31
   2  -8   2 45329.3 1717.64  37
   2  -8   1 70029.3 2306.97  31
   2  -8   0 3585.12 554.794  31
   2  -8  -1 187314. 4192.97  31
   2  -8  -2 13718.0 1861.45  20
   2  -8  -2 13598.9 974.111  31
   2  -8  -3 64423.4 2221.69  16
   2  -8  -3 60881.5 3907.57  20
   2  -8  -3 60683.3 2131.92  31
   2  -8  -4 41925.6 1885.06  16
   2  -8  -4 42598.5 3352.73  20
   2  -8  -5 13138.1 1087.97  16
   2  -8  -5 13333.4 2008.04  20
   2  -8  -6 137489. 6490.11  17
   2  -8  -6 130646. 3784.14  16
   2  -8  -6 131963. 6420.18  20
   2  -8  -7 3582.26 654.329  16
   2  -8  -7 3844.82 1324.90  20
   2  -8  -7 3263.06 1198.95  17
   2  -8  -8 93887.7 5506.61  17
   2  -8  -9 36659.0 3403.09  17
   2  -8 -10 33918.9 3152.40  17
   2  -8 -10 34575.7 1704.53  16
   3  -8   7 55943.6 1344.39  31
   3  -8   6 8760.56 578.544  31
   3  -8   5 90633.5 2275.50  31
   3  -8   4 11580.0 828.945  31
   3  -8   4 10761.7 689.653  37
   3  -8   3 82479.7 2316.45  37
   3  -8   3 84554.9 2432.78  31
   3  -8   2 81136.1 2446.93  37
   3  -8   2 80200.7 2146.08  35
   3  -8   2 77765.7 2387.08  31
   3  -8   1 16747.9 1123.15  37
   3  -8   1 17999.2 1098.47  31
   3  -8   1 16648.4 999.535  35
   3  -8   0 107637. 2920.26  31
   3  -8  -1 3156.59 525.895  31
   3  -8  -2 131383. 3305.66  31
   3  -8  -3 79147.8 4567.41  22
   3  -8  -3 75796.8 2391.18  31
   3  -8  -4 52985.1 1943.33  31
   3  -8  -4 53861.6 3953.03  20
   3  -8  -5 76527.6 4786.00  20
   3  -8  -5 75455.7 2384.51  31
   3  -8  -5 79510.9 5067.98  12
   3  -8  -6 11330.2 1962.37  20
   3  -8  -7 212663. 8440.01  20
   3  -8  -8 6275.47 790.672  16
   3  -8  -8 6724.41 1529.05  20
   3  -8  -9 59184.6 4114.23  20
   4  -8   5 137.756 125.839  31
   4  -8   4 53968.7 1460.56  31
   4  -8   3 24074.6 882.710  35
   4  -8   3 23787.7 1010.37  31
   4  -8   2 10006.0 664.064  35
   4  -8   2 9965.71 779.639  37
   4  -8   2 10694.2 724.251  31
   4  -8   1 48737.0 1861.39  37
   4  -8   1 47809.7 1637.05  31
   4  -8   1 49134.6 1678.95  35
   4  -8   0 7751.81 740.108  35
   4  -8   0 7930.54 860.927  37
   4  -8   0 6966.42 630.329  31
   4  -8   0 8730.12 645.141  27
   4  -8  -1 63618.9 2369.48  37
   4  -8  -1 59987.0 1909.50  31
   4  -8  -2 17950.2 1004.83  31
   4  -8  -2 19755.6 1360.58  37
   4  -8  -3 42441.3 3171.17  22
   4  -8  -3 50109.6 2198.20  37
   4  -8  -4 49799.9 3653.05  22
   4  -8  -5 13339.2 2008.49  22
   4  -8  -6 142435. 6799.87  22
   4  -8  -7 9410.59 1799.21  22
   5  -8   3 36075.7 970.863  36
   5  -8   2 26092.6 835.114  35
   5  -8   1 15697.8 743.666  35
   5  -8   0 67142.0 1934.34  37
   5  -8   0 64781.4 1791.69  35
   5  -8   0 61614.9 1506.32  27
   5  -8  -1 6413.90 510.473  27
   5  -8  -1 7117.21 636.645  35
   5  -8  -1 7219.22 675.608  37
   5  -8  -2 46233.0 1748.22  37
   5  -8  -2 45369.5 1473.48  27
   5  -8  -2 46988.3 1676.55  35
   5  -8  -3 27944.1 1362.89  37
   5  -8  -3 27871.4 1330.54  35
   5  -8  -4 18017.2 1088.79  35
   5  -8  -4 16291.7 1005.12  37
   5  -8  -5 81814.1 2232.76  37
   5  -8  -5 95145.6 2616.00  35
   5  -8  -6 4611.16 562.917  35
   5  -8  -7 62148.2 1801.61  35
   5  -8  -8 12706.1 635.679  35
  -6  -7   1 21053.4 700.255  40
  -6  -7   0 18405.5 726.536  40
  -6  -7  -2 26116.1 1016.10  42
  -6  -7  -3 961.693 278.629  42
  -6  -7  -4 45813.0 1450.51  42
  -6  -7  -5 10979.0 689.196  42
  -6  -7  -6 13262.0 735.884  42
  -6  -7  -7 29873.6 1042.82  42
  -5  -7   4 36660.2 1027.78  40
  -5  -7   4 36998.6 1058.86  52
  -5  -7   3 2718.85 335.024  52
  -5  -7   3 2372.63 319.468  40
  -5  -7   2 64659.9 1805.62  52
  -5  -7   2 66935.0 1780.20  40
  -5  -7   1 22699.1 1065.71  52
  -5  -7   0 23748.0 1144.02  52
  -5  -7   0 25891.4 1257.42  42
  -5  -7  -1 50087.0 1769.99  52
  -5  -7  -1 50009.3 1855.53  42
  -5  -7  -2 961.175 351.085  52
  -5  -7  -2 660.016 411.611  42
  -5  -7  -3 70250.5 2254.83  52
  -5  -7  -3 71405.4 2408.60  42
  -5  -7  -4 10709.9 857.490  52
  -5  -7  -4 10405.4 941.350  42
  -5  -7  -5 38275.5 1793.57  42
  -5  -7  -5 35445.7 1571.08  52
  -5  -7  -6 24918.1 1455.61  42
  -5  -7  -7 4250.91 674.013  42
  -5  -7  -8 27897.7 1450.15  42
  -5  -7  -9 136.523 290.117  42
  -5  -7 -10 31823.0 1290.40  42
  -5  -7 -11 17907.8 803.154  42
  -4  -7   6 11261.4 646.255  52
  -4  -7   6 10806.6 487.799  40
  -4  -7   5 22268.3 861.581  40
  -4  -7   5 21728.7 1014.85  52
  -4  -7   4 7883.87 677.481  52
  -4  -7   4 7779.31 574.308  40
  -4  -7   3 75412.6 2263.47  52
  -4  -7   3 71101.9 2000.89  40
  -4  -7   2 7158.66 735.315  52
  -4  -7   1 84231.6 2533.09  42
  -4  -7   1 79231.6 2519.38  52
  -4  -7   0 57734.5 2137.02  42
  -4  -7   0 59413.8 2173.03  52
  -4  -7  -1 13068.5 1022.46  52
  -4  -7  -1 12671.7 1012.40  42
  -4  -7  -2 57345.0 2202.35  52
  -4  -7  -2 58016.8 2262.59  42
  -4  -7  -3 23136.0 1445.94  42
  -4  -7  -4 153603. 3549.62  32
  -4  -7  -4 159624. 4238.71  42
  -4  -7  -5 28808.7 1688.37  42
  -4  -7  -5 29549.7 1400.62  32
  -4  -7  -5 30377.8 1750.12  53
  -4  -7  -5 28759.6 1705.09  24
  -4  -7  -6 59055.7 2466.53  24
  -4  -7  -6 57605.5 2101.73  32
  -4  -7  -6 57401.2 2455.62  53
  -4  -7  -6 57519.6 2432.51  42
  -4  -7  -7 33497.7 1853.80  24
  -4  -7  -7 36394.9 1700.40  32
  -4  -7  -7 38071.7 1951.58  42
  -4  -7  -7 38485.7 2020.54  53
  -4  -7  -8 3249.21 735.416  53
  -4  -7  -8 2093.35 463.761  32
  -4  -7  -8 2680.50 607.363  24
  -4  -7  -8 2170.83 577.756  42
  -4  -7  -9 78242.4 2733.73  42
  -4  -7  -9 84194.7 3011.62  53
  -4  -7  -9 76407.5 2720.49  24
  -4  -7 -10 7201.82 759.637  24
  -4  -7 -10 8504.71 861.394  42
  -4  -7 -10 9404.04 961.298  53
  -4  -7 -11 43325.1 1839.40  53
  -4  -7 -11 43692.6 1725.19  42
  -4  -7 -12 30540.4 1269.55  42
  -4  -7 -12 30968.1 1367.29  53
  -4  -7 -13 6023.26 494.380  53
  -4  -7 -13 5338.01 424.464  42
  -4  -7 -13 5500.82 415.450  32
  -3  -7   8 2065.90 243.067  26
  -3  -7   7 24764.5 1072.72  52
  -3  -7   7 23667.7 976.263  26
  -3  -7   6 32878.3 1322.14  26
  -3  -7   6 33711.9 1397.83  52
  -3  -7   5 14235.4 987.474  52
  -3  -7   4 95213.6 2741.16  52
  -3  -7   3 1392.75 483.235  52
  -3  -7   3 1304.99 334.705  48
  -3  -7   2 107671. 3062.17  52
  -3  -7   1 55109.7 2106.98  52
  -3  -7   1 54222.2 1974.15  42
  -3  -7   0 41074.3 1734.07  42
  -3  -7   0 39938.2 1784.51  52
  -3  -7  -1 268877. 5461.14  42
  -3  -7  -1 261859. 5566.34  52
  -3  -7  -1 261682. 10677.1   6
  -3  -7  -2 2458.90 456.134  32
  -3  -7  -2 1350.09 922.668   6
  -3  -7  -2 1346.43 402.779  42
  -3  -7  -3 83084.2 2734.28  42
  -3  -7  -3 78653.4 2352.72  48
  -3  -7  -4 18018.5 1075.66  48
  -3  -7  -4 18661.6 1347.76  53
  -3  -7  -4 17340.3 1273.74  24
  -3  -7  -4 17492.8 1234.94  42
  -3  -7  -4 16185.1 1148.01  32
  -3  -7  -5 42339.1 2120.85  53
  -3  -7  -5 43428.7 2037.12  24
  -3  -7  -5 43641.6 1765.59  48
  -3  -7  -5 39212.9 1863.66  32
  -3  -7  -5 42134.9 1941.78  42
  -3  -7  -6 50319.0 2153.26  42
  -3  -7  -6 50089.5 2219.87  24
  -3  -7  -6 52043.8 2382.22  53
  -3  -7  -7 31399.3 1697.20  42
  -3  -7  -7 27504.7 1747.33  53
  -3  -7  -7 33344.9 1798.84  24
  -3  -7  -8 133393. 3868.96  24
  -3  -7  -8 133714. 3788.05  42
  -3  -7  -8 130406. 4050.23  53
  -3  -7  -9 23078.3 1494.22  24
  -3  -7  -9 25237.8 1734.20  53
  -3  -7  -9 25153.5 1508.39  42
  -3  -7 -10 33442.3 1694.89  42
  -3  -7 -10 34903.4 2010.32  53
  -3  -7 -10 34104.4 1736.56  24
  -3  -7 -11 14073.0 1050.49  42
  -3  -7 -11 14440.6 1074.44  24
  -3  -7 -11 16708.7 1413.88  53
  -3  -7 -12 25322.6 1304.89  42
  -3  -7 -12 28593.6 1615.24  53
  -3  -7 -13 30686.8 1273.90  42
  -3  -7 -13 31311.7 1523.55  53
  -3  -7 -14 527.513 287.445  53
  -3  -7 -14 384.212 169.954  42
  -2  -7   9 100.536 154.868  26
  -2  -7   8 52969.3 1622.29  26
  -2  -7   7 8394.87 723.180  52
  -2  -7   7 6739.09 657.789  26
  -2  -7   6 89852.8 2569.22  52
  -2  -7   5 143024. 3487.54  48
  -2  -7   5 145290. 3528.76  52
  -2  -7   4 15204.1 1054.47  52
  -2  -7   4 14594.5 1017.44  48
  -2  -7   3 77356.8 2457.40  52
  -2  -7   3 74272.5 2381.22  48
  -2  -7   2 3953.39 1253.39   6
  -2  -7   2 5693.75 647.471  48
  -2  -7   2 5643.90 664.962  52
  -2  -7   1 81192.6 2535.83  52
  -2  -7   1 80184.9 2432.86  48
  -2  -7   1 85580.9 5385.85   6
  -2  -7   0 82102.7 5273.47   6
  -2  -7   0 82964.5 2570.64  52
  -2  -7   0 83759.1 2477.54  48
  -2  -7  -1 49568.9 1817.90  32
  -2  -7  -1 50973.2 4080.64   6
  -2  -7  -1 47825.5 1788.97  48
  -2  -7  -2 211179. 4481.05  48
  -2  -7  -2 215889. 4522.15  32
  -2  -7  -2 212501. 8483.29   6
  -2  -7  -3 492.318 325.415  53
  -2  -7  -3 216.672 257.899  48
  -2  -7  -3-189.427 291.365  32
  -2  -7  -3 665.717 317.797  24
  -2  -7  -4 90263.6 2762.09  24
  -2  -7  -4 93399.9 2988.10  53
  -2  -7  -4 86572.9 2732.55  32
  -2  -7  -5 73518.3 2650.69  53
  -2  -7  -5 75507.5 2507.71  24
  -2  -7  -6 40578.1 1961.76  53
  -2  -7  -6 43282.6 1868.02  24
  -2  -7  -6 42672.3 1777.44  15
  -2  -7  -7 131521. 3889.61  53
  -2  -7  -7 139126. 3667.19  24
  -2  -7  -7 136223. 3637.41  15
  -2  -7  -8 4729.00 1397.48   2
  -2  -7  -8 2894.40 578.656  15
  -2  -7  -9 156591. 4299.57  15
  -2  -7 -10 15825.0 1297.05  15
  -2  -7 -10 15905.2 1092.57  42
  -2  -7 -11 53898.0 2371.88  15
  -2  -7 -11 49448.4 1933.90  42
  -2  -7 -12 63975.9 2123.48  42
  -2  -7 -15 965.373 330.587  53
  -1  -7  10 925.177 186.568  26
  -1  -7   9 56311.3 1602.41  26
  -1  -7   8 2484.83 457.097  26
  -1  -7   6 38274.6 1685.68  48
  -1  -7   6 37898.3 1556.33  52
  -1  -7   5 30868.3 1425.41  52
  -1  -7   5 30832.3 1536.78  48
  -1  -7   4 93050.4 2643.46  52
  -1  -7   4 92985.3 2779.98  48
  -1  -7   3 2905.44 963.902   6
  -1  -7   3 2743.70 470.159  52
  -1  -7   3 2616.13 512.034  48
  -1  -7   2 130079. 3306.99  48
  -1  -7   2 137510. 6202.95   6
  -1  -7   2 126903. 3163.98  52
  -1  -7   1 15191.2 946.335  52
  -1  -7   1 14806.0 991.138  48
  -1  -7   1 13248.5 1853.13   6
  -1  -7   0 92254.3 2595.98  48
  -1  -7   0 88987.5 4798.46   6
  -1  -7  -1 70420.0 4154.90   6
  -1  -7  -2 14818.7 1849.91   6
  -1  -7  -3 98685.5 4181.38  17
  -1  -7  -4 16734.6 1823.04  17
  -1  -7  -5 68596.5 3917.68  17
  -1  -7  -6 123710. 3396.08  53
  -1  -7  -6 125197. 5847.89   8
  -1  -7  -7 14808.6 2061.79   8
  -1  -7  -8 106602. 5680.73   8
  -1  -7  -9 951.750 797.042   8
  -1  -7  -9 863.206 620.862   2
  -1  -7  -9 1047.01 483.584  15
  -1  -7 -10 108640. 3554.44  15
  -1  -7 -10 121185. 6102.80   8
  -1  -7 -11 13705.3 1199.10  15
  -1  -7 -12 29040.2 1662.27  15
   0  -7  10 55338.3 1312.40  26
   0  -7   9 2203.25 339.687  26
   0  -7   9 1855.77 241.032  31
   0  -7   8 89060.1 2145.25  31
   0  -7   8 95073.7 2440.58  26
   0  -7   7 32601.9 1306.74  31
   0  -7   6 35367.2 1450.04  31
   0  -7   6 34243.5 1398.19  52
   0  -7   6 35968.2 1655.45  48
   0  -7   5 81914.6 2598.77  48
   0  -7   5 78132.6 2314.80  31
   0  -7   5 79280.0 2268.10  52
   0  -7   4 18632.3 1009.12  52
   0  -7   4 18507.3 1063.49  31
   0  -7   4 18841.3 1198.43  48
   0  -7   3 193013. 4064.29  31
   0  -7   3 195608. 7250.24   6
   0  -7   3 193867. 3947.66  52
   0  -7   3 200148. 4412.65  48
   0  -7   2 8284.49 678.591  31
   0  -7   2 11131.4 862.615  48
   0  -7   2 8167.41 1455.84   6
   0  -7   1 265554. 4944.92  31
   0  -7   1 266531. 5222.30  48
   0  -7   1 271936. 8450.27   6
   0  -7   0 69916.8 3901.73   6
   0  -7  -1 46159.5 3056.52   6
   0  -7  -2 197807. 3914.74  16
   0  -7  -2 199246. 5908.78  20
   0  -7  -2 190596. 6347.93   6
   0  -7  -3 17009.7 1878.64  17
   0  -7  -3 19596.7 1064.15  16
   0  -7  -4 217469. 4565.62  16
   0  -7  -4 208285. 7368.59  17
   0  -7  -5 134875. 3432.47  16
   0  -7  -5 129904. 5843.19  17
   0  -7  -6 69915.8 2403.86  16
   0  -7  -7 115156. 5997.29   8
   0  -7  -7 111177. 3238.65  16
   0  -7  -8 371.403 718.579   8
   0  -7  -8 508.215 398.858  16
   0  -7  -9 269661. 9796.40   8
   0  -7  -9 241060. 5497.86  16
   0  -7 -10 53685.4 2263.45  16
   0  -7 -10 58686.3 4404.12   8
   0  -7 -11 31934.0 1704.29  16
   0  -7 -12 87576.1 2988.70  15
   1  -7  10 4925.47 304.112  31
   1  -7   9 61058.5 1579.47  31
   1  -7   9 63092.9 1493.77  26
   1  -7   8 6543.25 580.213  31
   1  -7   8 6519.64 541.767  26
   1  -7   7 42916.9 1612.81  31
   1  -7   7 41730.5 1544.20  26
   1  -7   6 39134.9 1630.48  31
   1  -7   5 82193.6 4132.38  19
   1  -7   5 80770.2 2488.44  31
   1  -7   5 83914.8 2599.49  48
   1  -7   4 202020. 4509.42  48
   1  -7   4 203342. 4395.67  31
   1  -7   3 136.571 303.339  31
   1  -7   3 105.021 305.459  48
   1  -7   3 449.150 524.747   6
   1  -7   2 184153. 4031.39  48
   1  -7   2 172188. 3915.90  31
   1  -7   2 171489. 6977.27   6
   1  -7   1 86020.6 2456.53  48
   1  -7   1 78965.4 4524.77   6
   1  -7   1 84091.3 2432.35  31
   1  -7   0 63920.4 3933.39   6
   1  -7   0 65340.6 2059.58  31
   1  -7  -1 83980.4 4342.84   6
   1  -7  -1 83767.0 3941.96  20
   1  -7  -2 1648.31 636.748   6
   1  -7  -2 2230.83 765.203  20
   1  -7  -2 1308.05 301.468  16
   1  -7  -3 203794. 7319.15  17
   1  -7  -3 193989. 6846.99  20
   1  -7  -3 213207. 4481.82  16
   1  -7  -4 28010.6 1450.07  16
   1  -7  -4 26771.8 2667.01  17
   1  -7  -5 238068. 8547.72  17
   1  -7  -5 219066. 4938.35  16
   1  -7  -6 112924. 3333.66  16
   1  -7  -6 98752.8 5586.14  17
   1  -7  -7 7077.84 833.907  16
   1  -7  -7 6512.27 1592.32  17
   1  -7  -8 77433.3 5180.80   8
   1  -7  -8 71923.7 2674.84  16
   1  -7  -8 70048.9 4911.24  17
   1  -7  -9 8605.25 1788.60   8
   1  -7  -9 9855.78 982.401  16
   1  -7 -10 174386. 4464.25  16
   1  -7 -10 181026. 8100.57   8
   1  -7 -11 41597.9 1924.17  16
   1  -7 -12 44571.0 1980.76  15
   1  -7 -12 44100.6 1866.66  16
   2  -7   9 108.043 167.663  31
   2  -7   8 65372.2 1837.81  31
   2  -7   7 47172.4 1690.64  31
   2  -7   6 9110.08 829.074  31
   2  -7   5 70927.7 4067.43  19
   2  -7   5 72299.7 2386.12  31
   2  -7   4 30200.3 1326.45  37
   2  -7   4 31148.2 1527.53  31
   2  -7   4 30934.2 1422.74  48
   2  -7   3 97373.0 2697.88  37
   2  -7   3 98923.5 2857.11  31
   2  -7   3 95374.4 2671.00  48
   2  -7   2 33006.7 1540.44  31
   2  -7   2 33035.7 3200.55   6
   2  -7   1 40857.2 3629.34   6
   2  -7   1 40659.1 1712.05  31
   2  -7   0 63006.7 4493.71   6
   2  -7   0 66695.1 2201.54  31
   2  -7   0 67878.9 4971.14   1
   2  -7  -1 8486.18 1469.06  20
   2  -7  -1 8300.08 748.995  31
   2  -7  -1 8359.92 1570.62   6
   2  -7  -1 9394.74 1852.57   1
   2  -7  -2 120981. 5756.99   6
   2  -7  -2 119636. 5501.37  20
   2  -7  -2 120624. 3103.43  31
   2  -7  -2 121333. 6441.67   1
   2  -7  -3 3219.00 1063.49  20
   2  -7  -4 213185. 8064.06  17
   2  -7  -4 222912. 8156.48  20
   2  -7  -5 52189.4 3947.85  17
   2  -7  -5 48969.0 3867.92  20
   2  -7  -6 87222.2 5223.68  17
   2  -7  -7 235010. 9191.33  17
   2  -7  -8 9750.15 1962.80  17
   2  -7  -9 127703. 6837.01  17
   2  -7  -9 127466. 3898.54  16
   2  -7 -10 36312.1 1889.15  16
   2  -7 -10 31696.0 3286.36  17
   2  -7 -11 62659.0 4404.81  17
   2  -7 -11 69234.5 2491.74  16
   3  -7   8 778.728 218.315  31
   3  -7   7 71422.1 1944.03  31
   3  -7   6 49055.6 1721.20  31
   3  -7   5 31060.0 1443.31  31
   3  -7   4 84541.9 2566.49  31
   3  -7   4 81822.5 2432.08  37
   3  -7   4 78472.7 4466.15  19
   3  -7   3 642.306 364.328  37
   3  -7   3 586.185 271.893  35
   3  -7   3 392.806 371.493  31
   3  -7   2 54892.5 2145.32  37
   3  -7   2 52633.6 1908.09  35
   3  -7   2 51233.9 1994.15  31
   3  -7   1 9276.64 849.874  31
   3  -7   0 150528. 3686.79  31
   3  -7  -1 279900. 8724.37  22
   3  -7  -1 261804. 5346.20  31
   3  -7  -1 269687. 11879.0   1
   3  -7  -2 3794.37 1434.11   1
   3  -7  -2 3789.17 1128.44  22
   3  -7  -2 4053.11 565.787  31
   3  -7  -3 187604. 7864.76  12
   3  -7  -3 185846. 7681.36  20
   3  -7  -3 172100. 4003.53  31
   3  -7  -4 9013.34 1935.61  12
   3  -7  -4 9143.14 799.587  31
   3  -7  -4 8511.23 1804.25  20
   3  -7  -5 71642.0 5543.99  12
   3  -7  -5 70748.5 4901.00  20
   3  -7  -6 215978. 10487.9  12
   3  -7  -6 198948. 8612.70  20
   3  -7  -7 65670.5 5881.41  12
   3  -7  -7 61943.6 4770.80  20
   3  -7  -8 152493. 8860.93  12
   3  -7  -8 143470. 6900.16  17
   3  -7  -8 154166. 7718.58  20
   3  -7  -9 2763.87 1160.47  20
   3  -7  -9 2606.47 1016.54  17
   3  -7 -10 108000. 5771.41  20
   4  -7   7 12622.1 522.686  31
   4  -7   6 38013.6 1179.92  31
   4  -7   6 36542.7 1021.39  36
   4  -7   5 39074.9 1365.33  31
   4  -7   4 1174.72 340.380  31
   4  -7   4 1113.27 278.319  35
   4  -7   3 56358.7 1920.25  31
   4  -7   3 56288.0 1836.71  35
   4  -7   3 58443.7 2077.60  37
   4  -7   2 4791.84 587.323  31
   4  -7   2 5223.20 633.018  35
   4  -7   2 5129.84 743.287  37
   4  -7   1 57873.0 2037.23  31
   4  -7   1 61407.6 1935.27  27
   4  -7   1 59210.3 2160.97  35
   4  -7   1 60093.1 2416.43  37
   4  -7   0 49703.3 2281.48  37
   4  -7   0 47859.1 1831.64  31
   4  -7   0 46707.1 2032.23  35
   4  -7  -1 14598.0 1313.25  37
   4  -7  -1 16084.2 2057.42  22
   4  -7  -2 112564. 5888.53  22
   4  -7  -2 124146. 3993.83  37
   4  -7  -3 789.379 874.473  22
   4  -7  -4 63910.0 4937.56  22
   4  -7  -5 41980.7 4199.34  22
   4  -7  -6 41563.8 4435.37  22
   4  -7  -6 40582.5 3809.73  20
   4  -7  -7 104248. 7174.69  22
   4  -7  -7 96948.5 5865.74  20
   4  -7  -8 3186.95 1385.70  22
   4  -7  -8 3595.08 1293.59  20
   4  -7  -9 55616.9 4557.97  22
   5  -7   5 7187.28 381.427  36
   5  -7   4 55621.6 1478.95  36
   5  -7   3 370.772 214.444  35
   5  -7   2 86127.5 1942.70  27
   5  -7   2 85518.3 2236.97  35
   5  -7   1 47381.5 1721.95  35
   5  -7   1 47089.3 1866.63  37
   5  -7   1 45671.9 1482.90  27
   5  -7   0 26841.1 1204.64  27
   5  -7   0 26681.1 1390.92  35
   5  -7   0 26568.9 1500.07  37
   5  -7  -1 69939.1 2602.94  37
   5  -7  -1 68529.5 2416.40  35
   5  -7  -1 67770.8 2139.71  27
   5  -7  -2 970.077 513.885  37
   5  -7  -2 818.005 562.136  35
   5  -7  -3 62993.9 2478.13  35
   5  -7  -3 61006.7 2693.82  37
   5  -7  -4 11266.0 1125.70  35
   5  -7  -4 8899.02 1029.31  37
   5  -7  -5 81312.0 3014.92  35
   5  -7  -6 34894.1 1809.88  35
   5  -7  -7 11278.7 925.445  35
   6  -7   0 11045.3 522.549  27
   6  -7   0 12102.8 614.864  36
   6  -7   0 11521.9 619.685  35
   6  -7  -1 55346.7 1557.70  35
   6  -7  -1 52926.8 1400.02  27
   6  -7  -1 51337.9 1348.75  29
   6  -7  -2 76205.8 1901.90  29
   6  -7  -2 77328.0 2014.21  35
   6  -7  -2 76499.8 1865.52  27
   6  -7  -3 2333.86 365.351  27
   6  -7  -3 1822.09 348.648  35
   6  -7  -4 91466.1 2157.93  27
   6  -7  -4 78743.8 2018.33  35
   6  -7  -5 12772.6 738.902  27
   6  -7  -6 34289.7 1115.81  27
  -6  -6   3 8323.30 474.237  40
  -6  -6   2 39317.4 1201.56  40
  -6  -6   1 664.957 245.163  40
  -6  -6   0 64087.3 1909.03  39
  -6  -6  -1 9205.75 728.950  42
  -6  -6  -1 8519.75 722.446  39
  -6  -6  -2 14609.0 941.854  39
  -6  -6  -2 17376.2 1011.82  42
  -6  -6  -3 30880.2 1391.28  42
  -6  -6  -4 11993.1 891.062  42
  -6  -6  -5 55080.9 1932.60  42
  -6  -6  -6 6694.60 672.867  42
  -6  -6  -7 15243.9 949.992  42
  -6  -6  -8 17313.1 903.995  42
  -6  -6  -9 13951.6 689.247  42
  -5  -6   6 33066.9 963.593  40
  -5  -6   5 4743.97 425.766  40
  -5  -6   4 46115.0 1463.04  52
  -5  -6   4 48050.0 1507.42  40
  -5  -6   3 123926. 2846.42  52
  -5  -6   3 119749. 2847.88  40
  -5  -6   2 2590.70 448.047  52
  -5  -6   1 103269. 2792.65  52
  -5  -6   1 108646. 3348.96  39
  -5  -6   1 112018. 3038.61  42
  -5  -6   0 14365.7 981.164  52
  -5  -6   0 14799.7 1125.50  42
  -5  -6   0 12193.0 1103.05  39
  -5  -6  -1 60852.6 2135.58  52
  -5  -6  -1 60519.3 2332.55  42
  -5  -6  -1 60159.5 2440.44  39
  -5  -6  -2 36495.6 1861.22  42
  -5  -6  -2 36599.2 1779.32  39
  -5  -6  -2 38098.3 1691.24  52
  -5  -6  -3 16692.3 1320.87  42
  -5  -6  -3 16627.5 1122.77  52
  -5  -6  -4 124370. 3832.21  42
  -5  -6  -5 1932.81 696.362  42
  -5  -6  -6 39397.6 2092.67  42
  -5  -6  -6 42180.2 2073.07  24
  -5  -6  -7 14760.7 1206.48  24
  -5  -6  -7 16157.8 1340.55  42
  -5  -6  -8 17930.3 1218.54  53
  -5  -6  -8 16154.6 1324.42  42
  -5  -6  -8 20373.8 1370.41  24
  -5  -6  -9 37770.3 1604.64  53
  -5  -6  -9 35994.5 1775.28  42
  -5  -6 -10 1134.97 432.569  42
  -5  -6 -11 51820.2 1747.22  42
  -4  -6   8 1485.13 188.032  40
  -4  -6   7 47939.7 1324.04  40
  -4  -6   6 3930.71 439.312  40
  -4  -6   6 4675.97 542.522  52
  -4  -6   5 44728.7 1691.60  52
  -4  -6   5 41825.5 1506.07  40
  -4  -6   4 38380.1 1636.53  52
  -4  -6   4 35999.6 1470.18  40
  -4  -6   3 16026.0 1090.87  52
  -4  -6   2 111870. 3149.68  52
  -4  -6   2 111244. 3523.80  39
  -4  -6   2 112970. 3177.01  42
  -4  -6   1 64.0762 339.155  39
  -4  -6   1 814.598 454.348  42
  -4  -6   1 42.0186 326.219  52
  -4  -6   0 65683.4 2446.81  42
  -4  -6   0 65085.7 2363.07  52
  -4  -6  -1 9259.23 887.233  52
  -4  -6  -1 8563.00 921.975  42
  -4  -6  -2 59096.7 2465.69  42
  -4  -6  -3 64544.4 2670.11  24
  -4  -6  -3 61995.7 2591.85  42
  -4  -6  -4 39394.6 1995.53  53
  -4  -6  -4 35867.6 1971.02  42
  -4  -6  -5 139456. 4181.23  24
  -4  -6  -5 137434. 4091.22  42
  -4  -6  -5 141461. 4146.93  53
  -4  -6  -6 7398.62 950.474  42
  -4  -6  -6 7448.91 970.887  53
  -4  -6  -6 5542.95 863.836  24
  -4  -6  -7 77452.9 2979.58  42
  -4  -6  -7 80089.8 3042.49  24
  -4  -6  -7 73144.6 3013.51  53
  -4  -6  -8 50796.6 2449.21  53
  -4  -6  -8 47211.8 2319.77  24
  -4  -6  -8 49834.4 2365.47  42
  -4  -6  -9 22031.2 1615.69  53
  -4  -6  -9 24187.1 1603.70  24
  -4  -6  -9 22640.0 1565.38  42
  -4  -6 -10 79102.4 2938.03  53
  -4  -6 -10 79401.5 2817.18  42
  -4  -6 -10 81738.8 2876.55  24
  -4  -6 -11 1787.16 437.445  24
  -4  -6 -11 1278.00 475.004  53
  -4  -6 -11 1276.27 493.925  42
  -4  -6 -12 87706.8 2586.38  42
  -4  -6 -12 83129.0 2572.03  53
  -4  -6 -13 9496.05 704.775  53
  -4  -6 -13 8771.10 683.240  42
  -3  -6   9 21690.1 828.775  26
  -3  -6   8 30197.6 1204.02  26
  -3  -6   8 32019.6 1019.82  40
  -3  -6   7 142.846 261.061  26
  -3  -6   7 228.532 362.194  52
  -3  -6   7 202.511 204.529  40
  -3  -6   6 89318.9 2663.68  52
  -3  -6   6 88656.3 2644.53  26
  -3  -6   6 91595.7 2320.71  40
  -3  -6   5 28330.2 1250.92  40
  -3  -6   5 29173.1 1488.18  52
  -3  -6   4 63525.4 2288.96  52
  -3  -6   4 64514.9 2022.73  40
  -3  -6   3 56366.7 2135.75  52
  -3  -6   2 23500.8 3674.31   6
  -3  -6   2 21269.6 1297.20  52
  -3  -6   2 22184.7 1270.74  42
  -3  -6   1 124330. 3398.35  52
  -3  -6   1 126244. 3339.19  42
  -3  -6   0 13125.3 1004.51  42
  -3  -6   0 13661.7 1031.33  52
  -3  -6  -1 152295. 3864.08  42
  -3  -6  -1 151040. 3439.68  32
  -3  -6  -1 147672. 8393.14   6
  -3  -6  -2 132874. 3609.68  53
  -3  -6  -2 122815. 6910.75   6
  -3  -6  -2 122077. 3096.12  32
  -3  -6  -2 129860. 3659.50  24
  -3  -6  -2 128091. 3541.94  42
  -3  -6  -3 6627.25 680.514  32
  -3  -6  -3 7593.58 1545.98   6
  -3  -6  -3 6756.71 820.300  24
  -3  -6  -3 5738.78 741.948  53
  -3  -6  -3 5171.10 689.761  42
  -3  -6  -4 123463. 3628.77  53
  -3  -6  -4 112872. 3344.21  42
  -3  -6  -4 117327. 3492.26  24
  -3  -6  -5 3301.80 630.190  53
  -3  -6  -5 2265.67 572.682  24
  -3  -6  -5 2644.14 532.223  42
  -3  -6  -6 169786. 4304.84  42
  -3  -6  -6 164784. 7769.63   2
  -3  -6  -6 168846. 4377.97  24
  -3  -6  -6 156664. 4410.95  53
  -3  -6  -7 104479. 3292.22  42
  -3  -6  -7 104927. 3356.47  24
  -3  -6  -7 106132. 3505.78  53
  -3  -6  -7 102816. 6112.71   2
  -3  -6  -8 15972.4 1258.50  42
  -3  -6  -9 132092. 3839.37  42
  -3  -6 -10 2492.68 604.717  42
  -3  -6 -11 62719.4 2431.03  42
  -3  -6 -12 2534.78 564.314  42
  -3  -6 -13 42448.0 1724.58  42
  -3  -6 -14 32117.6 1447.20  53
  -3  -6 -14 28923.4 1236.65  42
  -3  -6 -15 5642.44 486.709  53
  -2  -6  10 35580.3 1154.36  26
  -2  -6   9 58556.1 1812.36  26
  -2  -6   8 18292.3 1099.61  26
  -2  -6   7 162749. 3850.33  52
  -2  -6   6 15570.0 1101.53  52
  -2  -6   6 15075.3 1054.11  48
  -2  -6   5 101552. 2939.81  52
  -2  -6   5 100121. 2925.60  48
  -2  -6   4 56993.5 2098.19  52
  -2  -6   4 52049.5 1987.20  48
  -2  -6   3 79512.1 2467.27  48
  -2  -6   3 84474.5 2599.56  52
  -2  -6   2 91565.6 6102.76   6
  -2  -6   2 101104. 2826.95  52
  -2  -6   2 97527.4 2680.94  48
  -2  -6   2 95155.9 2512.19  42
  -2  -6   1 21271.3 2933.38   6
  -2  -6   0 145134. 7704.45   6
  -2  -6  -1 131564. 7180.87   6
  -2  -6  -2 208798. 4521.94  24
  -2  -6  -2 190446. 8132.64   6
  -2  -6  -3 55163.0 2024.88  24
  -2  -6  -3 56013.6 3800.26   6
  -2  -6  -4 26528.0 1369.67  24
  -2  -6  -5 137298. 3841.68  15
  -2  -6  -5 132415. 3394.96  24
  -2  -6  -6 12144.9 1918.00   2
  -2  -6  -6 12484.8 1170.28  15
  -2  -6  -7 185952. 4172.47  42
  -2  -6  -7 193073. 7961.40   2
  -2  -6  -7 173870. 5055.39  15
  -2  -6  -8 152741. 6069.11   8
  -2  -6  -8 147896. 7027.25   2
  -2  -6  -8 142840. 3617.10  42
  -2  -6  -9 23277.7 1360.31  42
  -2  -6  -9 26137.7 2917.17   2
  -2  -6  -9 21830.2 1655.03  15
  -2  -6  -9 24104.8 2380.19   8
  -2  -6 -10 140822. 3795.52  42
  -2  -6 -10 144143. 4417.64  15
  -2  -6 -11 3139.04 770.149  15
  -2  -6 -11 1978.69 512.549  42
  -2  -6 -12 70183.5 2464.97  42
  -2  -6 -12 71250.4 2458.99  13
  -2  -6 -13 30446.7 1490.00  42
  -2  -6 -14 31837.5 1377.89  42
  -2  -6 -15 49867.3 1451.40  42
  -1  -6  11 23469.9 828.035  26
  -1  -6  10 47094.1 1515.83  26
  -1  -6   9 10852.3 841.550  26
  -1  -6   8 78050.0 2506.20  26
  -1  -6   7-11.7983 329.728  52
  -1  -6   6 170750. 4010.56  52
  -1  -6   6 176166. 4216.12  48
  -1  -6   5 13464.1 1037.08  48
  -1  -6   5 14548.1 1010.11  52
  -1  -6   5 11914.7 1823.18   6
  -1  -6   4 47715.9 1899.72  48
  -1  -6   4 50970.1 3784.55   6
  -1  -6   4 50898.4 1872.47  52
  -1  -6   3 130674. 3184.99  52
  -1  -6   3 130380. 3261.42  48
  -1  -6   2 50436.0 3734.54   6
  -1  -6   1 124413. 5813.13   6
  -1  -6   0 1933.77 917.109   6
  -1  -6  -1 148185. 6221.59   6
  -1  -6  -2 80929.8 4489.32   6
  -1  -6  -2 79979.6 3423.82  17
  -1  -6  -2 82091.1 2165.66  24
  -1  -6  -3 10572.9 711.018  24
  -1  -6  -3 10418.3 1291.53  17
  -1  -6  -3 11937.2 1590.86   6
  -1  -6  -4 66636.3 2274.84  16
  -1  -6  -4 61926.0 1864.73  24
  -1  -6  -5 4163.65 1007.53   8
  -1  -6  -5 4914.65 744.972  16
  -1  -6  -6 154694. 4073.04  16
  -1  -6  -6 156939. 6044.70   8
  -1  -6  -7 61229.6 3764.79   8
  -1  -6  -7 56718.3 2356.48  16
  -1  -6  -8 106795. 5270.38   8
  -1  -6  -9 69097.8 2321.03  25
  -1  -6  -9 60935.1 2599.57  15
  -1  -6  -9 62083.1 4350.73   2
  -1  -6  -9 69720.1 4347.80   8
  -1  -6 -10 24651.8 2757.21   2
  -1  -6 -10 24628.9 1381.53  25
  -1  -6 -10 23642.2 1601.41  15
  -1  -6 -10 25058.0 2665.40   8
  -1  -6 -11 79407.9 4765.30   8
  -1  -6 -11 72585.5 2493.74  25
  -1  -6 -12 35105.9 1667.94  25
   0  -6  11 22326.1 801.869  26
   0  -6  10 15337.6 693.796  31
   0  -6  10 15599.2 838.785  26
   0  -6   9 75475.9 2226.80  26
   0  -6   9 71875.4 1971.64  31
   0  -6   8 17236.9 1110.41  26
   0  -6   8 15198.6 936.235  31
   0  -6   7 132556. 3258.41  31
   0  -6   6 5551.61 625.459  31
   0  -6   6 5991.80 754.215  48
   0  -6   6 5975.11 645.296  52
   0  -6   5 112768. 2954.60  31
   0  -6   5 115560. 5444.46   6
   0  -6   5 114851. 2957.98  52
   0  -6   5 118169. 3261.66  48
   0  -6   4 95505.0 4916.12   6
   0  -6   4 104530. 2929.22  48
   0  -6   4 98954.1 2607.26  52
   0  -6   4 98151.8 2637.92  31
   0  -6   3 70039.9 4103.65   6
   0  -6   3 63562.7 2117.90  48
   0  -6   2 243436. 7998.40   6
   0  -6   1 11516.8 1608.63   6
   0  -6   0 165879. 6031.51   6
   0  -6  -1 12505.5 714.602  16
   0  -6  -1 11909.8 1204.91  20
   0  -6  -1 11588.9 1474.94   6
   0  -6  -2 174137. 5853.41  17
   0  -6  -2 178985. 5873.76   6
   0  -6  -2 178158. 3612.36  16
   0  -6  -3 302229. 5447.59  16
   0  -6  -3 292131. 7619.92   6
   0  -6  -4 24738.2 2247.80  17
   0  -6  -4 27634.5 1364.05  16
   0  -6  -5 509587. 12397.8   8
   0  -6  -5 502261. 8598.42  16
   0  -6  -6 10054.8 1635.71   8
   0  -6  -6 11581.4 969.633  16
   0  -6  -7 140805. 6123.17   8
   0  -6  -7 130511. 3572.76  16
   0  -6  -8 121636. 5907.89   8
   0  -6  -8 118224. 3428.29  16
   0  -6  -9 90853.8 3034.01  16
   0  -6  -9 95195.7 5296.57   8
   0  -6 -10 197533. 7778.95   2
   0  -6 -10 198304. 4963.98  16
   0  -6 -10 205858. 8141.87   8
   0  -6 -11 25672.7 1604.70  15
   0  -6 -11 24003.8 1542.90  16
   0  -6 -11 26197.4 2852.87   8
   0  -6 -12 48543.7 2152.37  15
   0  -6 -13 47899.2 2015.32  15
   1  -6  11 52570.9 1227.74  31
   1  -6  10 19851.1 814.444  26
   1  -6  10 19576.3 878.517  31
   1  -6   9 30023.8 1276.85  31
   1  -6   9 30815.1 1247.77  26
   1  -6   8 97678.1 2666.95  26
   1  -6   8 99677.2 2740.80  31
   1  -6   7 1851.37 715.483  19
   1  -6   7 2252.13 511.670  31
   1  -6   7 2191.66 450.510  26
   1  -6   6 72426.1 4066.38  19
   1  -6   6 72907.9 2404.92  31
   1  -6   5 11593.6 1672.34  19
   1  -6   5 12981.6 976.927  31
   1  -6   5 13038.8 1017.47  48
   1  -6   5 10856.0 1656.70   6
   1  -6   4 151482. 6548.92   6
   1  -6   4 148984. 3613.59  31
   1  -6   4 149884. 3716.42  48
   1  -6   3 198356. 7632.07   6
   1  -6   3 208993. 4374.24  31
   1  -6   3 209033. 4444.99  48
   1  -6   2 2524.14 937.345   6
   1  -6   1 209449. 7636.95   6
   1  -6   0 1810.86 606.154  20
   1  -6   0 2045.69 789.000   6
   1  -6  -1 112127. 4559.04  20
   1  -6  -1 116969. 2723.00  16
   1  -6  -1 107497. 5019.48   6
   1  -6  -1 117641. 5634.02   1
   1  -6  -2 226206. 7119.72   6
   1  -6  -2 234000. 7422.73  17
   1  -6  -2 228953. 7673.33   1
   1  -6  -2 213897. 6834.06  20
   1  -6  -3 161710. 5394.35   6
   1  -6  -3 158566. 6170.20  17
   1  -6  -3 152527. 5744.41   1
   1  -6  -4 429164. 11464.9  17
   1  -6  -5 18168.9 2185.69  17
   1  -6  -6 172459. 7081.63   8
   1  -6  -7 9708.60 1749.81   8
   1  -6  -8 59589.4 2441.83  16
   1  -6  -8 58676.4 4245.51   8
   1  -6  -9 68931.1 4680.03   8
   1  -6  -9 68276.4 2629.52  16
   1  -6 -10 17773.7 2109.25   2
   1  -6 -10 20569.2 1426.74  16
   1  -6 -10 19600.8 2550.52   8
   1  -6 -11 142778. 6878.01   8
   1  -6 -11 140722. 3944.86  16
   1  -6 -12 3671.36 607.653  15
   2  -6  11 13042.4 509.731  31
   2  -6  10 62820.7 1629.88  31
   2  -6   9 75080.8 2099.41  31
   2  -6   8 5379.75 659.675  31
   2  -6   7 60526.9 2170.79  31
   2  -6   7 58876.0 3654.79  19
   2  -6   6 46493.8 1964.26  31
   2  -6   6 50535.5 3584.75  19
   2  -6   5 116869. 5691.00  19
   2  -6   5 121436. 3335.60  31
   2  -6   4 26590.7 2944.45   6
   2  -6   4 27058.2 1315.18  37
   2  -6   4 26519.7 1422.44  31
   2  -6   4 26295.8 1362.68  48
   2  -6   3 5579.24 633.332  37
   2  -6   3 4793.55 632.106  31
   2  -6   2 142402. 7605.25   1
   2  -6   2 135428. 3402.29  31
   2  -6   1 3105.17 1246.02   1
   2  -6   1 4252.52 541.674  31
   2  -6   0 102182. 6670.42   1
   2  -6  -1 121613. 5447.12  20
   2  -6  -1 134491. 5531.52  12
   2  -6  -1 122706. 7532.05   1
   2  -6  -2 32008.6 2834.09  20
   2  -6  -2 30815.9 3559.27   1
   2  -6  -3 195747. 7412.30  20
   2  -6  -3 208099. 7522.64  17
   2  -6  -3 186465. 8189.80   1
   2  -6  -4 26534.7 2692.64  17
   2  -6  -4 26560.3 2754.84  20
   2  -6  -5 171085. 7312.33  17
   2  -6  -6 5736.02 1457.49  17
   2  -6  -7 108485. 6133.05  17
   2  -6  -8 77108.9 5282.13  17
   2  -6  -8 86757.4 5490.89   8
   2  -6  -9 14085.0 2258.61   8
   2  -6  -9 14306.1 2361.21  17
   2  -6 -10 95172.8 5691.16   8
   2  -6 -10 94317.3 3298.20  16
   2  -6 -11 6443.57 804.453  16
   2  -6 -11 5983.36 1489.86  17
   2  -6 -12 96763.9 5268.34  17
   3  -6  10 26051.7 803.243  31
   3  -6   9 27706.6 1047.16  31
   3  -6   8 37955.6 1440.95  31
   3  -6   7 4135.28 602.657  31
   3  -6   6 96741.1 2859.76  31
   3  -6   6 97635.2 5007.15  19
   3  -6   5 18224.3 2299.28  19
   3  -6   5 20929.6 1316.31  31
   3  -6   5 20547.1 1196.97  37
   3  -6   4 90266.1 5191.24  19
   3  -6   4 81301.4 2714.39  31
   3  -6   4 84543.5 2415.42  35
   3  -6   4 85840.7 2732.88  37
   3  -6   3 40477.1 1687.92  35
   3  -6   3 41099.8 1914.85  37
   3  -6   3 40509.4 1814.85  31
   3  -6   2 41804.1 1821.77  31
   3  -6   2 40060.9 1951.45  37
   3  -6   2 45730.3 4893.78   1
   3  -6   1 220010. 11661.9   1
   3  -6   1 218569. 4772.45  31
   3  -6   0 80058.2 2518.63  31
   3  -6   0 85703.1 7105.75   1
   3  -6   0 81634.4 4537.83  22
   3  -6  -1 187692. 7349.53  12
   3  -6  -1 166145. 9339.21   1
   3  -6  -1 173363. 7348.20  22
   3  -6  -1 171002. 3953.01  31
   3  -6  -2 103800. 2852.94  31
   3  -6  -2 114916. 6207.87  12
   3  -6  -2 112792. 5963.28  20
   3  -6  -2 107813. 6940.65   1
   3  -6  -3 48863.7 4418.14  12
   3  -6  -3 50777.2 4370.65   1
   3  -6  -3 50612.2 1864.69  31
   3  -6  -3 48232.5 4028.80  20
   3  -6  -4 91231.1 6586.12  12
   3  -6  -4 99430.1 5926.80  20
   3  -6  -5 3334.60 1657.86  12
   3  -6  -5 2285.81 1217.77  20
   3  -6  -6 262890. 9670.44  17
   3  -6  -6 257083. 10389.3  20
   3  -6  -7 67482.8 4836.11  17
   3  -6  -7 68646.3 5374.30  20
   3  -6  -8 57992.9 4508.96  17
   3  -6  -8 56298.2 5023.75  20
   3  -6  -9 133184. 6689.65  17
   3  -6  -9 121349. 7034.08  20
   3  -6 -10 1136.21 902.638  20
   3  -6 -11 95174.6 5296.29  20
   4  -6   8 6535.33 427.284  31
   4  -6   7 99422.8 2074.35  36
   4  -6   7 100321. 2323.80  31
   4  -6   6 2362.84 414.522  31
   4  -6   5 39093.3 1428.57  35
   4  -6   5 38126.3 1597.41  31
   4  -6   4 48700.0 1802.99  35
   4  -6   4 49150.1 3649.21  19
   4  -6   4 47399.8 1895.70  31
   4  -6   4 48870.6 2012.57  37
   4  -6   3 22297.9 1309.94  31
   4  -6   3 23157.6 1471.88  37
   4  -6   3 24224.3 1349.47  35
   4  -6   3 24065.5 1154.83  27
   4  -6   3 21711.2 2548.48  19
   4  -6   2 103538. 3461.49  37
   4  -6   2 100558. 3015.88  31
   4  -6   2 104329. 3148.36  35
   4  -6   2 106033. 2844.66  27
   4  -6   1 46.0765 519.397  37
   4  -6   1 499.783 476.305  35
   4  -6   0 132882. 6319.66  22
   4  -6   0 125475. 4228.81  37
   4  -6  -1 51205.0 2739.75  37
   4  -6  -1 53238.1 4247.05  22
   4  -6  -2 68918.6 3346.14  37
   4  -6  -2 68911.9 5248.20  22
   4  -6  -3 71276.4 5626.73  22
   4  -6  -3 70356.7 5505.36  12
   4  -6  -4 18589.8 3129.05  12
   4  -6  -4 17197.9 3083.93  22
   4  -6  -5 77602.9 6862.44  12
   4  -6  -5 72958.7 5561.71  20
   4  -6  -5 71994.8 6561.30  22
   4  -6  -6 30524.8 4695.84  22
   4  -6  -6 31186.8 4854.81  12
   4  -6  -6 30032.7 3674.48  20
   4  -6  -7 121540. 9888.79  22
   4  -6  -7 129749. 7765.38  20
   4  -6  -8 51152.8 5951.95  22
   4  -6  -8 56115.5 4873.86  20
   4  -6  -9 2493.76 1362.41  22
   5  -6   6 65701.3 1523.04  36
   5  -6   5 37271.5 1294.86  36
   5  -6   3 77057.0 2315.31  35
   5  -6   3 77878.3 2054.17  27
   5  -6   2 1576.51 336.796  29
   5  -6   2 988.159 464.837  35
   5  -6   2 1199.44 354.595  27
   5  -6   1 133522. 4060.19  37
   5  -6   1 139539. 3774.05  35
   5  -6   1 134613. 3360.29  27
   5  -6   0 3328.70 757.724  35
   5  -6   0 2104.87 688.686  37
   5  -6  -1 95782.6 3389.74  35
   5  -6  -1 87843.2 3700.10  37
   5  -6  -2 83783.9 5473.74  22
   5  -6  -2 73142.1 3649.66  37
   5  -6  -2 85576.8 3325.92  35
   5  -6  -3 15018.6 1520.77  35
   5  -6  -3 12091.6 2273.03  21
   5  -6  -3 15335.6 2588.81  22
   5  -6  -3 13580.0 1595.40  37
   5  -6  -4 98714.8 7268.96  21
   5  -6  -4 116145. 7291.51  22
   5  -6  -4 104948. 4202.65  35
   5  -6  -4 99810.9 3778.90  37
   5  -6  -5 4458.84 1806.98  22
   5  -6  -5 1668.13 1434.42  21
   5  -6  -6 60161.7 5885.12  22
   5  -6  -7 20315.6 1358.75  35
   6  -6   3 16052.1 725.706  36
   6  -6   2 55544.5 1623.93  36
   6  -6   2 52423.3 1373.77  27
   6  -6   1 289.609 263.315  35
   6  -6   1 680.892 316.040  36
   6  -6   1 404.945 186.469  29
   6  -6   1 58.5011 210.713  27
   6  -6   0 44974.0 1528.79  29
   6  -6   0 50547.6 1790.47  35
   6  -6   0 47766.6 1576.49  27
   6  -6  -1 4083.61 600.681  35
   6  -6  -1 5183.66 587.359  27
   6  -6  -2 66387.1 2365.29  35
   6  -6  -2 67482.5 2156.47  27
   6  -6  -3 71600.6 2613.60  35
   6  -6  -3 78889.7 2433.35  27
   6  -6  -4 1849.21 468.634  35
   6  -6  -4 5200.21 748.724  27
   6  -6  -5 65162.8 2077.56  35
   6  -6  -5 83907.1 2569.50  27
   6  -6  -6 3750.14 573.889  27
   6  -6  -7 37330.5 1322.71  27
  -6  -5   5 171.995 144.756  40
  -6  -5   4 51222.0 1420.53  40
  -6  -5   3 15389.6 823.288  40
  -6  -5   2 26042.1 1169.46  40
  -6  -5   2 24653.5 1321.80  39
  -6  -5   1 30520.8 1621.41  39
  -6  -5   0 14907.7 1182.42  39
  -6  -5   0 17530.2 1091.83  42
  -6  -5  -1 51812.3 2181.38  39
  -6  -5  -1 56274.4 2063.72  42
  -6  -5  -2 1012.31 424.533  39
  -6  -5  -2 1105.56 475.684  42
  -6  -5  -3 47727.8 1958.71  39
  -6  -5  -3 48739.8 2039.97  42
  -6  -5  -4 23887.7 1448.73  42
  -6  -5  -4 23019.7 1295.88  39
  -6  -5  -5 17022.4 1242.53  42
  -6  -5  -5 16868.8 1051.59  39
  -6  -5  -6 42236.6 1942.99  42
  -6  -5  -6 34822.8 1399.34  39
  -6  -5  -7 177.130 197.271  39
  -6  -5  -7 348.530 429.135  42
  -6  -5  -8 74024.6 2385.82  42
  -6  -5  -9 4666.50 523.862  42
  -5  -5   8 26292.2 756.951  40
  -5  -5   7 36346.8 1112.82  40
  -5  -5   6 10984.3 688.258  40
  -5  -5   5 79462.2 2193.49  40
  -5  -5   4 7849.57 742.386  40
  -5  -5   3 101621. 3420.20  39
  -5  -5   2 66413.1 2387.17  42
  -5  -5   2 58860.1 2703.90  39
  -5  -5   1 28315.1 1604.76  42
  -5  -5   1 25970.9 1767.26  39
  -5  -5   0 99237.6 3426.17  39
  -5  -5   0 100734. 3260.31  42
  -5  -5  -1 244.146 554.401  42
  -5  -5  -1 1252.08 483.959  39
  -5  -5  -2 81072.2 2823.87  39
  -5  -5  -2 82937.7 3107.81  42
  -5  -5  -3 51604.8 2143.30  39
  -5  -5  -3 53165.6 2539.80  42
  -5  -5  -4 81428.4 3258.27  42
  -5  -5  -4 91537.1 3357.34  24
  -5  -5  -5 137134. 4358.87  42
  -5  -5  -5 134024. 4235.57  24
  -5  -5  -6 3502.57 748.426  24
  -5  -5  -6 3249.27 818.246  42
  -5  -5  -7 69326.3 2981.77  42
  -5  -5  -7 67175.7 2881.13  24
  -5  -5  -8 4172.45 783.450  24
  -5  -5  -8 4293.68 933.183  42
  -5  -5  -9 46394.4 2255.87  42
  -5  -5  -9 47314.9 2196.76  24
  -5  -5 -10 36706.9 1825.07  42
  -5  -5 -11 11412.0 912.389  42
  -5  -5 -12 33175.8 1300.21  42
  -4  -5   9 52451.1 1305.55  40
  -4  -5   8 50991.2 1476.81  40
  -4  -5   7 12509.6 870.614  52
  -4  -5   7 14255.7 848.947  40
  -4  -5   6 70370.9 2297.46  52
  -4  -5   6 70458.3 2140.16  40
  -4  -5   5 980.919 387.164  52
  -4  -5   5 608.855 351.817  40
  -4  -5   4 65216.6 2324.74  52
  -4  -5   4 64490.8 2237.51  40
  -4  -5   3 24717.4 1748.63  39
  -4  -5   3 25992.5 1474.35  42
  -4  -5   3 26332.2 1451.61  52
  -4  -5   2 50727.2 2081.63  52
  -4  -5   2 55036.6 2216.91  42
  -4  -5   2 50072.0 2515.21  39
  -4  -5   1 38170.8 2032.09  39
  -4  -5   1 37722.4 1786.80  52
  -4  -5   1 33137.3 4244.70   5
  -4  -5   1 32426.0 4410.73   6
  -4  -5   1 38713.9 1904.00  42
  -4  -5   0 16001.2 1221.87  39
  -4  -5   0 17429.7 3143.54   5
  -4  -5   0 15446.2 1245.19  42
  -4  -5   0 21418.1 1324.19  52
  -4  -5  -1 91564.6 2891.68  39
  -4  -5  -1 90342.5 3187.02  42
  -4  -5  -2 34583.4 1980.01  24
  -4  -5  -2 32566.5 1873.45  42
  -4  -5  -3 63115.2 2664.31  42
  -4  -5  -3 63297.1 2552.11  53
  -4  -5  -3 69669.6 2839.40  24
  -4  -5  -4 30823.8 1917.53  24
  -4  -5  -4 34835.1 1897.26  53
  -4  -5  -4 31927.5 1876.63  42
  -4  -5  -5 50689.9 2418.15  53
  -4  -5  -5 49498.8 2373.40  42
  -4  -5  -5 52964.7 2495.41  24
  -4  -5  -6 118380. 3892.26  24
  -4  -5  -6 115211. 3827.16  53
  -4  -5  -6 110238. 3702.88  42
  -4  -5  -7 2194.53 663.700  24
  -4  -5  -7 1768.63 625.509  53
  -4  -5  -7 951.580 525.661  42
  -4  -5  -8 113903. 3849.07  24
  -4  -5  -8 111852. 3875.57  53
  -4  -5  -8 111530. 3814.08  42
  -4  -5  -9 15249.4 1369.86  24
  -4  -5  -9 19455.2 1578.15  53
  -4  -5  -9 16763.7 1451.15  42
  -4  -5 -10 71177.6 2849.34  42
  -4  -5 -10 68566.9 2817.21  53
  -4  -5 -11 71760.9 2659.76  24
  -4  -5 -11 68228.7 2634.35  53
  -4  -5 -11 72801.1 2742.93  42
  -4  -5 -12 17316.1 1199.29  53
  -4  -5 -12 17949.3 1244.05  42
  -4  -5 -13 46933.2 1758.32  42
  -4  -5 -13 43555.7 1625.57  53
  -4  -5 -14 3785.87 413.721  42
  -3  -5  10 51735.0 1421.97  26
  -3  -5  10 53395.2 1301.61  40
  -3  -5   9 3560.18 397.485  40
  -3  -5   9 2782.48 416.397  26
  -3  -5   8 23560.7 1090.88  40
  -3  -5   8 23789.7 1259.84  26
  -3  -5   8 25613.8 1317.67  52
  -3  -5   7 63307.5 2284.37  26
  -3  -5   7 66568.6 2048.72  40
  -3  -5   7 67536.4 2326.18  52
  -3  -5   6 26993.3 1477.58  52
  -3  -5   6 27199.9 1315.87  40
  -3  -5   6 27873.3 1499.59  26
  -3  -5   5 122416. 3138.90  40
  -3  -5   5 131044. 3504.66  52
  -3  -5   4 465.934 271.454  40
  -3  -5   4 1287.16 1274.79   6
  -3  -5   4 1549.90 732.773   5
  -3  -5   4 1395.16 466.610  52
  -3  -5   3 91681.4 2841.88  52
  -3  -5   3 80785.0 8330.81   6
  -3  -5   3 88419.4 5835.88   5
  -3  -5   3 89366.3 3169.88  39
  -3  -5   3 95086.7 2816.27  42
  -3  -5   2 39289.3 5189.70   6
  -3  -5   2 45038.1 1857.84  52
  -3  -5   2 45084.3 1854.19  42
  -3  -5   2 37964.5 1971.64  39
  -3  -5   1 40055.3 1737.87  52
  -3  -5   1 41427.9 4725.67   6
  -3  -5   1 40266.2 1772.91  42
  -3  -5   0 110375. 6984.88   6
  -3  -5  -1 825.930 835.231   6
  -3  -5  -1 1919.73 482.878  24
  -3  -5  -2 198392. 7981.60   6
  -3  -5  -2 189728. 4634.79  24
  -3  -5  -3 96099.7 3046.79  24
  -3  -5  -4 31622.7 1669.85  24
  -3  -5  -5 142617. 3873.83  24
  -3  -5  -5 150038. 3827.42  42
  -3  -5  -5 143873. 3906.34  53
  -3  -5  -6 24302.4 2718.47   2
  -3  -5  -6 20599.3 1332.91  42
  -3  -5  -7 126042. 6387.22   2
  -3  -5  -7 114410. 3460.19  42
  -3  -5  -8 54051.4 2346.24  42
  -3  -5  -8 56454.2 4309.72   2
  -3  -5  -9 113315. 3611.16  42
  -3  -5 -10 64764.9 2654.38  42
  -3  -5 -11 14071.5 1252.93  42
  -3  -5 -12 61680.6 2472.08  42
  -3  -5 -13 335.269 432.422  42
  -3  -5 -14 51520.8 1860.21  42
  -3  -5 -15 31587.1 1216.47  53
  -3  -5 -15 32529.1 1177.60  42
  -2  -5  11 98879.2 2212.68  26
  -2  -5  10 4531.87 378.511  40
  -2  -5  10 3931.78 514.999  26
  -2  -5   9 80991.9 2513.91  26
  -2  -5   9 79468.7 2005.25  40
  -2  -5   8 33552.3 1663.56  26
  -2  -5   8 34632.2 1323.58  40
  -2  -5   7 70776.4 2066.07  40
  -2  -5   7 72462.3 2488.91  52
  -2  -5   6 149425. 3805.93  52
  -2  -5   6 138254. 7171.68   6
  -2  -5   6 141968. 3725.50  48
  -2  -5   6 148632. 3280.85  40
  -2  -5   5 19564.9 1236.00  52
  -2  -5   5 19674.9 1225.69  48
  -2  -5   5 20471.2 1025.89  40
  -2  -5   4 252611. 10955.2   6
  -2  -5   4 288589. 5602.45  52
  -2  -5   4 273280. 4994.23  40
  -2  -5   4 268331. 5384.59  48
  -2  -5   3 33935.3 4155.52   6
  -2  -5   2 141542. 8943.74   6
  -2  -5   1 79143.4 6407.47   6
  -2  -5   0 4933.17 1486.59   6
  -2  -5  -1 493895. 8333.28  24
  -2  -5  -1 470918. 13373.3   6
  -2  -5  -2 891.277 291.042  24
  -2  -5  -2 1186.75 645.031   6
  -2  -5  -3 50625.5 3136.09   6
  -2  -5  -3 47810.6 1781.73  24
  -2  -5  -4 54329.8 2919.27   6
  -2  -5  -4 44954.4 2046.62  15
  -2  -5  -4 52452.0 2643.47   8
  -2  -5  -5 215086. 6053.46   8
  -2  -5  -5 214143. 5736.45  15
  -2  -5  -6 473418. 10355.4   8
  -2  -5  -6 440001. 9010.20  15
  -2  -5  -6 462279. 11847.9   2
  -2  -5  -7 10269.3 1678.45   2
  -2  -5  -7 9411.56 1087.31  15
  -2  -5  -7 11518.3 1468.12   8
  -2  -5  -8 110887. 3252.33  25
  -2  -5  -8 114330. 5720.02   2
  -2  -5  -8 105408. 3599.42  15
  -2  -5  -9 31373.7 1675.81  25
  -2  -5  -9 28852.7 2919.54   2
  -2  -5  -9 28686.7 1809.43  15
  -2  -5 -10 65697.4 4484.56   2
  -2  -5 -10 63881.3 2689.30  15
  -2  -5 -10 62905.9 2480.87  25
  -2  -5 -11 89688.4 3052.09  25
  -2  -5 -12 3149.54 535.742  13
  -2  -5 -12 4343.94 756.862  25
  -2  -5 -13 65639.7 2490.62  25
  -2  -5 -13 69220.6 2497.87  42
  -2  -5 -14 21758.5 1266.78  42
  -2  -5 -15 45003.2 1590.32  42
  -1  -5  11 722.782 277.756  26
  -1  -5  10 50455.2 1880.89  26
  -1  -5   9 6656.31 797.397  26
  -1  -5   8 141382. 3781.91  26
  -1  -5   7 199615. 4586.26  52
  -1  -5   6 3726.50 1129.85   6
  -1  -5   6 3207.91 542.538  52
  -1  -5   6 2978.39 534.850  48
  -1  -5   5 69270.4 2269.62  52
  -1  -5   5 64249.8 4316.92   6
  -1  -5   5 66038.0 2290.29  48
  -1  -5   4 10169.7 1749.21   6
  -1  -5   3 192462. 7679.41   6
  -1  -5   2 113182. 5824.49   6
  -1  -5   1 20332.3 2412.01   6
  -1  -5   0 255477. 8782.20   6
  -1  -5  -1 2820.15 983.903   6
  -1  -5  -1 3918.21 417.621  24
  -1  -5  -1 3003.10 582.100  17
  -1  -5  -2 299878. 7177.12  17
  -1  -5  -2 308330. 5290.33  24
  -1  -5  -3 77217.4 2364.67  16
  -1  -5  -3 70763.2 1877.90  24
  -1  -5  -3 71907.4 3391.93   8
  -1  -5  -3 72706.2 3474.77   6
  -1  -5  -4 108038. 3602.71   6
  -1  -5  -4 110726. 3193.74  16
  -1  -5  -4 102119. 4141.70   8
  -1  -5  -5 101120. 4111.58   8
  -1  -5  -5 103882. 3263.99  16
  -1  -5  -6 6620.98 1115.17   8
  -1  -5  -6 4711.16 752.923  16
  -1  -5  -6 5540.59 538.981  25
  -1  -5  -7 182767. 4940.72  16
  -1  -5  -7 194505. 4007.87  25
  -1  -5  -8 9707.59 1628.36  10
  -1  -5  -8 7673.69 957.601  16
  -1  -5  -8 9476.45 1533.58   2
  -1  -5  -8 9409.41 975.221  15
  -1  -5  -8 9192.06 777.679  25
  -1  -5  -9 110251. 3387.87  15
  -1  -5  -9 109498. 5581.48  10
  -1  -5  -9 101971. 5263.95   2
  -1  -5  -9 106014. 2984.86  25
  -1  -5 -10 22140.5 2562.41  10
  -1  -5 -10 24307.8 2601.93   2
  -1  -5 -10 22188.3 1314.75  25
  -1  -5 -10 21186.8 1454.77  15
  -1  -5 -11 4020.87 646.223  25
  -1  -5 -11 4427.15 1273.29  10
  -1  -5 -11 4366.72 715.994  15
  -1  -5 -12 64528.9 2495.92  15
  -1  -5 -12 60539.8 2340.29  25
  -1  -5 -13 7021.67 792.258  15
  -1  -5 -13 6347.22 763.917  25
  -1  -5 -13 6782.36 745.958  13
  -1  -5 -14 77929.6 2474.14  25
  -1  -5 -15 13609.6 841.784  42
   0  -5  11 55373.3 1496.77  31
   0  -5  11 59507.1 1750.47  26
   0  -5  10 7130.47 708.456  26
   0  -5  10 7024.68 612.929  31
   0  -5   9 115927. 2989.51  31
   0  -5   9 121658. 3287.71  26
   0  -5   8 55983.2 2042.35  31
   0  -5   8 57205.4 2209.89  26
   0  -5   7 39700.6 1698.92  31
   0  -5   7 40192.5 1754.68  52
   0  -5   6 87985.0 4749.96   6
   0  -5   6 88835.9 2647.94  52
   0  -5   6 84286.3 2547.60  31
   0  -5   6 88033.1 2834.76  48
   0  -5   5 587.417 429.390  19
   0  -5   5 426.551 574.402   6
   0  -5   5 535.284 271.445  31
   0  -5   5 752.304 314.742  48
   0  -5   4 165207. 6455.87   6
   0  -5   3 109392. 5071.23   6
   0  -5   2 33255.3 2722.35   6
   0  -5   1 238112. 7505.32   6
   0  -5   0 50820.0 2306.12  20
   0  -5   0 56809.0 3283.28   6
   0  -5   0 55216.9 1444.42  16
   0  -5  -1 427875. 6671.87  16
   0  -5  -1 420404. 9854.47   6
   0  -5  -2 40230.3 2532.82  17
   0  -5  -2 43620.3 1508.83  16
   0  -5  -2 41407.8 2548.83   6
   0  -5  -3 549263. 8739.52  16
   0  -5  -3 503446. 10821.8   6
   0  -5  -4 471070. 10786.4   8
   0  -5  -4 479921. 8060.66  16
   0  -5  -5 114389. 3057.66  16
   0  -5  -5 123315. 4834.01   8
   0  -5  -6 217826. 4765.91  16
   0  -5  -6 230171. 7093.60   8
   0  -5  -7 14953.3 1845.72   8
   0  -5  -7 14106.4 762.489  25
   0  -5  -7 14909.1 1889.72  10
   0  -5  -7 14160.7 1090.30  16
   0  -5  -8 193746. 4749.12  16
   0  -5  -8 210626. 7588.39  10
   0  -5  -8 208047. 3995.93  25
   0  -5  -9 31989.8 1790.92  16
   0  -5  -9 33167.7 1365.46  25
   0  -5  -9 32947.8 2808.69   2
   0  -5  -9 33635.4 3007.90  10
   0  -5 -10 211779. 8043.27  10
   0  -5 -10 204653. 4244.22  25
   0  -5 -10 199316. 7423.32   2
   0  -5 -11 170326. 6819.13   2
   0  -5 -11 162603. 4247.34  15
   0  -5 -11 165364. 7321.64  10
   0  -5 -11 170284. 3914.98  25
   0  -5 -12 19876.2 1314.01  15
   0  -5 -12 21099.1 1220.63  25
   0  -5 -13 142912. 3722.04  15
   0  -5 -13 155106. 3659.29  25
   1  -5  11 5086.46 430.955  26
   1  -5  11 5096.55 482.932  31
   1  -5  10 78055.4 2201.16  26
   1  -5  10 79872.6 2284.03  31
   1  -5   9 11790.8 932.775  31
   1  -5   9 11187.3 874.578  26
   1  -5   8 61525.2 3769.98  19
   1  -5   8 61770.0 2244.96  31
   1  -5   8 59158.6 2196.80  26
   1  -5   7 20458.0 2263.36  19
   1  -5   7 23532.9 1362.47  31
   1  -5   6 30725.3 1536.15  31
   1  -5   6 29380.0 1587.05  48
   1  -5   6 30269.0 2802.06   6
   1  -5   6 30490.0 2761.32  19
   1  -5   5 77416.2 4317.68  19
   1  -5   5 75135.0 4517.14   6
   1  -5   5 75364.2 2488.27  48
   1  -5   5 71915.6 2354.60  31
   1  -5   4 10911.0 1724.77   6
   1  -5   3 266484. 9005.06   6
   1  -5   2 248243. 8731.39   6
   1  -5   1 141639. 6543.03   1
   1  -5   0 171756. 5621.20  20
   1  -5   0 201576. 7840.91   1
   1  -5  -1 19958.6 1854.04  20
   1  -5  -1 21371.4 2528.36   1
   1  -5  -1 23999.8 2069.34  17
   1  -5  -2 560467. 12141.4  17
   1  -5  -2 488195. 13512.3   1
   1  -5  -3 151967. 5747.10  17
   1  -5  -3 140237. 5906.83   1
   1  -5  -4 110282. 4939.88   8
   1  -5  -4 108197. 4814.16  17
   1  -5  -5 279693. 8430.43   8
   1  -5  -6 94354.6 4689.95   8
   1  -5  -7 234645. 7944.49   8
   1  -5  -7 224133. 7409.54  10
   1  -5  -8 77556.9 4375.21  10
   1  -5  -8 79151.4 4583.82   8
   1  -5  -9 125944. 5997.52   8
   1  -5  -9 123081. 3741.57  16
   1  -5  -9 128852. 5887.50  10
   1  -5 -10 88894.4 3112.30  16
   1  -5 -10 85442.4 4363.87   2
   1  -5 -10 91228.2 5086.76  10
   1  -5 -10 85882.4 5089.95   8
   1  -5 -11 33483.9 3189.04   8
   1  -5 -11 34236.8 1820.41  16
   1  -5 -11 33777.7 3115.81  10
   1  -5 -12 141084. 3666.70  15
   1  -5 -13 108.167 222.719  15
   2  -5  11 97501.0 2213.82  31
   2  -5  10 1853.09 438.874  31
   2  -5   9 79192.8 2495.11  31
   2  -5   8 12720.1 1820.11  19
   2  -5   8 12117.1 1026.69  31
   2  -5   7 39973.2 3334.68  19
   2  -5   7 39546.0 1866.08  31
   2  -5   6 276788. 9419.09  19
   2  -5   6 271938. 5782.43  31
   2  -5   5 2072.79 932.696   6
   2  -5   5 1614.61 1024.18  19
   2  -5   5 1572.54 359.611  37
   2  -5   4 91550.0 2769.23  31
   2  -5   4 89849.9 2617.17  37
   2  -5   3 87459.6 5987.88   1
   2  -5   2 89107.9 6364.57   1
   2  -5   1 222673. 10382.0   1
   2  -5   0 6871.12 1309.81  20
   2  -5   0 8082.50 1267.14  12
   2  -5   0 6452.93 1675.00   1
   2  -5  -1 151460. 6037.90  20
   2  -5  -1 150246. 7025.96   1
   2  -5  -2 75391.3 4502.80   1
   2  -5  -2 74253.5 4224.62  20
   2  -5  -3 113987. 5335.39  17
   2  -5  -3 113714. 5482.39  20
   2  -5  -3 113159. 5162.53   1
   2  -5  -4 117758. 4896.58   1
   2  -5  -4 110905. 5487.54  17
   2  -5  -5 65037.2 4277.76  17
   2  -5  -6 120126. 6045.91  17
   2  -5  -6 115300. 5779.17   8
   2  -5  -7 28573.6 2961.06   8
   2  -5  -8 152989. 7133.33   8
   2  -5  -9 80763.5 5200.80   8
   2  -5 -10 44391.7 3798.97   8
   2  -5 -11 142772. 4068.09  16
   2  -5 -12 3743.58 508.162  15
   3  -5  11 212.677 130.475  31
   3  -5  10 58195.4 1660.23  31
   3  -5   9 6318.44 649.602  31
   3  -5   8 41055.5 1758.18  31
   3  -5   7 46886.6 3612.91  19
   3  -5   7 47941.9 2028.90  31
   3  -5   6 11528.3 1047.77  31
   3  -5   6 10406.3 1868.94  19
   3  -5   5 207789. 8395.50  19
   3  -5   5 189274. 4690.42  31
   3  -5   5 198542. 4241.32  35
   3  -5   5 200168. 4675.87  37
   3  -5   4 1747.69 1124.56   1
   3  -5   4 727.948 416.368  37
   3  -5   4 894.070 334.249  35
   3  -5   4 803.293 370.487  31
   3  -5   3 141618. 3949.12  37
   3  -5   3 138439. 3711.96  31
   3  -5   3 147335. 3716.28  35
   3  -5   3 151607. 9489.38   1
   3  -5   2 52896.3 5639.72   1
   3  -5   2 48165.6 1963.57  31
   3  -5   2 51219.2 2232.55  37
   3  -5   1 40251.4 4473.39   1
   3  -5   1 35594.0 2983.69  22
   3  -5   0 187021. 8945.96   1
   3  -5   0 171076. 7301.40  22
   3  -5   0 179844. 7216.99  12
   3  -5  -1 63111.8 4745.36   1
   3  -5  -1 56631.2 4359.67  22
   3  -5  -1 60123.7 4467.78  12
   3  -5  -2 288772. 10257.9  20
   3  -5  -2 302110. 10296.1   1
   3  -5  -2 268216. 10868.1  12
   3  -5  -3 19745.7 2672.96  20
   3  -5  -3 21432.4 2497.59   1
   3  -5  -3 18414.8 3141.95  12
   3  -5  -4 143208. 6138.87   1
   3  -5  -4 140163. 7307.16  20
   3  -5  -5 154663. 7179.22  17
   3  -5  -5 151607. 7927.72  20
   3  -5  -6 9815.88 2211.46  20
   3  -5  -6 11957.1 2050.10  17
   3  -5  -7 268805. 11743.5  20
   3  -5  -7 289097. 10762.0  17
   3  -5  -8 71698.2 5278.70  17
   3  -5  -8 62724.0 5786.23  20
   3  -5  -8 55904.3 6137.63  12
   3  -5  -9 32070.4 4219.36  12
   3  -5  -9 33630.8 3967.59  20
   3  -5 -10 54022.5 4653.08  20
   4  -5   9 37289.1 1134.53  31
   4  -5   8 39047.9 1187.85  36
   4  -5   8 38602.4 1397.70  31
   4  -5   7 22369.9 1092.79  36
   4  -5   7 22388.9 1190.63  31
   4  -5   6 93656.9 2821.41  31
   4  -5   5 3725.51 572.047  35
   4  -5   5 4219.49 646.939  31
   4  -5   5 4480.25 1347.25  19
   4  -5   4 59241.1 4503.48  19
   4  -5   4 57455.5 2471.11  37
   4  -5   4 61338.1 2027.42  27
   4  -5   4 53219.6 2210.26  31
   4  -5   4 61413.7 2313.82  35
   4  -5   3 4412.38 630.606  31
   4  -5   3 5140.85 658.868  27
   4  -5   3 4289.71 1439.47  19
   4  -5   3 4421.40 813.359  37
   4  -5   3 4961.05 751.373  35
   4  -5   2 157394. 4351.06  35
   4  -5   2 156849. 3960.48  27
   4  -5   1 160997. 4578.68  35
   4  -5   1 153561. 4772.86  37
   4  -5   1 166243. 7469.82  22
   4  -5   0 11018.2 2165.16  22
   4  -5   0 7943.82 1125.84  37
   4  -5   0 8956.55 2196.18   1
   4  -5  -1 130160. 4415.31  37
   4  -5  -1 137067. 7676.15  22
   4  -5  -1 149857. 8196.69   1
   4  -5  -2 2254.67 1487.57  22
   4  -5  -2 3045.60 1242.11   1
   4  -5  -2 3080.79 1500.35  12
   4  -5  -2 1911.19 628.299  37
   4  -5  -3 164189. 7822.58   1
   4  -5  -3 149039. 9547.81  22
   4  -5  -3 144356. 9430.48  12
   4  -5  -4 9720.63 2907.88  22
   4  -5  -4 11937.5 2558.30  20
   4  -5  -4 15847.7 2236.44   1
   4  -5  -4 15207.6 3587.87  12
   4  -5  -5 9944.03 2413.85  20
   4  -5  -5 9004.69 3022.21  22
   4  -5  -5 8781.32 3083.80  12
   4  -5  -6 215540. 14457.3  22
   4  -5  -6 234561. 11936.9  20
   4  -5  -6 218363. 14749.5  12
   4  -5  -7 819.943 1544.77  20
   4  -5  -7 161.847 2275.86  22
   4  -5  -7 3856.35 2264.25  12
   4  -5  -8 74800.4 6880.81  22
   4  -5  -8 72114.9 7008.74  20
   4  -5  -9 33846.7 4010.34  22
   4  -5 -10 37987.7 3550.54  22
   5  -5   7 44602.6 1284.18  36
   5  -5   6 5430.34 555.942  36
   5  -5   5 89177.1 2181.18  27
   5  -5   5 89913.3 2631.43  36
   5  -5   4 5027.90 664.679  35
   5  -5   4 5165.83 560.779  27
   5  -5   3 91472.6 2506.01  29
   5  -5   3 92484.0 2680.09  27
   5  -5   3 89280.2 2943.31  35
   5  -5   2 91554.8 3189.71  35
   5  -5   2 91364.8 2865.91  27
   5  -5   1 47319.6 2612.71  37
   5  -5   1 48259.8 2469.92  35
   5  -5   1 52241.8 2231.71  27
   5  -5   0 113196. 4043.94  35
   5  -5   0 111022. 4117.27  37
   5  -5  -1 395.429 584.698  37
   5  -5  -1-448.270 754.166  35
   5  -5  -2 156319. 5341.62  35
   5  -5  -2 158319. 9126.13  22
   5  -5  -2 159753. 9279.20  21
   5  -5  -2 177030. 5334.06  37
   5  -5  -3 69212.1 3463.19  35
   5  -5  -3 56779.3 6249.35  21
   5  -5  -3 73619.8 6681.11  22
   5  -5  -4 12343.4 3247.30  22
   5  -5  -4 9139.21 2873.26  21
   5  -5  -4 14365.7 1563.15  35
   5  -5  -5 74475.5 7978.47  22
   5  -5  -5 84993.9 3769.55  35
   5  -5  -5 74987.0 7836.95  21
   5  -5  -6 1934.93 2036.16  22
   5  -5  -6 2492.34 1788.71  21
   5  -5  -6 3688.15 694.328  35
   5  -5  -7 88715.3 6972.13  21
   5  -5  -7 83161.2 7160.49  22
   6  -5   5-58.6782 135.893  36
   6  -5   4 71714.6 1937.66  36
   6  -5   3 27821.1 1098.87  27
   6  -5   3 26015.1 1264.74  36
   6  -5   2 28398.3 1396.83  35
   6  -5   2 27095.9 1125.77  29
   6  -5   2 28803.0 1243.76  27
   6  -5   2 26333.1 1454.09  36
   6  -5   1 35312.1 1721.12  35
   6  -5   1 32430.6 1453.76  29
   6  -5   1 35154.4 1533.03  27
   6  -5   0 2204.58 611.274  35
   6  -5   0 3523.02 632.781  29
   6  -5   0 3245.37 620.259  27
   6  -5  -1 35125.3 2071.29  35
   6  -5  -1 39432.2 1887.56  27
   6  -5  -2 5394.16 956.845  27
   6  -5  -2 1879.90 694.345  35
   6  -5  -3 58392.1 2805.10  35
   6  -5  -3 65184.7 2706.32  27
   6  -5  -4 61022.7 2808.94  27
   6  -5  -4 56780.5 2362.35  35
   6  -5  -5 29766.8 2188.35  27
   6  -5  -6 39387.0 1992.79  27
   6  -5  -7 4693.10 552.680  27
  -7  -4   1 17763.3 735.574  40
  -7  -4   0 26187.5 990.369  40
  -7  -4   0 26662.8 1186.35  39
  -7  -4  -1 19065.8 1050.09  39
  -7  -4  -2 9145.92 736.957  39
  -7  -4  -3 36631.3 1428.85  39
  -7  -4  -4 278.090 213.378  39
  -6  -4   6 15358.4 676.272  40
  -6  -4   5 30246.8 1119.21  40
  -6  -4   4 6865.51 608.577  40
  -6  -4   3 40718.0 1589.86  40
  -6  -4   3 42064.9 1972.90  39
  -6  -4   2 538.247 501.625  39
  -6  -4   1 56937.5 2560.67  39
  -6  -4   1 60554.5 2179.68  42
  -6  -4   0 31963.1 1845.19  39
  -6  -4   0 32894.4 1671.80  42
  -6  -4  -1 15812.5 1286.06  39
  -6  -4  -1 14622.5 1178.44  42
  -6  -4  -2 51707.1 2247.55  39
  -6  -4  -2 50403.7 2260.17  42
  -6  -4  -3 187.041 583.013  42
  -6  -4  -3 1127.15 543.461  39
  -6  -4  -4 66512.3 2781.48  42
  -6  -4  -5 12391.6 1278.56  42
  -6  -4  -6 31960.1 1950.87  42
  -6  -4  -7 59874.8 2623.98  42
  -6  -4  -8 24456.1 1524.15  42
  -6  -4  -9 32831.1 1502.92  42
  -5  -4   9 65048.6 1412.99  40
  -5  -4   8 257.133 200.667  40
  -5  -4   7 64943.8 1874.03  40
  -5  -4   6 20398.7 1096.06  40
  -5  -4   5 36799.1 1626.27  40
  -5  -4   4 55942.3 2144.27  40
  -5  -4   4 55347.4 2675.28  39
  -5  -4   3 4686.97 896.352  39
  -5  -4   2 149095. 4693.38  39
  -5  -4   2 153995. 4147.79  42
  -5  -4   1 30400.7 1908.70  39
  -5  -4   1 31961.8 1826.74  42
  -5  -4   0 74548.4 2920.97  39
  -5  -4   0 75906.3 2950.63  42
  -5  -4  -1 78046.4 2919.90  39
  -5  -4  -1 87224.4 3284.98  42
  -5  -4  -2 3312.54 783.715  42
  -5  -4  -3 214738. 5777.02  24
  -5  -4  -3 201087. 5658.43  42
  -5  -4  -4 21336.1 1718.36  24
  -5  -4  -4 21486.6 1742.21  42
  -5  -4  -5 95661.8 3734.31  42
  -5  -4  -5 90469.5 3012.61  41
  -5  -4  -5 92345.6 3680.65  24
  -5  -4  -6 89595.2 3645.67  24
  -5  -4  -6 97726.7 3808.04  42
  -5  -4  -6 91277.0 3001.30  41
  -5  -4  -7 26021.3 1908.26  24
  -5  -4  -7 24141.3 1477.64  41
  -5  -4  -7 24730.8 1928.53  42
  -5  -4  -8 97490.1 2971.22  41
  -5  -4  -8 104440. 3891.77  24
  -5  -4  -8 106706. 4016.26  42
  -5  -4  -9 301.792 434.493  24
  -5  -4  -9-197.288 659.220  42
  -5  -4  -9 263.850 333.140  41
  -5  -4 -10 48597.9 1722.60  41
  -5  -4 -10 49568.6 2318.27  42
  -5  -4 -11 19838.6 900.038  41
  -5  -4 -11 21472.6 1330.07  42
  -5  -4 -12 19207.2 1060.55  42
  -4  -4  10 58787.8 1471.14  40
  -4  -4   9 6109.87 534.692  40
  -4  -4   8 86860.8 2366.87  40
  -4  -4   7 4500.67 608.573  52
  -4  -4   7 4645.28 620.631  40
  -4  -4   6 117395. 3292.69  52
  -4  -4   6 124016. 3282.74  40
  -4  -4   5 57673.6 2225.30  52
  -4  -4   5 60733.8 2237.03  40
  -4  -4   4 6684.65 1043.71  39
  -4  -4   4 5896.02 718.496  52
  -4  -4   3 135792. 3641.00  52
  -4  -4   3 142108. 3871.54  42
  -4  -4   3 153336. 9982.14   6
  -4  -4   3 135615. 4519.72  39
  -4  -4   3 137894. 7931.51   5
  -4  -4   2 1313.29 520.101  39
  -4  -4   2 1678.63 1260.47   6
  -4  -4   2 1339.94 478.177  42
  -4  -4   2 1483.37 410.206  52
  -4  -4   2 825.638 821.079   5
  -4  -4   1 83233.1 2963.61  39
  -4  -4   1 85020.9 2998.09  42
  -4  -4   1 77471.2 6149.52   5
  -4  -4   1 82362.0 2702.66  52
  -4  -4   0 42801.9 1914.71  39
  -4  -4   0 43124.5 1892.07  52
  -4  -4   0 43009.6 2144.49  42
  -4  -4   0 36656.2 4216.42   5
  -4  -4  -1 19744.4 1496.86  24
  -4  -4  -1 17492.9 2942.17   5
  -4  -4  -1 17960.4 1392.40  42
  -4  -4  -2 150611. 4423.69  24
  -4  -4  -2 150550. 4348.18  42
  -4  -4  -2 146131. 8269.69   5
  -4  -4  -3 18781.5 1152.31  41
  -4  -4  -3 19655.5 1378.86  53
  -4  -4  -3 18293.0 1412.23  42
  -4  -4  -3 17521.8 1442.39  24
  -4  -4  -4 91778.7 3225.16  53
  -4  -4  -4 85179.8 2623.95  41
  -4  -4  -4 90413.0 3313.99  24
  -4  -4  -4 95181.1 6326.64   5
  -4  -4  -4 86727.8 3155.08  42
  -4  -4  -5 4281.36 722.595  53
  -4  -4  -5 3400.81 766.092  24
  -4  -4  -5 3594.46 705.690  42
  -4  -4  -5 3074.64 508.076  41
  -4  -4  -6 115402. 3891.59  42
  -4  -4  -6 119553. 3901.31  53
  -4  -4  -6 121819. 3999.12  24
  -4  -4  -6 118262. 3236.03  41
  -4  -4  -7 90892.8 3404.00  53
  -4  -4  -7 86086.4 3377.98  42
  -4  -4  -7 87329.1 2742.31  41
  -4  -4  -8 10038.2 1207.82  42
  -4  -4  -8 9570.96 887.889  41
  -4  -4  -9 94594.5 2867.99  41
  -4  -4  -9 99826.1 3727.19  42
  -4  -4 -10 7336.11 745.092  41
  -4  -4 -10 7946.61 1119.94  42
  -4  -4 -11 53429.2 2493.79  42
  -4  -4 -11 51913.4 1839.93  41
  -4  -4 -12 15163.6 1247.04  42
  -4  -4 -13 23037.5 1179.54  53
  -4  -4 -13 27123.7 1401.96  42
  -4  -4 -14 55788.7 1722.86  42
  -3  -4  11 111584. 2357.97  30
  -3  -4  11 110775. 2230.27  40
  -3  -4  10 11168.7 777.014  26
  -3  -4  10 10701.6 693.201  40
  -3  -4   9 26897.5 1373.17  26
  -3  -4   9 29111.5 1268.61  40
  -3  -4   8 947.653 380.941  26
  -3  -4   8 1253.90 462.357  52
  -3  -4   8 1027.86 380.990  40
  -3  -4   7 157350. 4072.98  52
  -3  -4   7 163436. 4115.49  26
  -3  -4   7 168205. 3876.26  40
  -3  -4   6 56684.1 2057.42  40
  -3  -4   6 56034.1 2210.27  52
  -3  -4   6 52882.6 2105.60  26
  -3  -4   5 47824.0 5014.03   6
  -3  -4   5 57851.9 4236.43   5
  -3  -4   5 55834.8 2064.63  40
  -3  -4   5 52360.5 2111.13  52
  -3  -4   4 147843. 3781.28  52
  -3  -4   4 156217. 4568.64  39
  -3  -4   4 151511. 7425.87   5
  -3  -4   3 2132.19 457.035  42
  -3  -4   3 1207.72 1106.14   6
  -3  -4   3 1000.27 810.392   5
  -3  -4   2 64393.7 5520.54   6
  -3  -4   1 4593.19 1410.56   6
  -3  -4   0 166447. 7433.90   6
  -3  -4  -1 225940. 8078.74   6
  -3  -4  -1 211864. 4905.75  24
  -3  -4  -2 23494.9 1405.29  24
  -3  -4  -2 26134.2 2472.51   6
  -3  -4  -3 239256. 5195.42  24
  -3  -4  -4 16235.3 1932.49   2
  -3  -4  -5 231143. 7971.20   2
  -3  -4  -6 49716.5 3601.55   2
  -3  -4  -7 16416.8 2131.94   2
  -3  -4  -7 16380.0 1229.64  42
  -3  -4  -8 125519. 3857.57  42
  -3  -4  -8 135597. 3503.31  13
  -3  -4  -8 119282. 6070.75   2
  -3  -4  -9 1244.57 351.112  13
  -3  -4  -9 2106.13 681.573  42
  -3  -4  -9 908.074 653.053   2
  -3  -4 -10 110991. 3252.12  13
  -3  -4 -10 112766. 3765.69  42
  -3  -4 -11 35014.3 1692.85  13
  -3  -4 -11 40384.7 2174.15  42
  -3  -4 -12 29923.4 1867.52  42
  -3  -4 -13 42152.6 2050.06  42
  -3  -4 -14 1458.47 484.381  42
  -3  -4 -15 56905.8 1752.49  42
  -2  -4  12 23344.2 743.514  40
  -2  -4  11 43227.9 1320.27  40
  -2  -4  11 46210.7 1657.48  26
  -2  -4  10 61446.1 2214.24  26
  -2  -4  10 64816.3 1886.65  40
  -2  -4   9 16085.4 958.137  40
  -2  -4   9 15014.4 1147.22  26
  -2  -4   8 121192. 3443.80  52
  -2  -4   8 117154. 2982.46  40
  -2  -4   8 120614. 3490.55  26
  -2  -4   7 22228.3 1378.26  52
  -2  -4   7 21575.5 2888.43   6
  -2  -4   7 23081.9 1204.48  40
  -2  -4   6 124662. 3058.28  40
  -2  -4   6 129682. 3374.81  48
  -2  -4   6 125682. 3439.06  52
  -2  -4   5 110135. 3043.71  52
  -2  -4   5 76701.4 6158.67   6
  -2  -4   4 105872. 5318.10   5
  -2  -4   4 77430.3 6321.15   6
  -2  -4   3 220513. 11468.8   6
  -2  -4   2 6022.83 1900.90   6
  -2  -4   1 245397. 9714.23   6
  -2  -4   0 275788. 9222.91   6
  -2  -4   0 282338. 5425.76  24
  -2  -4  -1 386066. 6820.39  24
  -2  -4  -1 418709. 10500.1   6
  -2  -4  -2 318132. 5783.02  24
  -2  -4  -2 347841. 8599.90   6
  -2  -4  -3 126500. 3671.32   8
  -2  -4  -3 114073. 2841.07  15
  -2  -4  -3 124021. 4431.87   6
  -2  -4  -4 510491. 9278.56   8
  -2  -4  -4 461270. 8314.01  15
  -2  -4  -5 111286. 3403.12  15
  -2  -4  -5 104368. 4467.30   2
  -2  -4  -6 130378. 3764.97  15
  -2  -4  -6 117218. 3046.66  25
  -2  -4  -6 119969. 5043.40   2
  -2  -4  -7 122230. 3594.97  15
  -2  -4  -7 116820. 3143.21  25
  -2  -4  -7 113065. 5115.26   2
  -2  -4  -8 24639.5 1551.05  15
  -2  -4  -8 22549.3 2332.78   2
  -2  -4  -8 21052.7 2299.17  10
  -2  -4  -8 22372.1 1363.25  25
  -2  -4  -9 142398. 3908.98  25
  -2  -4  -9 144799. 6436.87   2
  -2  -4  -9 153312. 4176.30  15
  -2  -4  -9 143370. 6345.31  10
  -2  -4 -10 4616.12 784.024  15
  -2  -4 -10 3530.72 1048.45   2
  -2  -4 -10 4653.15 781.913  25
  -2  -4 -10 4296.38 1213.44  10
  -2  -4 -11 127188. 3826.31  25
  -2  -4 -11 124825. 3440.75  13
  -2  -4 -11 121283. 6091.30  10
  -2  -4 -12 65987.8 2646.15  25
  -2  -4 -12 62622.4 2307.07  13
  -2  -4 -13 11838.5 1131.09  25
  -2  -4 -14 110704. 3220.20  25
  -2  -4 -15 4959.58 639.131  42
  -2  -4 -16 41851.7 1290.80  42
  -1  -4  13 5605.30 415.115  30
  -1  -4  12 61051.3 1813.78  26
  -1  -4  11 29784.1 1062.68  40
  -1  -4  11 28247.0 1413.68  26
  -1  -4  10 15552.6 1170.18  26
  -1  -4  10 15365.8 844.151  40
  -1  -4   9 151146. 4020.14  26
  -1  -4   9 153836. 3339.71  40
  -1  -4   8 19130.2 1299.83  26
  -1  -4   8 18872.4 1290.68  52
  -1  -4   8 18501.8 984.023  40
  -1  -4   7 44225.9 3649.78   6
  -1  -4   7 46431.1 1985.70  52
  -1  -4   7 46317.2 1576.74  40
  -1  -4   6 27608.5 1423.87  48
  -1  -4   6 26979.7 1410.84  52
  -1  -4   5 36581.2 3291.74   6
  -1  -4   4 151311. 6909.41   6
  -1  -4   3 4681.35 1288.49   6
  -1  -4   2 350810. 11868.9   6
  -1  -4   1 237571. 9564.42   6
  -1  -4   0 195776. 7923.44   6
  -1  -4  -1 408073. 8000.20  17
  -1  -4  -1 426274. 10597.0   6
  -1  -4  -2 120258. 4365.51   6
  -1  -4  -2 121016. 3028.94  16
  -1  -4  -2 125044. 4020.97   8
  -1  -4  -3 212986. 5428.41   8
  -1  -4  -3 221053. 5415.43   6
  -1  -4  -3 227664. 4915.39  16
  -1  -4  -4 22332.5 1570.16   8
  -1  -4  -4 21806.3 1247.90   6
  -1  -4  -4 21972.1 890.238  25
  -1  -4  -4 21220.1 1507.57  16
  -1  -4  -5 224547. 4014.95  25
  -1  -4  -5 211794. 5955.21  16
  -1  -4  -5 220475. 6423.81  10
  -1  -4  -6 89565.4 3352.12  16
  -1  -4  -6 93296.6 2297.38  25
  -1  -4  -6 94420.6 4166.04  10
  -1  -4  -7 64331.8 3622.39  10
  -1  -4  -7 63441.7 1925.83  25
  -1  -4  -7 57902.9 2482.96  16
  -1  -4  -7 61619.7 3431.32   2
  -1  -4  -8 155462. 3827.14  15
  -1  -4  -8 149293. 5757.53   2
  -1  -4  -8 147345. 3459.81  25
  -1  -4  -8 152454. 6010.65  10
  -1  -4  -9 4278.34 1073.86   2
  -1  -4  -9 5819.29 1282.21  10
  -1  -4  -9 4822.26 716.212  15
  -1  -4  -9 4949.96 633.878  25
  -1  -4 -10 106820. 5273.03   2
  -1  -4 -10 96931.9 5249.06  10
  -1  -4 -10 101657. 2990.59  25
  -1  -4 -10 104706. 3152.90  15
  -1  -4 -11 39558.5 3214.36   2
  -1  -4 -11 39146.1 3425.27  10
  -1  -4 -11 37422.0 1824.71  15
  -1  -4 -11 36498.6 1790.32  25
  -1  -4 -12 28729.2 1635.47  25
  -1  -4 -12 28694.4 1572.97  15
  -1  -4 -13 57082.3 2308.26  25
  -1  -4 -14 21454.0 1330.29  25
  -1  -4 -16 3101.90 387.904  42
   0  -4  13 75043.0 1699.33  30
   0  -4  11 36408.4 1580.74  26
   0  -4  11 34021.5 1386.23  31
   0  -4  10 106019. 3123.17  26
   0  -4  10 107789. 2924.35  31
   0  -4   9 3411.49 555.531  31
   0  -4   9 3541.62 614.808  26
   0  -4   8 128036. 5699.71   6
   0  -4   8 125504. 3400.23  31
   0  -4   8 133033. 3648.18  26
   0  -4   7 32509.2 1600.89  52
   0  -4   7 29523.5 2586.33  19
   0  -4   7 28446.4 2657.32   6
   0  -4   7 29865.7 1457.93  31
   0  -4   6 75565.3 4043.52  19
   0  -4   6 80260.5 4431.26   6
   0  -4   5 65320.7 3555.82  19
   0  -4   5 67877.4 4006.14   6
   0  -4   4 4192.05 1065.42   6
   0  -4   3 563298. 12943.8   6
   0  -4   2 56757.2 3480.83   6
   0  -4   1 224544. 3598.14  16
   0  -4   1 244728. 7348.83   6
   0  -4   0 263762. 4275.26  16
   0  -4   0 252055. 7266.07   6
   0  -4  -1 134482. 4829.75   6
   0  -4  -1 130261. 4361.47  17
   0  -4  -1 144656. 2866.68  16
   0  -4  -2 224541. 6345.72   6
   0  -4  -2 244685. 4498.40  16
   0  -4  -3 35879.6 2161.67   8
   0  -4  -3 41019.9 1580.90  16
   0  -4  -3 35370.0 2050.87   6
   0  -4  -4 342065. 5750.19   6
   0  -4  -4 329817. 6109.89  16
   0  -4  -4 332047. 7686.91   8
   0  -4  -5 118550. 4334.34  10
   0  -4  -5 105710. 2948.93  16
   0  -4  -6 270452. 5492.07  16
   0  -4  -6 265052. 4426.80  25
   0  -4  -7 173934. 4263.73  16
   0  -4  -7 174421. 3353.14  25
   0  -4  -8 44311.5 2862.79   2
   0  -4  -8 40587.1 1970.45  16
   0  -4  -8 42337.2 1453.85  25
   0  -4  -8 48280.7 3233.66  10
   0  -4  -9 324873. 6855.18  16
   0  -4  -9 344940. 9261.38   2
   0  -4  -9 338199. 5982.31  25
   0  -4 -10 7751.88 802.651  16
   0  -4 -10 7984.56 1342.18   2
   0  -4 -10 8024.82 806.936  15
   0  -4 -10 7823.93 1503.24  10
   0  -4 -10 7772.79 724.802  25
   0  -4 -11 100323. 4903.46   2
   0  -4 -11 100912. 2928.92  25
   0  -4 -11 107307. 3085.91  15
   0  -4 -11 105392. 5633.60  10
   0  -4 -12 218880. 4893.07  15
   0  -4 -12 222959. 4923.34  25
   0  -4 -12 225946. 8630.66  10
   0  -4 -13 61263.4 2159.39  15
   0  -4 -13 64169.4 2314.65  25
   0  -4 -14 72991.0 2364.58  25
   1  -4  12 26005.1 1074.18  31
   1  -4  12 28523.1 1055.66  30
   1  -4  11 26116.2 1277.58  31
   1  -4  11 26758.2 1234.79  26
   1  -4  10 16991.8 1136.89  31
   1  -4  10 15832.2 1075.20  26
   1  -4   9 78383.5 2663.83  31
   1  -4   9 79162.8 2630.08  26
   1  -4   9 77023.9 4457.95  19
   1  -4   8 4358.82 1034.62   6
   1  -4   8 5011.40 1268.17  19
   1  -4   8 5342.26 706.933  31
   1  -4   8 5120.32 665.627  26
   1  -4   7 110428. 5512.14  19
   1  -4   7 115052. 5512.99   6
   1  -4   7 107138. 3138.80  31
   1  -4   6 38695.1 1716.42  48
   1  -4   6 33951.7 2961.54  19
   1  -4   6 35748.4 1600.39  31
   1  -4   6 33191.0 2950.76   6
   1  -4   5 50598.7 3654.52   6
   1  -4   5 47065.1 3330.24  19
   1  -4   4 140197. 6412.81   6
   1  -4   3 15408.7 2202.60   1
   1  -4   2 385062. 11748.6   1
   1  -4   1 8014.87 1714.73   1
   1  -4   1 7263.44 1025.17  20
   1  -4   0 295239. 7399.15  20
   1  -4   0 281201. 9513.38   1
   1  -4  -1 73896.8 3500.59  17
   1  -4  -1 69578.6 3915.36   1
   1  -4  -2 87855.3 3976.20   1
   1  -4  -2 95510.9 4139.75  17
   1  -4  -3 451383. 10254.6   8
   1  -4  -3 437628. 9333.76   1
   1  -4  -4 4673.53 683.398   1
   1  -4  -4 4634.23 936.942   8
   1  -4  -5 453700. 10295.4   8
   1  -4  -5 452001. 9704.76  10
   1  -4  -6 113359. 4677.89   8
   1  -4  -6 114914. 4393.75  10
   1  -4  -7 31291.7 2384.00  10
   1  -4  -8 427437. 10650.0  10
   1  -4  -9 11758.3 1663.42  10
   1  -4  -9 11796.5 1103.34  16
   1  -4  -9 10091.3 1348.97   2
   1  -4 -10 98882.4 3261.63  16
   1  -4 -10 104899. 5242.05  10
   1  -4 -11 50340.1 1972.27  15
   1  -4 -11 49837.1 3718.05  10
   1  -4 -12 113108. 3027.99  15
   1  -4 -13 87967.1 2535.04  13
   2  -4  12 27581.4 1052.65  31
   2  -4  11 40013.2 1558.92  31
   2  -4  10 75147.1 2486.15  31
   2  -4   9 6127.72 798.573  31
   2  -4   9 6161.70 1378.01  19
   2  -4   8 155056. 4084.71  31
   2  -4   8 151812. 6922.38  19
   2  -4   7 35945.8 3373.50  19
   2  -4   7 37044.4 1822.03  31
   2  -4   7 37648.4 3333.52   6
   2  -4   6 143164. 3793.24  31
   2  -4   6 132839. 6521.95  19
   2  -4   6 136233. 7043.40   6
   2  -4   5 343793. 6580.50  31
   2  -4   5 341142. 10646.1  19
   2  -4   4 4153.89 1516.26   1
   2  -4   3 176553. 9447.23   1
   2  -4   2 2025.64 1166.15   1
   2  -4   2 3759.98 786.860  22
   2  -4   1 342946. 8986.30  22
   2  -4   1 369619. 8992.38  12
   2  -4   1 351619. 11138.4   1
   2  -4   0 58256.7 3568.18  12
   2  -4   0 70213.5 3964.98  20
   2  -4   0 69330.5 4123.26   1
   2  -4  -1 81707.3 4356.73  20
   2  -4  -1 86361.0 4185.36   1
   2  -4  -2 420535. 10724.8  17
   2  -4  -2 414844. 9885.57   1
   2  -4  -2 432797. 11274.7  20
   2  -4  -3 93843.4 4678.71  17
   2  -4  -4 81394.3 4477.15  17
   2  -4  -4 78787.7 3304.40   3
   2  -4  -5 8579.50 1445.72   8
   2  -4  -5 6031.70 867.341   3
   2  -4  -5 5085.89 1174.69  17
   2  -4  -6 85568.6 3744.92  10
   2  -4  -6 86102.7 4592.67   8
   2  -4  -7 172753. 5845.83  10
   2  -4  -7 167742. 6829.98   8
   2  -4  -8 8135.34 1576.59   8
   2  -4  -8 9015.35 1343.07  10
   2  -4  -9 134362. 6389.06   8
   2  -4  -9 136523. 5618.17  10
   2  -4 -10 16896.3 1983.84  10
   2  -4 -10 14340.5 2082.21   8
   2  -4 -11 136482. 6516.07   8
   3  -4  12 42581.8 1123.21  46
   3  -4  11 67089.8 1836.92  31
   3  -4  10 3913.09 558.555  31
   3  -4   9 55346.1 2125.07  31
   3  -4   8 81.8655 452.423  31
   3  -4   8 389.546 662.594  19
   3  -4   7 89123.7 5491.64  19
   3  -4   7 87084.0 2964.76  31
   3  -4   6 158748. 7580.39  19
   3  -4   6 166175. 3825.60  35
   3  -4   6 165340. 4283.81  31
   3  -4   5 79950.6 2730.27  31
   3  -4   5 77141.2 2723.02  37
   3  -4   5 77916.0 5168.32  19
   3  -4   5 80587.2 2557.86  35
   3  -4   4 90700.6 2955.73  37
   3  -4   4 90443.1 2783.29  35
   3  -4   4 89709.6 2804.83  31
   3  -4   3 9002.67 882.072  37
   3  -4   3 7949.80 795.975  35
   3  -4   3 9147.21 2304.92   1
   3  -4   2 283956. 11406.8   1
   3  -4   2 299653. 9340.90  22
   3  -4   1 18370.3 2582.90   1
   3  -4   1 17424.5 2197.39  22
   3  -4   0 179858. 7482.73   1
   3  -4   0 163635. 7429.18  12
   3  -4   0 157283. 7261.23  22
   3  -4  -1 175442. 7757.19  20
   3  -4  -1 168525. 7899.71  12
   3  -4  -1 187471. 7162.52   1
   3  -4  -2 68586.8 4915.13  20
   3  -4  -2 63591.6 5184.28  12
   3  -4  -3 240594. 9830.69  20
   3  -4  -3 231573. 10824.0  12
   3  -4  -3 246199. 7641.53   3
   3  -4  -4 2050.92 970.671  17
   3  -4  -4 1776.11 1227.78  20
   3  -4  -4 1126.81 1179.98  12
   3  -4  -4 1814.15 654.257   3
   3  -4  -5 128073. 7692.79  20
   3  -4  -5 121367. 8538.81  12
   3  -4  -5 132859. 6691.75  17
   3  -4  -5 125663. 4978.39   3
   3  -4  -6 111016. 7653.41  20
   3  -4  -6 127677. 6856.41  17
   3  -4  -6 125360. 9018.75  12
   3  -4  -7 73493.7 5451.09  17
   3  -4  -7 69978.1 6620.47  20
   3  -4  -7 71269.3 6599.40  12
   3  -4  -8 93481.1 6969.00  12
   3  -4  -8 86437.9 8062.52  20
   3  -4  -9 6132.98 2020.41  20
   3  -4  -9 5966.61 1747.02  12
   3  -4 -10 256460. 10019.1  12
   4  -4  10 51234.0 1396.49  31
   4  -4   9 436.031 175.949  36
   4  -4   9 1026.76 310.052  31
   4  -4   8 51887.2 1748.39  36
   4  -4   8 48748.7 1888.56  31
   4  -4   7 25263.1 1379.19  36
   4  -4   7 24912.3 2747.03  19
   4  -4   7 26362.4 1447.58  31
   4  -4   6 52230.8 4247.56  19
   4  -4   6 58276.4 2288.67  31
   4  -4   5 61717.6 2322.70  31
   4  -4   5 58967.5 4613.49  19
   4  -4   5 62926.6 2176.75  27
   4  -4   5 63455.4 2436.19  35
   4  -4   4 50953.2 2427.10  37
   4  -4   4 52381.1 4384.71  19
   4  -4   4 49624.7 2259.29  35
   4  -4   4 53448.5 2101.13  27
   4  -4   3 173912. 4776.78  37
   4  -4   3 162259. 4556.86  35
   4  -4   3 166719. 7969.07  19
   4  -4   3 176635. 10396.0   1
   4  -4   3 172994. 4321.70  27
   4  -4   2 27683.8 1744.35  37
   4  -4   2 27464.5 1740.46  35
   4  -4   1 66422.8 5142.15  22
   4  -4   1 74471.9 5671.71   1
   4  -4   1 65922.2 2724.86  37
   4  -4   1 66796.8 2830.76  35
   4  -4   0 63725.1 5361.42  22
   4  -4   0 64991.7 5127.79  21
   4  -4   0 69049.6 2770.63  37
   4  -4   0 76298.9 5451.50   1
   4  -4  -1 34803.3 4176.01  22
   4  -4  -1 41888.7 2094.48  37
   4  -4  -1 45389.9 4035.57   1
   4  -4  -2 117045. 8168.76  22
   4  -4  -2 123623. 3684.99  37
   4  -4  -2 134739. 6727.86   1
   4  -4  -2 121200. 8329.34  12
   4  -4  -3 17562.7 3407.33  22
   4  -4  -3 20082.6 1324.13  37
   4  -4  -3 18702.4 3481.38  12
   4  -4  -4 89476.5 7056.99  20
   4  -4  -4 90623.6 7626.94  22
   4  -4  -4 95389.0 7913.56  12
   4  -4  -4 94837.3 5126.97   3
   4  -4  -5 64629.9 6607.79  22
   4  -4  -5 58481.9 5858.73  20
   4  -4  -5 66960.4 6791.07  12
   4  -4  -5 65431.4 4044.90   3
   4  -4  -6 160190. 10425.9  22
   4  -4  -6 149691. 9565.27  20
   4  -4  -6 168883. 10993.4  12
   4  -4  -7 108209. 8350.58  22
   4  -4  -7 115756. 8820.84  12
   4  -4  -8 19364.2 3119.57  22
   4  -4  -8 22374.6 3468.89  12
   4  -4  -9 144058. 7372.78  22
   4  -4 -10 3658.52 1139.20  21
   5  -4   8 2571.91 326.043  36
   5  -4   7 72142.1 2119.27  36
   5  -4   6 13000.0 1031.03  36
   5  -4   5 48342.9 1833.72  27
   5  -4   4 127100. 3821.10  35
   5  -4   4 131502. 3524.74  27
   5  -4   3 692.017 565.634  35
   5  -4   3 2054.67 508.467  29
   5  -4   3 947.601 496.883  27
   5  -4   2 129008. 4270.25  35
   5  -4   2 139422. 4083.59  27
   5  -4   1 37411.1 2170.83  37
   5  -4   1 37103.2 2284.24  35
   5  -4   1 42335.7 2318.98  27
   5  -4   0 58291.7 2696.21  37
   5  -4   0 55353.4 2783.09  35
   5  -4  -1 124325. 3975.65  37
   5  -4  -1 115946. 4173.49  35
   5  -4  -1 110625. 7680.18  21
   5  -4  -2 24255.3 4030.87  22
   5  -4  -2 26449.2 1666.23  37
   5  -4  -2 21929.0 1741.83  35
   5  -4  -2 19254.7 3407.74  21
   5  -4  -3 197252. 11546.0  22
   5  -4  -3 212026. 5720.22  35
   5  -4  -3 184084. 10961.4  21
   5  -4  -4 52640.2 6053.99  22
   5  -4  -4 54146.3 5926.76  21
   5  -4  -4 59288.7 2735.21  35
   5  -4  -5 73555.9 7053.14  22
   5  -4  -5 78261.5 7329.08  21
   5  -4  -6 134689. 9047.16  21
   5  -4  -6 130501. 9390.86  22
   5  -4  -7 40039.9 4418.50  21
   5  -4  -7 41339.0 4526.95  22
   5  -4  -8 114823. 6330.86  22
   6  -4   6 29971.2 1062.89  36
   6  -4   5 42897.6 1576.63  36
   6  -4   4 3743.73 491.438  27
   6  -4   4 4602.81 660.731  36
   6  -4   3 58054.9 1871.06  29
   6  -4   3 61038.7 2082.87  27
   6  -4   2 2165.19 633.645  35
   6  -4   2 2830.39 550.076  29
   6  -4   2 2849.14 599.801  27
   6  -4   2 1714.18 537.442  36
   6  -4   1 58198.3 2682.35  35
   6  -4   1 66075.2 2146.28  47
   6  -4   1 56875.4 2499.72  36
   6  -4   1 58431.8 2496.88  29
   6  -4   1 63972.9 2530.34  27
   6  -4   0 25419.6 1782.97  35
   6  -4   0 24287.0 1781.05  29
   6  -4   0 28144.9 1849.83  27
   6  -4  -1 12170.3 1268.19  35
   6  -4  -1 11948.0 1365.82  27
   6  -4  -2 56077.9 2579.83  35
   6  -4  -2 51270.4 2757.29  27
   6  -4  -3 396.358 457.925  35
   6  -4  -3 1294.92 821.076  27
   6  -4  -4 89424.0 3544.97  27
   6  -4  -5 16519.4 1512.56  27
   6  -4  -6 37023.1 1731.52  27
   6  -4  -7 35662.6 1327.44  29
   7  -4   1 9091.74 595.513  27
   7  -4   0 38660.4 1362.52  29
   7  -4   0 40457.6 1412.54  27
   7  -4  -1 40130.4 1568.28  29
   7  -4  -1 42368.7 1558.54  27
   7  -4  -2 1327.95 414.806  29
   7  -4  -2 885.990 320.545  27
   7  -4  -3 60881.6 2197.22  29
   7  -4  -3 75369.3 2090.22  47
   7  -4  -4 6389.55 674.689  47
  -7  -3   2 2455.26 318.421  40
  -7  -3   2 3549.02 497.377  39
  -7  -3   1 61427.1 2180.18  39
  -7  -3   1 55103.7 1656.04  40
  -7  -3   0 643.291 393.108  39
  -7  -3   0 717.221 262.064  40
  -7  -3  -1 52607.5 2089.49  39
  -7  -3  -2 20814.0 1275.04  39
  -7  -3  -3 21183.3 1263.81  39
  -7  -3  -4 58255.4 2052.01  39
  -7  -3  -5 686.547 298.014  39
  -6  -3   7 34951.0 1078.49  40
  -6  -3   6 1664.78 332.761  40
  -6  -3   5 34919.6 1400.38  40
  -6  -3   4 6735.52 702.162  40
  -6  -3   4 7477.76 983.629  39
  -6  -3   3 46102.9 1892.62  40
  -6  -3   3 43102.0 2365.24  39
  -6  -3   2 97236.8 3681.42  39
  -6  -3   1 19449.9 1587.68  39
  -6  -3   1 19972.0 1360.19  42
  -6  -3   0 35441.5 1899.43  42
  -6  -3   0 36957.9 2105.01  39
  -6  -3  -1 6913.32 979.065  39
  -6  -3  -1 5560.48 837.233  42
  -6  -3  -2 58661.1 2552.52  39
  -6  -3  -2 53572.2 2550.83  42
  -6  -3  -3 40968.3 2314.11  42
  -6  -3  -4 9344.95 1241.10  42
  -6  -3  -5 66730.0 3161.70  42
  -6  -3  -6 5593.80 1037.84  42
  -6  -3  -7 65777.8 3116.97  42
  -6  -3  -8 8168.08 1029.85  42
  -6  -3  -9 13102.4 1026.69  42
  -5  -3  10 20049.1 683.682  40
  -5  -3   9 37522.2 1213.94  40
  -5  -3   8 51821.8 1678.44  40
  -5  -3   7 8489.33 772.856  40
  -5  -3   6 78601.0 2517.39  40
  -5  -3   5 3157.08 641.209  40
  -5  -3   5 3581.24 906.925  39
  -5  -3   4 50564.1 2826.64  39
  -5  -3   3 56106.8 2904.92  39
  -5  -3   3 58683.8 2421.99  42
  -5  -3   2 27109.5 1910.72  39
  -5  -3   2 25617.2 1652.13  42
  -5  -3   1 147683. 4444.21  39
  -5  -3   1 149176. 3800.00  49
  -5  -3   1 147335. 4388.77  42
  -5  -3   0 1431.94 593.898  39
  -5  -3   0 582.405 303.970  49
  -5  -3   0 161.268 545.471  42
  -5  -3  -1 136009. 4564.22  42
  -5  -3  -2 105102. 4008.23  42
  -5  -3  -3 46824.3 2636.80  24
  -5  -3  -3 41402.7 2515.18  42
  -5  -3  -4 102688. 4061.51  42
  -5  -3  -4 106866. 3428.45  41
  -5  -3  -4 99340.0 4049.15  24
  -5  -3  -5 17533.6 1689.77  24
  -5  -3  -5 15176.7 1273.63  41
  -5  -3  -5 15648.6 1609.02  42
  -5  -3  -6 198120. 5967.75  42
  -5  -3  -6 187974. 4916.94  41
  -5  -3  -6 184048. 5812.55  24
  -5  -3  -7 103537. 4223.24  42
  -5  -3  -7 90528.8 3956.78  24
  -5  -3  -7 97292.0 3333.71  41
  -5  -3  -8 58612.6 3154.48  24
  -5  -3  -8 59516.9 3213.65  42
  -5  -3  -8 58675.0 2480.21  41
  -5  -3  -9 34877.2 2242.81  24
  -5  -3  -9 39588.3 1882.63  41
  -5  -3  -9 39488.8 2461.65  42
  -5  -3 -10 1251.47 588.453  42
  -5  -3 -10 2194.76 500.431  41
  -5  -3 -11 65486.4 2034.02  41
  -5  -3 -11 63399.5 2462.92  42
  -5  -3 -12 6608.73 477.505  41
  -5  -3 -12 7004.05 675.127  42
  -4  -3  11 9273.58 540.776  40
  -4  -3  10 47775.8 1530.99  40
  -4  -3   9 16697.6 995.851  40
  -4  -3   8 86130.2 2609.98  40
  -4  -3   7 182729. 4329.36  40
  -4  -3   7 185366. 4298.21  52
  -4  -3   6 623.608 449.217  40
  -4  -3   6 945.667 356.053  52
  -4  -3   5 79374.6 2719.06  40
  -4  -3   5 78478.2 3537.41  39
  -4  -3   5 75495.3 2497.09  52
  -4  -3   5 78071.0 2567.61  33
  -4  -3   4 90443.2 3765.94  39
  -4  -3   4 92673.6 6071.45   5
  -4  -3   4 89594.3 2641.80  33
  -4  -3   4 96732.9 3104.29  42
  -4  -3   3 59847.9 4941.58   5
  -4  -3   3 57335.2 2680.62  39
  -4  -3   3 56236.2 2350.94  42
  -4  -3   2 94840.0 3280.55  39
  -4  -3   2 100875. 2879.16  49
  -4  -3   2 92573.8 6153.18   5
  -4  -3   2 97463.1 3245.10  42
  -4  -3   1 16566.6 987.972  49
  -4  -3   1 20775.7 2857.43   5
  -4  -3   1 18035.8 1259.55  39
  -4  -3   1 19400.4 1400.02  42
  -4  -3   0 249204. 10175.3   5
  -4  -3   0 275926. 6321.23  42
  -4  -3  -1 11200.6 2031.99   5
  -4  -3  -1 14497.5 1243.98  42
  -4  -3  -1 13887.1 1285.81  24
  -4  -3  -2 77892.4 3084.43  24
  -4  -3  -2 78320.6 3001.21  42
  -4  -3  -2 81923.9 5350.83   5
  -4  -3  -3 202441. 5155.40  42
  -4  -3  -3 202691. 5305.30  24
  -4  -3  -3 199090. 8284.91   5
  -4  -3  -3 191530. 4372.22  41
  -4  -3  -4 20655.2 1558.40  24
  -4  -3  -4 21251.4 2468.75   5
  -4  -3  -4 17242.4 1118.51  41
  -4  -3  -4 16904.9 1361.30  42
  -4  -3  -5 65143.7 2811.00  24
  -4  -3  -5 63755.2 2752.58  42
  -4  -3  -5 58851.8 2210.88  41
  -4  -3  -6 6120.62 940.574  42
  -4  -3  -6 6622.41 783.987  41
  -4  -3  -7 97103.8 3146.38  41
  -4  -3  -7 99995.4 3790.01  42
  -4  -3  -8 53591.3 2331.29  41
  -4  -3  -8 52763.6 2857.77  42
  -4  -3  -9 10486.4 1027.72  41
  -4  -3  -9 12498.8 1485.54  42
  -4  -3 -10 63447.3 3068.01  42
  -4  -3 -10 64527.1 2470.45  41
  -4  -3 -11 2897.05 875.887  42
  -4  -3 -11 2692.14 544.822  41
  -4  -3 -12 57174.3 2494.47  42
  -4  -3 -12 60387.7 2065.46  41
  -4  -3 -13 10237.5 675.376  41
  -4  -3 -13 9869.80 910.175  42
  -4  -3 -14 37265.8 1401.90  42
  -3  -3  12 4566.80 393.624  40
  -3  -3  12 4167.36 373.525  30
  -3  -3  11 147433. 3113.88  40
  -3  -3  10 37622.8 1521.34  40
  -3  -3  10 35635.7 1586.44  26
  -3  -3   9 9948.70 891.018  26
  -3  -3   9 10331.5 861.834  40
  -3  -3   8 96760.0 3046.92  52
  -3  -3   8 104048. 2968.21  40
  -3  -3   8 97393.1 2938.98  26
  -3  -3   7 1450.79 454.961  40
  -3  -3   7 931.339 332.207  26
  -3  -3   6 126018. 3426.24  40
  -3  -3   6 126231. 3471.18  52
  -3  -3   6 125835. 3461.79  33
  -3  -3   6 116206. 6830.16   6
  -3  -3   5 84958.7 3363.37  39
  -3  -3   5 75602.0 4835.22   5
  -3  -3   5 79507.7 2546.45  52
  -3  -3   5 80787.6 2503.45  33
  -3  -3   5 72075.4 5423.58   6
  -3  -3   4 42406.3 3609.21   5
  -3  -3   4 43793.4 4185.21   6
  -3  -3   3 188057. 8710.26   6
  -3  -3   3 170292. 7474.63   5
  -3  -3   2 73473.4 4888.50   6
  -3  -3   2 70863.5 4660.22   5
  -3  -3   1 263259. 8933.05   6
  -3  -3   0 1514.36 786.131   6
  -3  -3   0 3693.69 587.034  24
  -3  -3  -1 230492. 5109.71  24
  -3  -3  -1 250656. 7589.18   6
  -3  -3  -2 172402. 4132.86  24
  -3  -3  -3 166276. 5321.22   2
  -3  -3  -4 110108. 4632.11   2
  -3  -3  -5 14266.6 1748.43   2
  -3  -3  -6 153304. 6155.85   2
  -3  -3  -7 8338.04 749.864  13
  -3  -3  -7 7356.34 1373.78   2
  -3  -3  -7 9160.72 1077.54  25
  -3  -3  -8 65377.9 4245.58   2
  -3  -3  -8 68910.0 2342.36  13
  -3  -3  -8 64406.2 2315.00  41
  -3  -3  -8 71582.7 2964.56  25
  -3  -3  -9 117761. 5978.32   2
  -3  -3  -9 131762. 3500.24  13
  -3  -3  -9 125306. 4154.57  25
  -3  -3  -9 117398. 3381.81  41
  -3  -3 -10 4920.67 657.745  13
  -3  -3 -10 4013.20 631.095  41
  -3  -3 -11 124937. 3462.80  13
  -3  -3 -11 127948. 4173.05  25
  -3  -3 -11 127234. 3553.43  41
  -3  -3 -12 2503.45 732.018  25
  -3  -3 -12 2764.75 532.863  41
  -3  -3 -13 26362.4 1301.60  41
  -3  -3 -13 30370.3 1833.69  42
  -3  -3 -14 35850.7 1721.90  42
  -3  -3 -15 17000.7 943.400  42
  -2  -3  13 1741.90 294.770  30
  -2  -3  13 5256.82 406.731  40
  -2  -3  12 58150.2 1625.71  40
  -2  -3  11 2678.91 450.820  40
  -2  -3  11 1739.87 479.081  26
  -2  -3  10 92626.2 2943.96  26
  -2  -3  10 91080.6 2583.84  40
  -2  -3   9 21052.3 1194.96  40
  -2  -3   9 19865.7 1328.20  26
  -2  -3   8 10090.1 856.470  40
  -2  -3   8 10195.2 937.858  26
  -2  -3   8 10526.1 984.494  52
  -2  -3   7 121574. 3375.36  52
  -2  -3   7 104936. 6188.09   6
  -2  -3   7 111262. 3143.18  26
  -2  -3   7 120378. 3123.11  40
  -2  -3   6 3844.26 1202.35   6
  -2  -3   6 12033.1 1006.04  33
  -2  -3   5 231588. 9720.57   6
  -2  -3   5 276117. 8264.60   5
  -2  -3   4 50068.8 4297.49   6
  -2  -3   4 51377.6 3391.82   5
  -2  -3   3 149386. 7563.64   6
  -2  -3   2 441237. 12461.3   6
  -2  -3   1 1730.77 841.231   6
  -2  -3   0 482411. 10977.6   6
  -2  -3   0 484310. 7982.79  24
  -2  -3  -1 29951.9 1251.77  24
  -2  -3  -1 30012.1 2093.16   6
  -2  -3  -2 461977. 9222.80   6
  -2  -3  -2 429051. 6686.16  15
  -2  -3  -2 427534. 7389.45   8
  -2  -3  -2 465858. 8647.57   2
  -2  -3  -3 266957. 4809.75  15
  -2  -3  -3 290468. 6612.31   2
  -2  -3  -4 101462. 2638.48  15
  -2  -3  -4 103431. 3814.25   2
  -2  -3  -4 97755.3 2463.07  25
  -2  -3  -5 260625. 6892.32   2
  -2  -3  -5 260124. 5187.29  15
  -2  -3  -5 248117. 6677.78  10
  -2  -3  -5 246286. 4759.14  25
  -2  -3  -6 22148.0 1944.69   2
  -2  -3  -6 26048.9 1423.02  15
  -2  -3  -6 25029.0 2011.38  10
  -2  -3  -6 22062.9 1165.94  25
  -2  -3  -7 206774. 6882.33   2
  -2  -3  -7 215045. 6928.42  10
  -2  -3  -7 225303. 4797.84  25
  -2  -3  -8 162697. 6207.95   2
  -2  -3  -8 175199. 4252.64  15
  -2  -3  -8 162359. 4069.78  25
  -2  -3  -8 159781. 6143.61  10
  -2  -3  -9 165301. 4214.97  15
  -2  -3  -9 157463. 6427.71   2
  -2  -3  -9 161701. 4215.55  25
  -2  -3  -9 157933. 6417.39  10
  -2  -3 -10 191198. 7386.42   2
  -2  -3 -10 189343. 4310.05  13
  -2  -3 -10 186440. 4250.87  41
  -2  -3 -10 194328. 4890.79  25
  -2  -3 -10 185613. 7375.40  10
  -2  -3 -11 2713.34 959.100  10
  -2  -3 -11 3693.28 567.061  41
  -2  -3 -11 3581.32 569.382  13
  -2  -3 -11 3324.44 723.256  25
  -2  -3 -12 142450. 3662.15  41
  -2  -3 -12 143149. 3725.87  13
  -2  -3 -12 147914. 4264.50  25
  -2  -3 -13 35676.7 1587.93  41
  -2  -3 -13 36432.0 1964.54  25
  -2  -3 -14 33139.6 1723.41  25
  -2  -3 -16 12011.3 695.472  42
  -1  -3  14 20903.4 741.250  30
  -1  -3  13 73449.8 2012.76  30
  -1  -3  12 4312.42 536.329  40
  -1  -3  12 1448.33 424.808  26
  -1  -3  11 73172.0 2535.15  26
  -1  -3  11 69661.3 2071.15  40
  -1  -3  10 35350.5 1802.79  26
  -1  -3  10 33823.7 1468.76  40
  -1  -3   9 24997.9 1264.15  40
  -1  -3   9 26322.5 1514.26  26
  -1  -3   8 58673.3 2328.10  52
  -1  -3   8 58841.1 1965.79  40
  -1  -3   8 59494.5 2238.90  26
  -1  -3   7 8951.93 1670.41   6
  -1  -3   7 7944.87 789.854  52
  -1  -3   6 180416. 7884.61   6
  -1  -3   5 34307.8 3373.57   6
  -1  -3   4 168116. 7859.14   6
  -1  -3   3 202065. 9090.42   6
  -1  -3   2 7319.11 1832.35   6
  -1  -3   1 150255. 6523.42   6
  -1  -3   0 524226. 11665.1   6
  -1  -3  -1 674372. 12405.7   6
  -1  -3  -2 230785. 5159.09   6
  -1  -3  -2 214460. 4396.29  16
  -1  -3  -2 222090. 4846.46   8
  -1  -3  -3 191530. 4388.80  16
  -1  -3  -3 193780. 4200.27   6
  -1  -3  -4 797395. 13343.6  16
  -1  -3  -4 832904. 14003.3  10
  -1  -3  -5 161045. 3086.59  25
  -1  -3  -5 173356. 4484.12  16
  -1  -3  -5 167943. 4968.40  10
  -1  -3  -6 166525. 5169.49   2
  -1  -3  -6 172597. 4235.28  16
  -1  -3  -6 173510. 3391.40  25
  -1  -3  -6 178187. 5493.40  10
  -1  -3  -7 77962.3 2240.82  15
  -1  -3  -7 73265.0 3461.95   2
  -1  -3  -7 74617.5 3674.18  10
  -1  -3  -7 69348.7 2022.93  25
  -1  -3  -8 106542. 2773.09  25
  -1  -3  -8 107821. 4547.76   2
  -1  -3  -8 113491. 2926.74  15
  -1  -3  -8 111123. 4849.59  10
  -1  -3  -9 144826. 3561.70  25
  -1  -3  -9 152454. 5803.38   2
  -1  -3  -9 148334. 3617.25  15
  -1  -3  -9 153271. 6123.70  10
  -1  -3 -10 25795.6 1445.14  25
  -1  -3 -10 25188.7 1387.08  15
  -1  -3 -10 25101.3 2415.80   2
  -1  -3 -10 26244.7 2639.71  10
  -1  -3 -11 148171. 3769.55  15
  -1  -3 -11 148938. 6247.70   2
  -1  -3 -11 152853. 6846.59  10
  -1  -3 -11 146326. 3971.79  25
  -1  -3 -12 13463.5 1169.02  25
  -1  -3 -13 54594.3 2070.36  13
  -1  -3 -13 54033.1 2312.85  25
  -1  -3 -14 13555.3 1111.55  25
   0  -3  14 51845.9 1268.64  30
   0  -3  13 12908.0 794.410  30
   0  -3  12 54094.4 1955.60  26
   0  -3  12 53471.7 1798.82  31
   0  -3  11 1552.97 421.548  31
   0  -3  11 1661.00 464.550  26
   0  -3  10 190945. 3990.44  40
   0  -3  10 196492. 4524.00  31
   0  -3   9 193225. 4500.17  31
   0  -3   9 191740. 4018.21  40
   0  -3   9 201856. 4676.92  26
   0  -3   8 6949.99 1361.76  19
   0  -3   8 8295.49 1430.04   6
   0  -3   8 8353.67 779.803  31
   0  -3   8 7718.86 777.182  26
   0  -3   8 7574.40 625.244  40
   0  -3   7 281305. 8564.93  19
   0  -3   7 264994. 8652.96   6
   0  -3   6 12594.7 1554.21  19
   0  -3   6 10925.5 1628.68   6
   0  -3   5 155382. 5394.40  19
   0  -3   5 167967. 6307.76   6
   0  -3   4 270311. 8145.72   6
   0  -3   3 224374. 7185.80   6
   0  -3   2 536326. 12068.3   6
   0  -3   1 50395.0 3101.46   6
   0  -3   0 131161. 4833.77   6
   0  -3   0 125787. 3778.32  17
   0  -3  -1 31230.5 2110.35   6
   0  -3  -1 33685.5 2249.79   1
   0  -3  -1 28205.9 1698.49  17
   0  -3  -2 109648. 3968.10   6
   0  -3  -3 300000. 6309.62   8
   0  -3  -3 309620. 5423.80   6
   0  -3  -3 294859. 6381.98  10
   0  -3  -4 9818.12 1003.99  10
   0  -3  -5 217603. 5691.40  10
   0  -3  -6 145374. 3816.08  16
   0  -3  -6 149807. 4683.33  11
   0  -3  -7 362354. 8168.08   2
   0  -3  -7 367412. 8746.75  11
   0  -3  -8 156598. 3888.09  16
   0  -3  -8 157950. 5886.28  11
   0  -3  -8 163688. 5324.46   2
   0  -3  -9 51626.1 3043.14   2
   0  -3  -9 55250.0 1893.37  15
   0  -3  -9 51912.6 1933.63  16
   0  -3 -10 76207.1 3949.56   2
   0  -3 -10 84124.1 2469.43  15
   0  -3 -11 3618.53 547.519  15
   0  -3 -11 2974.38 808.910   2
   0  -3 -11 3743.65 1113.21  10
   0  -3 -12 352386. 6556.75  13
   0  -3 -12 339485. 6385.75  15
   0  -3 -13 25203.2 1344.86  13
   0  -3 -13 25647.1 1503.39  25
   0  -3 -14 59116.7 2210.67  25
   1  -3  13 51426.6 1445.91  30
   1  -3  12-89.0140 333.845  31
   1  -3  11 52995.4 2020.25  26
   1  -3  11 54589.8 2107.65  31
   1  -3  10 64960.7 2413.59  31
   1  -3  10 62929.9 2342.08  26
   1  -3   9 55110.4 4027.76  19
   1  -3   9 62003.2 2357.71  31
   1  -3   9 59177.6 2236.05  26
   1  -3   8 122042. 5559.51   6
   1  -3   8 129624. 3492.01  31
   1  -3   8 120844. 6006.75  19
   1  -3   8 124360. 3292.69  26
   1  -3   7 16263.3 2130.03  19
   1  -3   7 15551.2 1030.75  31
   1  -3   7 17126.5 2077.31   6
   1  -3   6 206439. 7296.79  19
   1  -3   6 196761. 7508.41   6
   1  -3   5 70317.5 3828.65  19
   1  -3   4 103206. 5612.82   1
   1  -3   3 28281.4 3028.02   1
   1  -3   2 395431. 12431.0   1
   1  -3   2 420968. 7267.77  12
   1  -3   1 668070. 12027.1  20
   1  -3   1 589016. 14013.3   1
   1  -3   0 210577. 5803.26  20
   1  -3   0 206722. 6172.66   1
   1  -3  -1 145383. 4795.90  17
   1  -3  -1 142349. 4313.93   1
   1  -3  -2 143341. 4669.64   8
   1  -3  -2 140726. 3854.19   1
   1  -3  -2 140256. 4668.53  17
   1  -3  -3 11562.4 1173.14   8
   1  -3  -3 9670.69 808.491   3
   1  -3  -3 11113.2 974.053  10
   1  -3  -4 271136. 6506.27   8
   1  -3  -4 263561. 5115.94   3
   1  -3  -4 266843. 5980.28  10
   1  -3  -5 69588.1 2056.22   3
   1  -3  -5 75610.1 2999.44  10
   1  -3  -6 368179. 8311.05  10
   1  -3  -6 350306. 8049.62  11
   1  -3  -7 118578. 4615.44  11
   1  -3  -8 185299. 6408.62  11
   1  -3  -8 171451. 5240.48   2
   1  -3  -9 187617. 4739.08  16
   1  -3  -9 200809. 7178.37  11
   1  -3  -9 190511. 5756.34   2
   1  -3 -10 20503.3 2358.06  11
   1  -3 -11 139345. 3296.43  15
   1  -3 -11 137461. 6477.13  11
   1  -3 -11 133277. 6200.57  10
   1  -3 -12 10487.5 835.896  13
   1  -3 -13 157624. 3574.55  13
   1  -3 -14 43687.1 1674.43  25
   2  -3  13 1758.58 269.648  46
   2  -3  12 80292.4 2307.35  31
   2  -3  11 17447.7 1196.73  31
   2  -3  10 41063.9 1928.27  31
   2  -3   9 76059.3 2706.33  31
   2  -3   9 68783.9 4696.69  19
   2  -3   8 71128.2 4448.33   6
   2  -3   8 71937.3 2580.66  31
   2  -3   8 73025.7 4912.73  19
   2  -3   7 207322. 4706.13  31
   2  -3   7 212405. 8387.66  19
   2  -3   6 6501.24 665.651  31
   2  -3   6 7061.79 1491.65  19
   2  -3   5 342880. 10266.6  19
   2  -3   5 372180. 13021.2   1
   2  -3   4 170945. 9183.34   1
   2  -3   3 180098. 8184.45   1
   2  -3   2 402921. 9355.51  22
   2  -3   2 425291. 11583.8   1
   2  -3   1 100449. 4303.83  22
   2  -3   1 107707. 4765.71   1
   2  -3   1 100571. 4262.21  12
   2  -3   0 261872. 7623.34  12
   2  -3   0 275870. 7364.10   1
   2  -3  -1 466117. 11479.6  20
   2  -3  -1 456749. 9579.89   3
   2  -3  -2 71923.0 4215.48  20
   2  -3  -2 76803.4 3979.72  17
   2  -3  -2 77980.5 3113.60   3
   2  -3  -3 179406. 6585.96  17
   2  -3  -3 175301. 4872.51   3
   2  -3  -4 5984.98 1090.27   8
   2  -3  -4 5441.78 1151.51  17
   2  -3  -4 6001.71 828.703   3
   2  -3  -4 5106.66 688.213  10
   2  -3  -5 372555. 7785.33   3
   2  -3  -5 353220. 9320.28   8
   2  -3  -5 379499. 7880.21  10
   2  -3  -6 1659.32 639.205   8
   2  -3  -6 1757.44 463.461   3
   2  -3  -6 2122.82 576.988  10
   2  -3  -7 155846. 6127.09   8
   2  -3  -7 152935. 5196.68  10
   2  -3  -8 193154. 7251.79   8
   2  -3  -8 194730. 6342.23  10
   2  -3  -9 20489.3 2342.92   8
   2  -3  -9 22734.2 2182.04  10
   2  -3 -10 142182. 6489.75   8
   2  -3 -10 153227. 6155.99  10
   2  -3 -11 787.780 634.530  10
   3  -3  12 3369.53 431.039  46
   3  -3  11 67046.3 2146.83  31
   3  -3  10 21929.7 1314.80  31
   3  -3   9 63328.3 4490.30  19
   3  -3   9 64693.3 2434.71  31
   3  -3   8 81048.2 2791.37  31
   3  -3   8 73611.8 2405.98  36
   3  -3   8 77664.7 5208.08  19
   3  -3   7 7252.97 1685.44  19
   3  -3   7 7005.28 792.836  31
   3  -3   6 322278. 10861.0  19
   3  -3   6 329763. 12921.6   1
   3  -3   6 298470. 6040.95  35
   3  -3   6 314841. 6176.92  31
   3  -3   5 2857.59 512.950  37
   3  -3   5 3296.42 1609.73   1
   3  -3   5 3924.02 567.717  35
   3  -3   5 2272.97 1056.17  19
   3  -3   5 2649.48 444.361  31
   3  -3   5 2825.82 434.840  27
   3  -3   4 101263. 7100.51   1
   3  -3   3 171392. 8318.53   1
   3  -3   2 78723.0 4925.73   1
   3  -3   2 70482.1 4353.25  22
   3  -3   1 233630. 8486.44  22
   3  -3   1 258175. 8534.39   1
   3  -3   0 10937.9 1820.68  22
   3  -3   0 13939.3 2036.53  12
   3  -3  -1 181139. 7637.07  22
   3  -3  -1 175974. 7512.72  20
   3  -3  -1 189039. 6383.99   3
   3  -3  -1 192301. 7955.44  12
   3  -3  -2 174962. 7743.16  20
   3  -3  -2 175416. 7951.61  12
   3  -3  -2 194697. 6287.78   3
   3  -3  -3 206276. 6448.03   3
   3  -3  -3 181196. 8338.60  20
   3  -3  -3 189939. 8591.49  12
   3  -3  -4 348440. 11221.9  17
   3  -3  -4 351838. 8816.02   3
   3  -3  -4 342976. 12267.4  12
   3  -3  -5 9622.45 2173.81  20
   3  -3  -5 11288.8 1400.77   3
   3  -3  -5 12448.6 2087.94  17
   3  -3  -5 10718.8 2173.24  12
   3  -3  -6 183033. 10109.9  20
   3  -3  -6 210066. 6410.93   3
   3  -3  -7 45284.4 4463.91  12
   3  -3  -7 38019.3 4565.17  20
   3  -3  -8 175279. 8360.11  12
   3  -3  -9 173984. 7844.50  12
   4  -3  11 8036.90 605.216  46
   4  -3  10 50985.2 1690.36  31
   4  -3   9 34776.8 1553.12  31
   4  -3   9 33627.5 1377.71  36
   4  -3   8 10085.4 889.290  36
   4  -3   8 10244.1 892.625  31
   4  -3   7 79072.8 5265.32  19
   4  -3   7 81341.1 2619.62  31
   4  -3   7 73676.9 2695.45  36
   4  -3   6 1448.11 473.555  35
   4  -3   6 696.277 852.538  19
   4  -3   6 1376.24 376.387  31
   4  -3   6 1582.22 433.323  27
   4  -3   5 178342. 4668.58  35
   4  -3   5 174397. 7883.29  19
   4  -3   5 174038. 4397.97  27
   4  -3   4 63519.2 2611.68  35
   4  -3   4 64631.1 2581.93  37
   4  -3   4 68013.1 4674.34  19
   4  -3   4 72724.4 6434.87   1
   4  -3   4 62503.4 2494.16  27
   4  -3   3 10195.1 2231.49   1
   4  -3   3 10669.8 1024.70  37
   4  -3   3 10297.6 1034.45  35
   4  -3   3 8322.40 1682.15  19
   4  -3   3 9301.67 1007.87  27
   4  -3   2 35708.0 1801.71  37
   4  -3   2 35013.6 1859.19  35
   4  -3   2 38724.6 3895.81   1
   4  -3   1 4126.06 1646.30  22
   4  -3   1 2781.11 530.757  37
   4  -3   1 5121.68 729.242  35
   4  -3   1 4096.99 1345.64   1
   4  -3   1 2521.12 928.519  21
   4  -3   0 184365. 8954.25  22
   4  -3   0 181826. 8196.66  21
   4  -3   0 181123. 4286.53  37
   4  -3  -1 12518.9 2401.11  22
   4  -3  -1 14054.4 2008.05   3
   4  -3  -2 187861. 9339.13  22
   4  -3  -2 186250. 7313.67   3
   4  -3  -2 183971. 9426.70  12
   4  -3  -3 156195. 6537.56   3
   4  -3  -3 156162. 8879.95  12
   4  -3  -3 154594. 8621.07  22
   4  -3  -4 6069.86 1925.90  22
   4  -3  -4 5333.33 1787.17  12
   4  -3  -4 5337.66 1237.65   3
   4  -3  -5 199383. 9951.91  22
   4  -3  -5 190820. 8732.06  20
   4  -3  -5 205308. 10504.6  12
   4  -3  -5 181483. 6998.06   3
   4  -3  -6 7146.86 1996.81  22
   4  -3  -6 9063.54 2309.30  12
   4  -3  -6 8909.36 1447.33   3
   4  -3  -7 114206. 7565.58  12
   4  -3  -7 117250. 7167.14  22
   4  -3  -8 20272.8 2679.91  22
   4  -3  -8 21862.0 3020.08  12
   4  -3  -9 84462.3 5128.04  21
   5  -3   9 14911.6 726.025  36
   5  -3   9 14972.6 762.780  46
   5  -3   8 69473.6 2087.30  36
   5  -3   8 65033.6 2106.43  46
   5  -3   7 9670.02 923.856  36
   5  -3   6 48222.8 2210.93  36
   5  -3   6 51823.7 2018.73  27
   5  -3   5 2036.60 639.695  36
   5  -3   5 2019.21 543.865  27
   5  -3   4 122902. 3640.32  29
   5  -3   4 130952. 4143.29  35
   5  -3   4 125038. 3852.40  27
   5  -3   3 104641. 3689.27  35
   5  -3   3 97852.2 3443.91  29
   5  -3   3 106574. 3644.51  27
   5  -3   2 11191.0 1214.86  35
   5  -3   2 11322.2 1261.49  27
   5  -3   1 122581. 3981.15  35
   5  -3   1 119023. 4141.03  27
   5  -3   0 5952.62 812.899  37
   5  -3   0 6202.46 1913.02  21
   5  -3   0 5691.79 896.426  35
   5  -3  -1 180958. 4413.30  37
   5  -3  -1 169507. 4745.97  35
   5  -3  -2 64616.5 6109.87  22
   5  -3  -2 65170.7 5839.86  21
   5  -3  -2 69010.8 2742.84  35
   5  -3  -3 135612. 3873.67  35
   5  -3  -3 124283. 8348.87  21
   5  -3  -3 129822. 8572.98  22
   5  -3  -4 199742. 10602.2  22
   5  -3  -4 214855. 11049.3  21
   5  -3  -5 49669.8 5196.60  22
   5  -3  -5 54389.3 5477.74  21
   5  -3  -6 177539. 9562.49  21
   5  -3  -6 185564. 9617.50  22
   5  -3  -7 13732.6 2304.07  22
   5  -3  -7 14269.5 2476.22  21
   5  -3  -8 61839.8 4594.62  21
   6  -3   7 41376.9 1330.49  36
   6  -3   6 235.981 299.429  36
   6  -3   5 59698.8 2257.94  36
   6  -3   4 22043.8 1342.89  27
   6  -3   4 20052.8 1383.85  36
   6  -3   4 21697.8 1174.48  29
   6  -3   3 26257.5 1613.14  36
   6  -3   3 25317.4 1511.46  29
   6  -3   3 24080.0 1571.13  27
   6  -3   2 120514. 3621.01  36
   6  -3   2 109749. 3662.49  35
   6  -3   2 104347. 3585.59  29
   6  -3   2 107920. 3705.16  27
   6  -3   2 117213. 3274.61  47
   6  -3   1 3408.53 663.732  36
   6  -3   1 3872.43 808.306  35
   6  -3   1 2728.27 776.845  29
   6  -3   1 3099.96 847.450  27
   6  -3   0 87056.0 3528.73  29
   6  -3   0 100054. 3086.37  36
   6  -3   0 95684.5 3342.56  35
   6  -3   0 89450.2 3528.40  27
   6  -3  -1 42096.0 2093.11  35
   6  -3  -1 39159.2 2276.12  27
   6  -3  -2 24268.9 3683.72  21
   6  -3  -2 27128.4 1585.06  35
   6  -3  -2 22816.8 1731.59  27
   6  -3  -3 29788.7 1903.52  27
   6  -3  -4 19927.0 1489.93  27
   6  -3  -5 90216.0 2961.76  27
   6  -3  -6 701.214 318.231  29
   7  -3   2 10849.6 699.487  29
   7  -3   1 59498.7 2044.41  29
   7  -3   1 59952.1 2096.90  27
   7  -3   0 1054.20 326.380  47
   7  -3   0 1221.80 442.703  29
   7  -3   0 1305.42 432.828  27
   7  -3  -1 47898.0 1859.23  47
   7  -3  -1 43826.1 2024.79  29
   7  -3  -1 43701.7 1880.86  27
   7  -3  -2 21686.1 1254.19  27
   7  -3  -2 21274.3 1405.94  29
   7  -3  -2 23670.3 1516.36  47
   7  -3  -3 18914.3 1161.89  29
   7  -3  -3 15816.9 891.583  27
   7  -3  -4 55234.5 2365.88  47
   7  -3  -4 46659.5 1538.86  29
   7  -3  -5 9473.40 795.805  47
  -7  -2   3 41116.1 1657.56  39
  -7  -2   2 27263.1 1532.79  39
  -7  -2   1 17907.5 1337.36  39
  -7  -2   0 48818.7 2199.89  39
  -7  -2  -1 7617.38 913.477  39
  -7  -2  -2 84100.8 2908.72  39
  -7  -2  -3 13415.5 1141.25  39
  -7  -2  -4 46180.4 2014.04  39
  -7  -2  -5 34612.7 1662.78  39
  -7  -2  -6 7957.29 681.351  39
  -6  -2   8 7480.75 460.666  40
  -6  -2   7 26182.2 1070.55  40
  -6  -2   6 48115.6 1683.82  40
  -6  -2   5 3459.51 772.535  39
  -6  -2   5 2034.39 463.597  40
  -6  -2   4 98774.2 3816.40  39
  -6  -2   4 90502.4 2844.54  40
  -6  -2   3 14161.8 1153.12  40
  -6  -2   3 17050.6 1661.17  39
  -6  -2   2 18856.9 1692.49  39
  -6  -2   1 63705.9 2979.52  39
  -6  -2   1 65369.1 2360.03  49
  -6  -2   1 56282.2 2457.23  42
  -6  -2   0 10104.5 889.958  49
  -6  -2   0 12731.3 1371.05  39
  -6  -2   0 9536.19 1075.17  42
  -6  -2  -1 74718.9 2391.07  49
  -6  -2  -1 67629.4 3015.12  42
  -6  -2  -2 37.1603 285.697  49
  -6  -2  -2-20.0647 623.862  42
  -6  -2  -3 51518.2 2894.65  42
  -6  -2  -4 23317.7 2059.78  42
  -6  -2  -5 12391.7 1568.61  42
  -6  -2  -6 78342.0 3097.70  41
  -6  -2  -6 55313.5 3275.50  42
  -6  -2  -7-484.632 693.677  42
  -6  -2  -7 286.139 563.290  41
  -6  -2  -8 17544.5 1516.11  42
  -6  -2  -8 27085.9 1540.54  41
  -6  -2  -9 1877.90 444.783  41
  -5  -2  10 66958.7 1682.06  40
  -5  -2   9 12216.8 781.038  40
  -5  -2   8 73896.5 2286.06  40
  -5  -2   7 61791.1 2196.77  33
  -5  -2   7 51237.4 2050.65  40
  -5  -2   6 7514.75 902.526  40
  -5  -2   6 9174.33 1280.00  39
  -5  -2   5 67150.9 3439.18  39
  -5  -2   5 68933.0 2274.85  33
  -5  -2   5 66866.6 2620.64  40
  -5  -2   4 218.793 723.099  39
  -5  -2   4 1769.50 459.576  33
  -5  -2   3 125072. 3646.64  49
  -5  -2   3 129252. 4484.84  39
  -5  -2   3 122685. 3830.31  42
  -5  -2   2 42299.1 1882.31  49
  -5  -2   2 40053.7 2304.95  39
  -5  -2   2 40057.0 2161.28  42
  -5  -2   1 109364. 3746.74  39
  -5  -2   1 102707. 2982.85  49
  -5  -2   1 106131. 3764.76  42
  -5  -2   0 116657. 3089.49  49
  -5  -2   0 113834. 6586.71   5
  -5  -2   0 121253. 4246.46  42
  -5  -2  -1 18357.3 2501.25   5
  -5  -2  -1 14815.5 966.427  49
  -5  -2  -1 17858.5 1667.43  42
  -5  -2  -2 141925. 3363.16  49
  -5  -2  -2 152995. 4336.20  41
  -5  -2  -2 153585. 5080.99  24
  -5  -2  -2 149769. 7024.33   5
  -5  -2  -2 145576. 5056.38  42
  -5  -2  -3 14442.7 1574.51  24
  -5  -2  -3 13645.1 1534.18  42
  -5  -2  -3 13444.5 1270.64  41
  -5  -2  -4 98396.4 4269.91  24
  -5  -2  -4 102708. 3535.00  41
  -5  -2  -4 99682.5 4294.96  42
  -5  -2  -5 41145.0 2236.86  41
  -5  -2  -5 40848.3 2738.87  42
  -5  -2  -5 36492.7 2592.37  24
  -5  -2  -6 16369.4 1793.88  24
  -5  -2  -6 15596.4 1721.43  42
  -5  -2  -6 16987.3 1510.28  41
  -5  -2  -7 221614. 7111.84  42
  -5  -2  -7 211880. 6968.78  24
  -5  -2  -8 2004.36 747.590  41
  -5  -2  -8 2357.08 1003.34  42
  -5  -2  -8 1176.62 762.513  24
  -5  -2  -9 31455.3 2335.63  24
  -5  -2  -9 33416.4 2478.83  42
  -5  -2  -9 39028.0 2084.33  41
  -5  -2 -10 49627.9 2136.06  41
  -5  -2 -10 42517.1 2422.41  42
  -5  -2 -11 12298.7 934.568  41
  -5  -2 -11 9239.24 974.466  42
  -5  -2 -12 58221.9 1699.26  41
  -5  -2 -12 58214.5 1849.04  42
  -4  -2  12 16864.0 700.021  40
  -4  -2  11 57435.7 1690.16  40
  -4  -2  10 804.680 388.940  40
  -4  -2   9 71014.8 2367.61  40
  -4  -2   8 23953.9 1829.64  33
  -4  -2   8 9260.38 947.695  40
  -4  -2   7 94300.0 3071.07  40
  -4  -2   7 96696.6 2988.45  33
  -4  -2   6 111843. 3418.03  40
  -4  -2   6 112631. 4335.64  39
  -4  -2   6 109852. 3142.68  33
  -4  -2   5 2009.75 656.689  39
  -4  -2   5 3647.34 550.559  33
  -4  -2   5 4624.06 1317.40   5
  -4  -2   4 238812. 6339.91  39
  -4  -2   4 228232. 9408.62   5
  -4  -2   4 230879. 4704.56  33
  -4  -2   4 240898. 5493.33  42
  -4  -2   3 21344.0 1557.81  39
  -4  -2   3 21052.3 1244.24  49
  -4  -2   3 20295.5 1032.12  33
  -4  -2   3 19237.5 2613.41   5
  -4  -2   3 21075.0 1424.39  42
  -4  -2   2 245553. 5596.95  39
  -4  -2   2 234729. 9288.12   5
  -4  -2   1 123853. 6351.66   5
  -4  -2   0 152343. 6947.70   5
  -4  -2  -1 235042. 8531.69   5
  -4  -2  -1 238782. 5948.10  24
  -4  -2  -2 36726.3 3095.12   5
  -4  -2  -2 38288.7 2129.47  24
  -4  -2  -3 138776. 5965.37   5
  -4  -2  -3 135285. 4258.46  24
  -4  -2  -4 22010.9 1320.60  41
  -4  -2  -4 19389.8 1540.19  24
  -4  -2  -4 21698.8 1553.54  42
  -4  -2  -5 52624.2 2569.79  42
  -4  -2  -5 53628.2 2215.53  41
  -4  -2  -6 92682.9 3163.32  41
  -4  -2  -6 93933.8 3680.21  42
  -4  -2  -6 89928.6 5310.81   2
  -4  -2  -7 12306.0 1192.70  41
  -4  -2  -7 15845.6 2295.85   2
  -4  -2  -7 11420.2 1428.79  42
  -4  -2  -8 101999. 3661.27  41
  -4  -2  -8 104366. 4380.88  42
  -4  -2  -9 28390.0 1850.11  41
  -4  -2  -9 29859.4 2383.01  42
  -4  -2 -10 50681.9 2852.83  42
  -4  -2 -10 50390.9 2395.56  41
  -4  -2 -11 41003.9 2414.07  42
  -4  -2 -11 42890.4 2071.42  41
  -4  -2 -12 7486.53 986.399  42
  -4  -2 -12 8632.81 857.427  41
  -4  -2 -13 50336.7 2025.61  42
  -4  -2 -13 50315.8 1732.91  41
  -4  -2 -14 228.430 196.464  42
  -3  -2  13 36804.0 1092.77  40
  -3  -2  12 81275.3 2104.34  40
  -3  -2  12 78782.5 2126.63  30
  -3  -2  11 3959.34 579.191  40
  -3  -2  10 87582.6 2684.72  26
  -3  -2  10 92492.1 2771.30  40
  -3  -2   9 21921.1 1359.22  40
  -3  -2   9 20656.7 1234.92  26
  -3  -2   8 67296.1 2415.92  52
  -3  -2   8 73118.8 2570.67  40
  -3  -2   8 70706.5 2322.51  26
  -3  -2   7 146252. 3869.07  40
  -3  -2   7 141840. 3742.26  33
  -3  -2   7 142144. 3607.87  52
  -3  -2   6 25571.5 1453.90  40
  -3  -2   6 28561.4 1959.85  39
  -3  -2   6 22644.3 1218.83  52
  -3  -2   6 26538.1 2790.59   6
  -3  -2   6 25408.6 2643.36   5
  -3  -2   6 26888.8 1360.45  33
  -3  -2   5 216006. 8318.30   6
  -3  -2   5 227261. 8238.10   5
  -3  -2   4 50361.7 3727.40   6
  -3  -2   4 49940.9 3658.64   5
  -3  -2   3 366272. 10637.6   5
  -3  -2   3 387625. 10927.2   6
  -3  -2   2 227640. 7544.48   6
  -3  -2   2 221227. 7779.51   5
  -3  -2   1 102056. 4568.61   6
  -3  -2   1 97710.0 4849.65   5
  -3  -2   0 162054. 4026.47  24
  -3  -2  -1 6775.08 724.948  24
  -3  -2  -2 251200. 5206.63  24
  -3  -2  -2 271819. 6282.28   2
  -3  -2  -3 8875.10 1111.32   2
  -3  -2  -4 188028. 5996.85   2
  -3  -2  -5 168476. 5960.77   2
  -3  -2  -5 164734. 3356.20  13
  -3  -2  -5 157214. 4011.34  25
  -3  -2  -6 27833.1 2511.42   2
  -3  -2  -6 26803.3 1253.39  13
  -3  -2  -6 29633.3 1690.68  25
  -3  -2  -7 234395. 4875.03  13
  -3  -2  -7 231383. 5666.74  25
  -3  -2  -8 34434.9 1621.17  13
  -3  -2  -8 34051.8 1813.78  41
  -3  -2  -8 32288.0 2958.04   2
  -3  -2  -9 78440.3 4779.75   2
  -3  -2  -9 78346.2 2632.85  13
  -3  -2  -9 85140.3 3447.36  25
  -3  -2  -9 82222.7 3009.51  41
  -3  -2 -10 42931.0 1914.59  13
  -3  -2 -10 48329.9 2602.72  25
  -3  -2 -10 43325.3 2170.97  41
  -3  -2 -11 71279.3 2493.50  13
  -3  -2 -11 70905.0 3160.48  25
  -3  -2 -11 71616.4 2789.11  41
  -3  -2 -12 68674.0 2614.98  41
  -3  -2 -12 68068.5 2922.41  25
  -3  -2 -13-224.393 374.912  41
  -3  -2 -13-375.572 554.150  25
  -3  -2 -14 38917.6 1802.43  42
  -3  -2 -14 36054.5 1429.03  41
  -3  -2 -15 7066.33 603.497  42
  -2  -2  14 34493.5 1056.35  30
  -2  -2  13 20297.9 1043.08  30
  -2  -2  13 21932.2 967.099  40
  -2  -2  12 9769.58 778.902  40
  -2  -2  11 80943.7 2483.67  40
  -2  -2  11 79643.6 2642.00  26
  -2  -2  10 35473.2 1677.28  40
  -2  -2  10 37535.9 1773.51  26
  -2  -2   9 84716.5 2699.16  40
  -2  -2   9 81844.1 2682.27  26
  -2  -2   8 73413.7 2551.28  33
  -2  -2   8 70227.9 2443.42  52
  -2  -2   8 63933.7 2247.98  26
  -2  -2   8 69130.0 2408.37  40
  -2  -2   7 105603. 2897.56  33
  -2  -2   7 101306. 2850.01  52
  -2  -2   7 108079. 5450.13   6
  -2  -2   7 100935. 2918.43  40
  -2  -2   6 229701. 8293.94   6
  -2  -2   6 237843. 7199.78   5
  -2  -2   5 7192.40 1379.05   6
  -2  -2   5 7357.04 1188.88   5
  -2  -2   4 201868. 6460.77   5
  -2  -2   4 199669. 7243.38   6
  -2  -2   3 4289.02 1065.52   6
  -2  -2   3 3414.47 827.841   5
  -2  -2   2 477994. 10873.6   6
  -2  -2   1 292267. 7348.41   6
  -2  -2   1 295228. 5422.87  24
  -2  -2   0 65992.2 1720.89   2
  -2  -2   0 67183.6 2891.76   6
  -2  -2  -1 262815. 5063.40   2
  -2  -2  -1 261747. 6086.95   6
  -2  -2  -2 28144.6 1489.93   2
  -2  -2  -3 419233. 6711.10  25
  -2  -2  -3 428199. 8291.48   2
  -2  -2  -4 345072. 5791.33  15
  -2  -2  -4 332008. 7109.36  10
  -2  -2  -4 331109. 5693.44  25
  -2  -2  -5 198519. 5607.69   2
  -2  -2  -5 177407. 3747.38  25
  -2  -2  -5 191829. 3884.04  15
  -2  -2  -5 180103. 5084.56  10
  -2  -2  -6 106398. 4276.66   2
  -2  -2  -6 118693. 3012.82  15
  -2  -2  -6 111444. 4178.85  10
  -2  -2  -6 108467. 2848.04  25
  -2  -2  -7 615.282 410.728  15
  -2  -2  -7 623.554 522.760   2
  -2  -2  -7 1107.36 624.721  10
  -2  -2  -7 481.677 345.588  25
  -2  -2  -8 483969. 11652.1   2
  -2  -2  -8 506073. 8153.51  13
  -2  -2  -8 475331. 11536.2  10
  -2  -2  -8 500398. 8883.03  25
  -2  -2  -9 24657.9 2411.45   2
  -2  -2  -9 25016.6 1286.58  13
  -2  -2  -9 26175.9 2486.70  10
  -2  -2  -9 25775.8 1597.17  25
  -2  -2 -10 196338. 7435.22   2
  -2  -2 -10 195205. 7517.77  10
  -2  -2 -10 192712. 4348.65  13
  -2  -2 -10 194959. 5052.57  25
  -2  -2 -11 107624. 3120.25  13
  -2  -2 -11 112755. 5738.65  10
  -2  -2 -11 108597. 3671.77  25
  -2  -2 -12 24487.9 1380.62  13
  -2  -2 -12 23582.1 1511.34  41
  -2  -2 -12 22157.4 1630.15  25
  -2  -2 -13 62945.5 2390.80  41
  -2  -2 -13 65022.5 2682.05  25
  -2  -2 -14 2327.73 627.771  25
  -2  -2 -14 662.451 346.788  41
  -2  -2 -15 101895. 2355.78  41
  -1  -2  14 16673.6 844.093  30
  -1  -2  13 21670.7 1195.65  30
  -1  -2  13 25285.9 1120.88  40
  -1  -2  12 53900.8 1844.27  40
  -1  -2  12 51412.3 2088.07  26
  -1  -2  11 22714.8 1410.36  26
  -1  -2  11 20097.0 1202.15  40
  -1  -2  10 139136. 3721.24  26
  -1  -2  10 137341. 3531.62  40
  -1  -2   9 29153.9 1470.68  40
  -1  -2   9 31504.1 1559.10  26
  -1  -2   8 87515.7 2734.20  52
  -1  -2   8 87313.1 2591.60  26
  -1  -2   8 85189.3 2556.16  40
  -1  -2   7 105577. 5352.66   6
  -1  -2   6 85236.8 4790.43   6
  -1  -2   6 90323.2 3978.78   7
  -1  -2   5 269522. 6326.11  19
  -1  -2   5 276115. 7131.89   7
  -1  -2   5 278042. 6437.41   5
  -1  -2   4 9214.48 844.355  19
  -1  -2   4 9385.36 1600.38   6
  -1  -2   4 9543.17 1088.49   7
  -1  -2   4 9521.83 1035.45   5
  -1  -2   3 345142. 10023.5   6
  -1  -2   2 18799.3 1968.72   6
  -1  -2   1 18040.5 1596.72   6
  -1  -2   0 287465. 6270.93   6
  -1  -2  -1 527608. 8031.32   8
  -1  -2  -1 513192. 8790.77   6
  -1  -2  -2 605311. 9437.40   6
  -1  -2  -3 595550. 9939.42  10
  -1  -2  -4 44587.3 2002.00  10
  -1  -2  -4 46558.9 1602.63  16
  -1  -2  -4 43144.7 1960.11   2
  -1  -2  -5 421027. 8701.71   2
  -1  -2  -5 452993. 7124.17  15
  -1  -2  -6 4896.61 492.600  15
  -1  -2  -6 4833.69 823.801   2
  -1  -2  -7 275849. 4932.26  15
  -1  -2  -7 260860. 6952.17   2
  -1  -2  -8 6898.80 1113.53   2
  -1  -2  -8 6888.94 640.901  15
  -1  -2  -9 226700. 7096.14   2
  -1  -2  -9 224238. 4550.00  15
  -1  -2 -10 114164. 2994.93  15
  -1  -2 -10 107835. 5017.23   2
  -1  -2 -10 112530. 2964.31  13
  -1  -2 -11 77042.6 4319.71   2
  -1  -2 -11 76983.4 2449.90  13
  -1  -2 -12 115513. 3651.67  25
  -1  -2 -13 19082.4 1170.84  13
  -1  -2 -13 16598.1 1300.44  25
  -1  -2 -14 45511.8 2050.37  25
  -1  -2 -15 4693.78 503.687  41
   0  -2  14 53192.8 1597.88  30
   0  -2  13 27570.1 1351.76  30
   0  -2  12 56778.2 2091.42  31
   0  -2  12 62059.0 2264.91  26
   0  -2  12 62096.5 1962.96  40
   0  -2  11 164945. 4106.59  31
   0  -2  11 171347. 4228.90  26
   0  -2  11 169645. 3849.47  40
   0  -2  10 17062.4 1109.36  40
   0  -2  10 20199.4 1284.86  26
   0  -2  10 18912.4 1213.03  31
   0  -2   9 169651. 3973.80  31
   0  -2   9 169303. 4040.71  26
   0  -2   9 165771. 3869.44  40
   0  -2   8 70711.8 4116.24  19
   0  -2   8 71535.2 2249.85  26
   0  -2   7 277777. 8131.21  19
   0  -2   7 259619. 8514.49   6
   0  -2   6 288255. 7544.46   7
   0  -2   6 266674. 8537.96   6
   0  -2   6 276618. 7549.68  19
   0  -2   5 82775.5 3489.42   7
   0  -2   5 72773.9 3228.57  19
   0  -2   5 77200.5 4122.17   6
   0  -2   4 641724. 11692.2   7
   0  -2   4 666110. 11694.7  19
   0  -2   4 641760. 13838.9   6
   0  -2   4 647270. 9820.94   5
   0  -2   3 2956.04 490.044   7
   0  -2   3 3348.44 933.159   6
   0  -2   2 513067. 8067.33   7
   0  -2   2 542928. 11750.3   6
   0  -2   1 683466. 14077.0   6
   0  -2   1 683149. 14190.3   1
   0  -2   0 6443.98 1063.70   1
   0  -2  -1 426166. 9143.85   6
   0  -2  -1 427998. 9194.52   1
   0  -2  -2 772.428 232.923   6
   0  -2  -2 301.372 221.290   1
   0  -2  -3 257795. 4930.23  11
   0  -2  -4 141359. 4036.76  11
   0  -2  -5 27291.6 627.882   3
   0  -2  -5 33496.0 2068.50  11
   0  -2  -6 514778. 8763.63  16
   0  -2  -6 525653. 11340.9  11
   0  -2  -7 3984.37 714.046   2
   0  -2  -7 3661.20 471.100  16
   0  -2  -7 4467.11 1012.20  11
   0  -2  -8 242288. 6433.07   2
   0  -2  -8 226349. 4258.51  15
   0  -2  -8 227948. 8019.28  11
   0  -2  -9 13059.3 1481.61   2
   0  -2  -9 13594.8 829.685  15
   0  -2  -9 14166.0 2108.22  11
   0  -2 -10 57300.7 4418.48  11
   0  -2 -10 59194.0 1897.18  15
   0  -2 -10 54709.6 3199.65   2
   0  -2 -11 113877. 3008.59  13
   0  -2 -11 116368. 2902.43  15
   0  -2 -12 26932.9 1373.60  13
   0  -2 -13 169069. 3902.61  13
   0  -2 -14 7342.46 795.332  25
   1  -2  14 26389.6 900.796  30
   1  -2  13 40025.4 1513.23  30
   1  -2  13 36944.2 1346.31  46
   1  -2  12 57920.2 2161.93  31
   1  -2  11 8167.65 888.193  31
   1  -2  11 7518.20 811.518  26
   1  -2  10 131201. 3243.97  40
   1  -2  10 141490. 3736.79  31
   1  -2  10 139038. 3628.88  26
   1  -2   9 25753.0 1429.77  31
   1  -2   9 24336.5 1255.37  40
   1  -2   9 26273.7 2829.67  19
   1  -2   9 26236.5 1354.50  26
   1  -2   8 158553. 6726.47  19
   1  -2   8 158409. 6306.58   6
   1  -2   8 147573. 3457.50  26
   1  -2   8 153639. 3675.64  31
   1  -2   7 87423.1 4557.23  19
   1  -2   7 86141.4 4655.03   6
   1  -2   6 53895.5 3325.77   7
   1  -2   6 52145.5 3256.59  19
   1  -2   6 51103.6 3694.14   6
   1  -2   5 215504. 7128.39   7
   1  -2   5 202335. 6286.51  19
   1  -2   4 94.6629 648.128   1
   1  -2   3 165295. 7533.52   1
   1  -2   2 13614.9 1702.58   1
   1  -2   1 393223. 8548.25   1
   1  -2   1 399893. 7225.47  12
   1  -2   0 285587. 6044.26   1
   1  -2  -1 32347.5 1419.05   3
   1  -2  -2 229544. 5209.69   8
   1  -2  -2 218796. 4330.62   3
   1  -2  -2 221846. 4394.88  10
   1  -2  -3 13972.1 830.301   3
   1  -2  -3 13876.0 933.983  10
   1  -2  -4 512506. 8258.72   3
   1  -2  -5 95282.1 2559.31   3
   1  -2  -6 440072. 7581.90   3
   1  -2  -7 463788. 8872.40   2
   1  -2  -8 19464.3 1491.28   2
   1  -2  -8 18810.6 1676.38   9
   1  -2  -8 18899.2 2300.74  11
   1  -2  -9 180790. 7717.22  11
   1  -2 -10 14153.1 826.427  15
   1  -2 -10 14173.2 2235.46  11
   1  -2 -11 14662.5 933.383  13
   1  -2 -11 14744.9 2316.08  11
   1  -2 -12 181506. 3935.46  13
   2  -2  14 31029.1 894.845  46
   2  -2  13 30653.3 1257.35  46
   2  -2  12 9611.14 890.284  31
   2  -2  11 78858.7 2685.63  31
   2  -2  10 347.033 406.984  31
   2  -2   9 141637. 6909.67  19
   2  -2   9 139359. 3743.06  31
   2  -2   8 26190.8 2861.15  19
   2  -2   8 25258.4 1406.66  31
   2  -2   7 147558. 6543.17  19
   2  -2   7 152838. 3598.54  31
   2  -2   6 240426. 9892.29   1
   2  -2   6 228406. 7788.58  19
   2  -2   5 1371.75 676.704  19
   2  -2   5 1243.88 1069.64   1
   2  -2   4 216454. 8923.59   1
   2  -2   3 129091. 5703.49   1
   2  -2   2 420578. 9185.56  22
   2  -2   2 408333. 9867.63   1
   2  -2   1 156901. 4998.36  22
   2  -2   1 153431. 5006.69  12
   2  -2   0 7364.28 1095.12  20
   2  -2   0 7567.21 947.083   3
   2  -2   0 7174.58 1104.89  12
   2  -2  -1 503751. 11156.7  12
   2  -2  -1 521632. 9841.90   3
   2  -2  -2 5215.35 1104.03  20
   2  -2  -2 5036.24 946.595  17
   2  -2  -2 4726.30 702.009   3
   2  -2  -3 623916. 10990.3   3
   2  -2  -3 611109. 9737.59  10
   2  -2  -4 397490. 9015.70   8
   2  -2  -4 417018. 8283.77   3
   2  -2  -4 423256. 7637.56  10
   2  -2  -5 317684. 7855.92   8
   2  -2  -5 313070. 6908.40   3
   2  -2  -6 191004. 5113.13   3
   2  -2  -7 1570.42 442.730   3
   2  -2  -9 22203.7 2267.97   9
   2  -2 -10 54421.3 4342.38  11
   2  -2 -11 69913.0 4849.06  11
   3  -2  13 27397.4 1063.96  46
   3  -2  12 55020.2 1927.05  46
   3  -2  11 28132.9 1457.34  31
   3  -2  10 171462. 4218.50  31
   3  -2   9 3950.67 558.172  36
   3  -2   9 3569.47 1297.15  19
   3  -2   9 4005.00 668.598  31
   3  -2   8 59835.3 2249.59  31
   3  -2   8 58873.7 2187.90  36
   3  -2   8 61294.4 4513.63  19
   3  -2   7 124622. 7378.83   1
   3  -2   7 112891. 6012.78  19
   3  -2   7 116857. 3176.99  31
   3  -2   7 111391. 3061.19  27
   3  -2   6 51482.9 5363.69   1
   3  -2   6 48549.6 3753.14  19
   3  -2   6 50200.6 1823.54  31
   3  -2   6 49963.8 1966.46  35
   3  -2   6 46816.2 1879.91  27
   3  -2   5 135266. 6036.05  19
   3  -2   5 135657. 8249.67   1
   3  -2   4 625.016 797.095   1
   3  -2   4 619.923 595.592  19
   3  -2   3 145827. 6573.77   1
   3  -2   2 85938.4 4585.21  22
   3  -2   2 87952.6 4111.15  21
   3  -2   2 92737.6 4731.78   1
   3  -2   1 213272. 7443.03  22
   3  -2   1 220377. 6905.55   3
   3  -2   0 345349. 9975.16  22
   3  -2   0 348475. 10240.3  12
   3  -2   0 363963. 9027.51   3
   3  -2  -1 25097.3 2471.48  22
   3  -2  -1 28370.3 2193.05   3
   3  -2  -1 27982.1 2693.80  12
   3  -2  -2 373822. 8859.06   3
   3  -2  -2 367342. 10779.3  12
   3  -2  -3 60266.2 3898.86  20
   3  -2  -3 67369.7 3338.97   3
   3  -2  -3 68748.0 4412.71  12
   3  -2  -4 416307. 11535.9  20
   3  -2  -4 411072. 9631.46   3
   3  -2  -4 414634. 12079.4  12
   3  -2  -5 148457. 6668.43  20
   3  -2  -5 168057. 7294.37  12
   3  -2  -5 157173. 5413.75   3
   3  -2  -6 25387.2 2104.67   3
   3  -2  -6 30291.7 3101.68  12
   3  -2  -7 201703. 6389.68   3
   3  -2  -7 234811. 8812.86  12
   3  -2  -8 608.176 615.183  12
   3  -2  -9 136010. 6336.69   9
   3  -2 -10 71210.3 4525.05   9
   4  -2  12 8953.31 596.897  46
   4  -2  11 60686.7 2019.90  46
   4  -2  10 2666.25 453.402  31
   4  -2  10 2184.53 380.056  36
   4  -2   9 96077.5 2737.07  31
   4  -2   9 88272.4 2726.09  36
   4  -2   8 29229.8 3069.76  19
   4  -2   8 30285.1 1470.95  31
   4  -2   8 30958.2 1672.66  36
   4  -2   7 16769.0 1269.41  36
   4  -2   7 16960.8 2378.65  19
   4  -2   7 17561.8 1265.60  27
   4  -2   6 111634. 5937.42  19
   4  -2   6 102515. 3309.21  27
   4  -2   5 17762.3 1303.21  35
   4  -2   5 17626.2 2292.45  19
   4  -2   5 14879.8 2944.30   1
   4  -2   5 16158.8 1254.13  27
   4  -2   4 120362. 3550.61  35
   4  -2   4 123403. 5821.41  19
   4  -2   4 122959. 7462.13   1
   4  -2   4 114911. 3579.08  27
   4  -2   3 28011.4 1481.66  37
   4  -2   3 26041.6 1524.06  35
   4  -2   3 28857.7 2578.25  19
   4  -2   3 27674.9 3211.04   1
   4  -2   3 29085.9 1648.13  27
   4  -2   2 34438.2 3247.15  21
   4  -2   2 36204.2 1614.71  37
   4  -2   2 34763.1 1688.11  35
   4  -2   2 35289.2 2693.64  19
   4  -2   2 34431.3 3357.79   1
   4  -2   1 143871. 6754.94  21
   4  -2   0 12586.4 2236.60  22
   4  -2   0 11688.1 1774.70   3
   4  -2   0 10497.6 1867.24  21
   4  -2  -1 195053. 8553.44  22
   4  -2  -1 194966. 8290.61  21
   4  -2  -1 200641. 7367.64   3
   4  -2  -2 5364.31 1523.26  22
   4  -2  -2 6350.20 1333.08   3
   4  -2  -3 150362. 7422.72  22
   4  -2  -3 151469. 6304.12   3
   4  -2  -4 80283.6 5341.53  22
   4  -2  -4 85784.7 5893.37  12
   4  -2  -4 82362.4 4531.05   3
   4  -2  -5 8858.56 1862.14  22
   4  -2  -5 9079.10 2002.67  12
   4  -2  -5 7844.29 1401.84   3
   4  -2  -6 29063.7 2617.89   3
   4  -2  -6 33855.4 3424.27  22
   4  -2  -6 34723.5 3758.27  12
   4  -2  -7 88875.3 5225.21  22
   4  -2  -7 84833.0 5379.66  21
   4  -2  -7 87788.7 5760.50  12
   4  -2  -8 182707. 7716.48  21
   4  -2  -9 62187.7 4025.02  21
   4  -2 -10 88413.3 4980.99  18
   5  -2  10 69103.1 1659.28  36
   5  -2  10 65601.0 1757.95  46
   5  -2   9 13881.6 883.975  36
   5  -2   9 13424.0 910.463  46
   5  -2   8 31870.0 1601.98  36
   5  -2   8 33806.5 1576.62  46
   5  -2   7 21843.8 1463.83  36
   5  -2   6 68485.2 2681.28  27
   5  -2   6 66668.6 2654.48  36
   5  -2   5 151968. 4441.67  27
   5  -2   5 146654. 4081.98  29
   5  -2   5 151092. 4232.91  36
   5  -2   4 4958.81 875.995  35
   5  -2   4 4610.99 779.825  29
   5  -2   4 5263.57 890.667  27
   5  -2   3 102697. 3448.99  35
   5  -2   3 92050.8 3357.37  29
   5  -2   3 101600. 3482.88  47
   5  -2   3 98844.1 3552.63  27
   5  -2   2 49237.0 2285.81  35
   5  -2   2 46362.3 2372.72  27
   5  -2   1 65330.6 5366.58  21
   5  -2   1 66043.9 2597.70  35
   5  -2   1 61991.4 2721.00  27
   5  -2   0 122023. 7483.75  21
   5  -2   0 126198. 3656.12  35
   5  -2   0 120822. 3886.10  27
   5  -2  -1 16281.3 2827.37  21
   5  -2  -1 19256.7 1291.15  35
   5  -2  -2 234023. 10712.6  21
   5  -2  -2 242708. 5176.50  35
   5  -2  -3 5661.77 1858.96  22
   5  -2  -3 4892.82 1778.05  21
   5  -2  -4 74348.5 5714.82  22
   5  -2  -4 78801.2 6082.74  21
   5  -2  -5 242893. 10843.0  21
   5  -2  -5 231231. 10012.3  22
   5  -2  -6 23491.2 2886.76  22
   5  -2  -6 25805.9 3348.51  21
   5  -2  -7 101961. 6116.75  21
   5  -2  -8 10994.2 1853.73  21
   6  -2   8 12463.8 698.822  36
   6  -2   7 35286.8 1477.30  36
   6  -2   6 53636.3 2065.93  36
   6  -2   5 3774.68 675.506  36
   6  -2   5 3115.60 515.026  29
   6  -2   4 97719.7 3109.71  36
   6  -2   4 91867.8 3235.81  27
   6  -2   4 88121.1 3018.91  29
   6  -2   3 17547.9 1289.41  36
   6  -2   3 17469.7 1501.41  27
   6  -2   3 17902.7 1449.55  29
   6  -2   3 17311.8 1311.97  47
   6  -2   2 111630. 3320.20  36
   6  -2   2 104597. 3674.14  29
   6  -2   2 106496. 3702.94  47
   6  -2   2 107711. 3744.35  27
   6  -2   1 76302.5 2856.30  35
   6  -2   1 81696.6 2669.77  36
   6  -2   1 76553.7 3162.42  29
   6  -2   1 82500.7 3529.20  47
   6  -2   1 74535.7 3066.75  27
   6  -2   0 17427.0 1286.96  35
   6  -2   0 15909.0 1443.27  29
   6  -2   0 15045.6 1372.70  27
   6  -2  -1 114527. 3901.33  29
   6  -2  -1 109600. 3707.37  27
   6  -2  -2 529.750 522.661  29
   6  -2  -2 779.729 491.774  27
   6  -2  -3 63798.0 5691.56  21
   6  -2  -3 60118.4 2453.75  27
   6  -2  -3 67985.4 2722.73  29
   6  -2  -4 23087.5 3411.10  21
   6  -2  -4 25757.2 1528.58  29
   6  -2  -4 25733.3 1449.33  27
   6  -2  -5 40921.8 1708.73  29
   6  -2  -8 38602.0 1349.13  47
   7  -2   2 14938.9 1089.78  29
   7  -2   2 14462.3 858.730  47
   7  -2   1 33789.7 1585.01  47
   7  -2   1 30191.1 1442.39  50
   7  -2   1 32532.6 1729.67  29
   7  -2   1 34355.2 1650.66  27
   7  -2   0 65704.0 2289.58  27
   7  -2   0 64858.5 2511.74  29
   7  -2  -1 700.342 462.787  29
   7  -2  -1 584.767 345.630  27
   7  -2  -2 48050.3 1746.83  27
   7  -2  -2 48821.6 2086.68  29
   7  -2  -2 44591.9 2213.81  47
   7  -2  -3 15509.0 1343.43  47
   7  -2  -3 11292.2 856.674  29
   7  -2  -4 61464.1 2347.55  47
   7  -2  -4 48715.8 1493.05  29
   7  -2  -5 38697.4 1529.84  47
  -7  -1   3 12486.7 1069.82  39
  -7  -1   2 66840.5 2735.52  39
  -7  -1   1 5637.21 889.576  39
  -7  -1   0 59304.5 2633.41  39
  -7  -1  -1 28001.2 1795.03  39
  -7  -1  -1 27995.4 1311.91  49
  -7  -1  -2 18267.0 1455.14  39
  -7  -1  -2 17744.1 957.544  49
  -7  -1  -3 73374.8 2868.86  39
  -7  -1  -4 67.3676 432.426  39
  -7  -1  -5 43415.7 2042.69  39
  -7  -1  -6 10404.8 841.407  39
  -6  -1   8 52041.0 1467.66  40
  -6  -1   7 3971.71 484.468  40
  -6  -1   6 60738.1 1830.88  33
  -6  -1   6 55041.6 1981.89  40
  -6  -1   5 81718.7 3407.58  39
  -6  -1   5 75838.8 2516.43  40
  -6  -1   4 37634.8 1800.38  40
  -6  -1   4 37299.7 2470.12  39
  -6  -1   3 44729.0 2085.27  40
  -6  -1   3 52774.2 2238.81  49
  -6  -1   3 50315.9 2840.82  39
  -6  -1   2 4779.34 1021.20  39
  -6  -1   2 4073.82 694.302  49
  -6  -1   1 131836. 3594.60  49
  -6  -1   1 138850. 4686.61  39
  -6  -1   0 40102.4 2419.24  39
  -6  -1   0 38102.6 1765.36  49
  -6  -1  -1 40821.1 1788.02  49
  -6  -1  -2 65287.2 2279.06  49
  -6  -1  -3 567.805 360.828  49
  -6  -1  -4 45927.7 1775.91  49
  -6  -1  -5 15531.5 1672.28  41
  -6  -1  -6 26161.9 2054.46  41
  -6  -1  -7 35243.7 2301.89  41
  -6  -1  -8 9337.03 1057.59  41
  -6  -1  -9 37002.9 1698.57  41
  -5  -1  11 31510.2 994.634  40
  -5  -1  10 3878.38 452.462  40
  -5  -1   9 77175.9 2303.89  40
  -5  -1   8 1566.53 496.888  40
  -5  -1   8 15219.7 1174.52  33
  -5  -1   7 85987.2 2636.22  33
  -5  -1   7 83929.2 2820.34  40
  -5  -1   6 36322.5 1875.85  40
  -5  -1   6 39993.4 2635.51  39
  -5  -1   6 36176.3 1630.60  33
  -5  -1   5 93322.5 3242.50  40
  -5  -1   5 98037.1 4331.82  39
  -5  -1   5 99727.1 2808.01  33
  -5  -1   4 163999. 5448.60  39
  -5  -1   4 152075. 3609.19  33
  -5  -1   4 161641. 4300.70  49
  -5  -1   3 1348.11 660.714  39
  -5  -1   3 2407.27 581.331  42
  -5  -1   3 979.138 454.419  49
  -5  -1   2 114910. 4034.36  39
  -5  -1   2 109751. 3172.24  49
  -5  -1   2 105712. 3565.15  42
  -5  -1   1 2124.24 482.512  49
  -5  -1   1 1630.12 882.042   5
  -5  -1   1 1997.15 546.218  42
  -5  -1   0 164816. 3858.34  49
  -5  -1   0 170331. 7442.06   5
  -5  -1   0 157145. 4931.80  42
  -5  -1  -1 60784.8 2085.57  49
  -5  -1  -1 56076.3 4019.82   5
  -5  -1  -1 55999.5 2973.80  42
  -5  -1  -2 49288.9 1854.59  49
  -5  -1  -2 53211.5 2540.79  41
  -5  -1  -3 100633. 2810.00  49
  -5  -1  -3 98118.7 4378.78  42
  -5  -1  -3 107336. 3747.96  41
  -5  -1  -4 57.6420 253.329  49
  -5  -1  -4 270.307 544.393  41
  -5  -1  -5 93120.0 2706.02  49
  -5  -1  -5 90979.2 4455.89  42
  -5  -1  -6 42807.4 3137.33  42
  -5  -1  -6 49324.2 2748.35  41
  -5  -1  -7 149109. 5103.38  41
  -5  -1  -7 116762. 5585.65  42
  -5  -1  -8 84060.7 4899.58  42
  -5  -1  -8 117879. 4431.51  41
  -5  -1  -9 1827.48 792.307  41
  -5  -1  -9 754.743 753.611  42
  -5  -1 -10 46924.9 2339.00  42
  -5  -1 -10 54421.1 2404.42  41
  -5  -1 -11 6272.52 667.724  42
  -5  -1 -11 7552.86 801.944  41
  -5  -1 -12 42213.2 1451.77  41
  -4  -1  12 6949.40 542.282  40
  -4  -1  11 19691.1 1077.92  40
  -4  -1  10 57756.1 2100.78  40
  -4  -1   9 6155.90 804.759  40
  -4  -1   9 18694.7 1668.49  33
  -4  -1   8 58566.1 2257.47  33
  -4  -1   8 52494.3 2275.40  40
  -4  -1   7 2164.19 572.188  40
  -4  -1   7 2688.37 858.268  39
  -4  -1   7 2814.48 572.493  33
  -4  -1   6 168687. 4481.40  40
  -4  -1   6 182649. 5991.77  39
  -4  -1   6 171693. 3984.62  33
  -4  -1   6 166207. 3705.45  51
  -4  -1   6 162360. 7458.79   5
  -4  -1   5 97551.7 4098.15  39
  -4  -1   5 92094.5 2625.34  33
  -4  -1   5 86972.9 5398.03   5
  -4  -1   5 102327. 3210.15  49
  -4  -1   4 30442.2 1995.48  39
  -4  -1   4 29985.0 1507.08  49
  -4  -1   4 25408.3 2880.99   5
  -4  -1   4 28251.4 1249.28  33
  -4  -1   4 27554.8 1566.39  42
  -4  -1   3 234732. 5621.21  39
  -4  -1   3 220793. 4617.45  49
  -4  -1   2 16477.4 2163.35   5
  -4  -1   1 295942. 9447.63   5
  -4  -1   0 23474.0 2423.20   5
  -4  -1   0 24516.7 1611.20  24
  -4  -1  -1 74533.6 4169.76   5
  -4  -1  -1 74708.5 3045.66  24
  -4  -1  -2 162570. 6140.50   5
  -4  -1  -2 170232. 4890.26  24
  -4  -1  -3 49947.9 2478.53  24
  -4  -1  -3 46828.8 2968.31   5
  -4  -1  -4 283441. 6103.49  41
  -4  -1  -5 62003.4 2584.78  41
  -4  -1  -5 57153.9 3978.75   2
  -4  -1  -5 61012.5 2911.52  42
  -4  -1  -6 110942. 5884.81   2
  -4  -1  -6 108531. 4280.14  42
  -4  -1  -6 116264. 3911.86  41
  -4  -1  -7 88544.0 5496.30   2
  -4  -1  -7 90825.4 4180.84  42
  -4  -1  -7 101790. 3880.84  41
  -4  -1  -8 44548.9 3171.88  42
  -4  -1  -8 47043.1 2752.26  41
  -4  -1  -9 78096.0 3439.84  41
  -4  -1  -9 69370.9 3905.02  42
  -4  -1 -10 524.626 635.132  41
  -4  -1 -10 2843.85 1085.32  42
  -4  -1 -11 70396.0 3242.64  42
  -4  -1 -11 75464.6 2976.56  41
  -4  -1 -12 19617.7 1330.65  41
  -4  -1 -12 18705.8 1427.68  42
  -4  -1 -13 20303.4 1123.36  42
  -4  -1 -13 20173.9 1106.70  41
  -3  -1  14 64390.6 1412.03  40
  -3  -1  13 2095.53 397.828  40
  -3  -1  13 1117.18 260.808  30
  -3  -1  12 49821.5 1783.78  40
  -3  -1  12 51492.9 1783.46  30
  -3  -1  11 34412.0 1568.65  30
  -3  -1  11 36807.4 1694.54  40
  -3  -1  10 109870. 3378.45  33
  -3  -1  10 89330.0 2957.94  40
  -3  -1   9 214787. 5013.59  33
  -3  -1   9 222096. 4645.75  26
  -3  -1   9 224045. 5220.30  40
  -3  -1   8 18455.0 1045.72  26
  -3  -1   8 22166.3 1356.92  33
  -3  -1   8 19232.3 1362.08  40
  -3  -1   7 175969. 4432.59  40
  -3  -1   7 181168. 4092.46  33
  -3  -1   7 182048. 3851.16  52
  -3  -1   7 166822. 3768.99  51
  -3  -1   7 172707. 6824.85   5
  -3  -1   6 52989.4 2136.29  40
  -3  -1   6 57061.8 2970.31  39
  -3  -1   6 54724.3 1865.31  33
  -3  -1   6 48151.8 3501.85   5
  -3  -1   6 52001.2 3387.12   6
  -3  -1   5 31595.1 2778.60   5
  -3  -1   5 29396.6 2505.19   6
  -3  -1   4 253447. 7617.24   6
  -3  -1   4 242249. 7948.42   5
  -3  -1   3 43098.0 2850.89   6
  -3  -1   3 41350.9 2987.87   5
  -3  -1   2 325955. 8939.31   5
  -3  -1   1 72227.1 2414.41  24
  -3  -1   1 72177.5 3716.97   5
  -3  -1   0 64608.0 3388.97   5
  -3  -1   0 63723.3 2268.87  24
  -3  -1  -1 159344. 4344.40   2
  -3  -1  -1 147132. 5108.10   5
  -3  -1  -1 155822. 3778.55  24
  -3  -1  -2 7603.05 959.442   2
  -3  -1  -2 7826.71 1100.46   5
  -3  -1  -3 575784. 11618.6   2
  -3  -1  -3 596110. 11493.2   5
  -3  -1  -4 15955.9 1621.44   2
  -3  -1  -4 18553.6 1439.56   5
  -3  -1  -4 17789.9 857.435  13
  -3  -1  -4 19680.8 1218.83  25
  -3  -1  -5 237899. 7229.02   2
  -3  -1  -5 234947. 4451.30  13
  -3  -1  -5 231083. 5261.98  25
  -3  -1  -6 147523. 5846.42   2
  -3  -1  -6 148792. 4137.16  25
  -3  -1  -7 45794.6 1826.20  13
  -3  -1  -7 42773.7 3285.20   2
  -3  -1  -7 49175.7 2516.88  25
  -3  -1  -7 47409.5 2283.12  41
  -3  -1  -8 138330. 6312.25   2
  -3  -1  -8 147155. 3804.65  13
  -3  -1  -8 153794. 4947.00  25
  -3  -1  -8 151710. 4647.32  41
  -3  -1  -9 8195.62 1546.26   2
  -3  -1  -9 9260.75 893.460  13
  -3  -1  -9 9633.49 1392.64  25
  -3  -1  -9 6846.23 1033.57  41
  -3  -1 -10 160560. 4077.05  13
  -3  -1 -10 149381. 4971.60  25
  -3  -1 -10 160271. 4838.06  41
  -3  -1 -11 12664.0 1023.60  13
  -3  -1 -11 11943.8 1413.40  25
  -3  -1 -11 11050.7 1244.36  41
  -3  -1 -12 55428.5 2627.11  25
  -3  -1 -12 55242.2 2492.18  41
  -3  -1 -13 42378.5 1927.75  41
  -3  -1 -14 4901.49 698.014  42
  -3  -1 -14 2326.39 435.288  41
  -2  -1  14 124.833 224.637  30
  -2  -1  14 9160.21 658.723  40
  -2  -1  13 52958.6 1896.65  30
  -2  -1  13 49180.1 1748.99  40
  -2  -1  12 41742.1 1772.67  40
  -2  -1  11 163695. 4026.25  26
  -2  -1  11 161099. 4084.03  40
  -2  -1  10 63577.9 2278.64  26
  -2  -1  10 63529.5 2410.99  40
  -2  -1   9 3197.15 618.521  40
  -2  -1   9 1801.04 419.432  26
  -2  -1   8 232459. 4693.71  51
  -2  -1   8 232742. 4885.08  33
  -2  -1   8 236880. 5263.33  40
  -2  -1   8 237107. 4683.23  26
  -2  -1   7 4804.43 949.762   6
  -2  -1   6 120307. 4813.04   6
  -2  -1   6 119407. 4701.85   5
  -2  -1   5 22664.8 1976.48   6
  -2  -1   5 23817.6 1969.15   5
  -2  -1   4 294439. 7501.03   6
  -2  -1   4 291850. 7520.11   5
  -2  -1   3 193238. 5542.26   6
  -2  -1   3 184177. 5519.44   5
  -2  -1   2 9952.10 1094.70   6
  -2  -1   2 10020.7 1170.68   5
  -2  -1   1 152176. 4274.34   6
  -2  -1   0 147593. 2946.04   2
  -2  -1   0 144033. 3976.66   6
  -2  -1  -1 52096.9 1775.50   2
  -2  -1  -2 245697. 5157.53   2
  -2  -1  -3 6419.77 776.212   2
  -2  -1  -3 5642.02 343.209  13
  -2  -1  -3 6156.62 631.173  10
  -2  -1  -4 431472. 6530.81  13
  -2  -1  -4 447136. 8916.70   2
  -2  -1  -4 456970. 7050.06  25
  -2  -1  -4 437116. 8220.82  10
  -2  -1  -5 16473.6 1508.71   2
  -2  -1  -5 16118.1 751.853  13
  -2  -1  -5 17766.8 972.959  25
  -2  -1  -6 185180. 5842.40   2
  -2  -1  -6 192590. 3705.90  13
  -2  -1  -6 195877. 4302.48  25
  -2  -1  -7 126942. 4986.26   2
  -2  -1  -7 123592. 2895.95  13
  -2  -1  -7 131574. 3486.58  25
  -2  -1  -8 88925.9 4383.94   2
  -2  -1  -8 90335.2 2992.41  25
  -2  -1  -8 91001.4 2510.53  13
  -2  -1  -9 304633. 9180.99   2
  -2  -1  -9 296044. 5788.33  13
  -2  -1  -9 309448. 6656.92  25
  -2  -1 -10 238.257 335.178  13
  -2  -1 -10 394.717 492.288   2
  -2  -1 -10-99.6844 628.688  25
  -2  -1 -11 162102. 4003.08  13
  -2  -1 -11 158376. 4692.03  25
  -2  -1 -11 168265. 7153.17  10
  -2  -1 -12 15159.5 1083.67  13
  -2  -1 -12 12815.2 1297.69  25
  -2  -1 -13 28931.6 1774.92  25
  -2  -1 -13 29789.2 1733.10  41
  -2  -1 -14 94688.6 2826.54  41
  -2  -1 -15 4591.04 481.853  41
  -1  -1  15 5435.07 428.152  30
  -1  -1  14 58909.9 1939.09  30
  -1  -1  14 68637.3 1827.02  40
  -1  -1  13 24600.9 1380.70  30
  -1  -1  13 26109.9 1366.73  40
  -1  -1  12 88688.3 2739.65  40
  -1  -1  11 78678.8 2678.15  40
  -1  -1  11 81670.1 2682.22  26
  -1  -1  10 47799.4 1825.39  31
  -1  -1  10 47956.5 1936.72  26
  -1  -1  10 45731.9 2030.74  40
  -1  -1   9 160084. 3543.08  31
  -1  -1   9 154148. 3685.25  26
  -1  -1   9 154987. 3990.80  40
  -1  -1   8 6685.90 1335.12   7
  -1  -1   7 219988. 7847.60   7
  -1  -1   7 216130. 6685.35   6
  -1  -1   6 27898.9 2523.58   7
  -1  -1   6 27705.4 2193.82   6
  -1  -1   5 303215. 8394.76   7
  -1  -1   5 292938. 7716.66   6
  -1  -1   5 301956. 6481.63   5
  -1  -1   4 56004.9 3021.84   7
  -1  -1   4 55314.0 2843.24   6
  -1  -1   4 53240.9 2232.28   5
  -1  -1   3 26236.3 1809.68   6
  -1  -1   3 22914.4 1364.73   5
  -1  -1   3 24449.3 1791.81   7
  -1  -1   2 116019. 3546.51   6
  -1  -1   1 95604.5 2756.87   6
  -1  -1   0 267865. 4947.01   6
  -1  -1  -1 186379. 3583.84   6
  -1  -1  -1 182238. 3312.90   2
  -1  -1  -2 67952.0 1850.34  10
  -1  -1  -2 67096.2 1943.47   2
  -1  -1  -3 95564.7 2698.41   2
  -1  -1  -3 100863. 1889.59  15
  -1  -1  -4 4800.26 645.177   2
  -1  -1  -4 4628.40 360.844  15
  -1  -1  -5 383083. 8039.23   2
  -1  -1  -5 428505. 6425.30  15
  -1  -1  -6 118927. 2546.66  15
  -1  -1  -6 114730. 3916.64   2
  -1  -1  -7 165498. 3349.61  15
  -1  -1  -7 169401. 5256.62   2
  -1  -1  -8 289276. 5094.60  15
  -1  -1  -8 277322. 7564.71   2
  -1  -1  -8 276211. 5017.45  13
  -1  -1  -9 1851.92 427.149  13
  -1  -1  -9 1295.47 626.998   2
  -1  -1 -10 178829. 6640.22   2
  -1  -1 -10 189802. 4136.41  13
  -1  -1 -11 34837.1 2851.15   2
  -1  -1 -11 36347.6 1646.19  13
  -1  -1 -12 25503.3 1388.26  13
  -1  -1 -13 77739.5 2443.62  13
  -1  -1 -13 70604.4 2801.78  25
  -1  -1 -14 4224.31 650.122  25
  -1  -1 -15 64790.3 1986.31  41
   0  -1  15 60093.2 1560.72  30
   0  -1  14 319.791 303.116  30
   0  -1  13 120808. 3271.57  30
   0  -1  12 33892.1 1710.44  40
   0  -1  11 30064.8 1572.83  31
   0  -1  11 32027.9 1612.09  26
   0  -1  11 33569.7 1697.13  40
   0  -1  10 99122.9 2890.05  31
   0  -1  10 93590.4 2993.53  40
   0  -1  10 100325. 2918.92  26
   0  -1   9 108723. 2850.09  31
   0  -1   9 107885. 2844.98  26
   0  -1   8 406000. 11157.4   7
   0  -1   7 6035.14 1062.80  19
   0  -1   7 4841.09 1135.55   7
   0  -1   7 5168.35 1052.84   6
   0  -1   6 532614. 12415.0   7
   0  -1   6 520544. 10763.3  19
   0  -1   5 395792. 10024.3   7
   0  -1   5 402703. 8130.48  19
   0  -1   4 79680.0 2681.72  19
   0  -1   4 77932.7 1735.40   5
   0  -1   4 76462.1 3954.67   6
   0  -1   3 345165. 9072.76   6
   0  -1   3 351879. 5436.43   5
   0  -1   2 5364.88 782.900   7
   0  -1   1 408496. 6545.98   7
   0  -1   1 391663. 10134.9   1
   0  -1   0 347945. 7860.04   1
   0  -1  -1 476199. 7295.93   6
   0  -1  -1 446037. 6976.53   1
   0  -1  -2 450411. 7473.00  11
   0  -1  -3 93755.4 3146.27  11
   0  -1  -4 527131. 8608.28   2
   0  -1  -4 521693. 10650.9  11
   0  -1  -5 56430.1 2133.85   2
   0  -1  -5 56675.2 2070.69   9
   0  -1  -5 62421.9 3293.25  11
   0  -1  -6 257807. 5865.72   2
   0  -1  -6 266557. 4573.84  16
   0  -1  -6 263465. 6027.05   9
   0  -1  -7 217307. 5586.70   2
   0  -1  -7 214736. 3787.28  15
   0  -1  -7 227944. 8048.75  11
   0  -1  -7 217568. 5934.15   9
   0  -1  -8 26691.8 1038.94  15
   0  -1  -8 27388.4 1933.50   2
   0  -1  -8 27936.0 2943.83  11
   0  -1  -9 116714. 2622.60  15
   0  -1  -9 112156. 4421.72   2
   0  -1  -9 114447. 6414.99  11
   0  -1 -10 4985.53 502.912  15
   0  -1 -10 4218.73 903.059   2
   0  -1 -10 4992.97 572.701  13
   0  -1 -10 5688.36 1730.93  11
   0  -1 -11 54980.1 1954.97  13
   0  -1 -11 53177.7 4736.00  11
   0  -1 -12 44112.0 1776.33  13
   0  -1 -13 67227.3 2188.14  13
   0  -1 -14 97354.6 3021.63  25
   1  -1  14 87226.9 2240.40  30
   1  -1  13 1319.22 352.174  46
   1  -1  13 899.931 407.709  30
   1  -1  12 88957.6 2846.70  31
   1  -1  12 89861.8 2767.34  30
   1  -1  11 118660. 3390.58  31
   1  -1  10 18944.4 1221.73  31
   1  -1  10 18323.2 1131.59  26
   1  -1  10 22010.7 1393.89  40
   1  -1   9 135897. 3266.77  26
   1  -1   9 131278. 3624.91  40
   1  -1   8 1681.52 858.064  19
   1  -1   8 942.676 738.868   7
   1  -1   7 325804. 8913.82  19
   1  -1   7 304201. 10208.4   7
   1  -1   7 326539. 9566.03   6
   1  -1   6 43619.7 2684.98  19
   1  -1   6 45999.5 3763.56   7
   1  -1   5 15762.1 2120.15   1
   1  -1   5 12495.6 1315.69  19
   1  -1   5 14857.4 2349.60   7
   1  -1   4 485144. 14082.0   1
   1  -1   4 519190. 9779.83  19
   1  -1   3 21588.3 2085.75   1
   1  -1   2 59852.0 2611.76   1
   1  -1   1 7376.30 634.499  12
   1  -1   1 7353.84 691.165   3
   1  -1   0 472800. 7594.45   3
   1  -1  -1 310027. 5308.56   3
   1  -1  -1 317504. 4692.32  10
   1  -1  -2 91626.5 2286.39   3
   1  -1  -5 417204. 7147.70   2
   1  -1  -6 26428.7 1396.10   2
   1  -1  -7 158471. 4183.85   2
   1  -1  -7 148152. 4912.03   9
   1  -1  -8 89832.1 2026.44  15
   1  -1  -8 86790.3 3968.90   9
   1  -1  -9 73755.7 5190.43  11
   1  -1 -10 83460.0 2272.72  13
   1  -1 -10 79115.5 5669.83  11
   1  -1 -11 44804.8 1647.65  13
   1  -1 -11 48043.8 4439.62  11
   1  -1 -12 181923. 3877.89  13
   1  -1 -13 63570.7 2417.87  14
   2  -1  14 2191.71 323.163  46
   2  -1  13 75936.1 2307.67  46
   2  -1  12 22871.8 1374.77  31
   2  -1  11 55910.2 2227.90  31
   2  -1  10 112837. 3255.34  31
   2  -1   9 16636.9 1108.54  31
   2  -1   9 15322.2 2236.45  19
   2  -1   8 142465. 6417.67  19
   2  -1   8 136561. 7468.88   7
   2  -1   8 138666. 3377.71  31
   2  -1   7 11475.5 1724.54  19
   2  -1   7 10722.5 2306.50   7
   2  -1   6 59724.0 3471.38  19
   2  -1   6 67452.2 5215.77   1
   2  -1   5 63548.0 3306.48  19
   2  -1   5 70020.8 5186.72   1
   2  -1   4 69059.0 4045.61   1
   2  -1   4 57611.5 2910.05  19
   2  -1   3 458746. 10254.5   1
   2  -1   2 21796.6 1631.65  22
   2  -1   2 23760.4 1678.92   3
   2  -1   1 651137. 11485.4  22
   2  -1   1 567379. 10703.2   3
   2  -1   0 308678. 6863.18  20
   2  -1   0 305228. 6501.95   3
   2  -1   0 299018. 7242.93  12
   2  -1  -1 29209.5 1805.77  20
   2  -1  -1 29213.2 1627.65   3
   2  -1  -1 30545.2 1993.10  12
   2  -1  -2 527828. 9582.60   3
   2  -1  -2 539670. 10831.5  12
   2  -1  -2 520573. 7694.25  10
   2  -1  -3 20900.4 1465.03   8
   2  -1  -3 18448.7 1754.92  17
   2  -1  -3 18503.5 1353.77   3
   2  -1  -3 20191.7 1719.56  12
   2  -1  -4 535326. 10124.5   8
   2  -1  -4 541782. 10099.5   3
   2  -1  -5 42483.3 2245.48   3
   2  -1  -6 57499.1 2765.38   3
   2  -1  -7 163314. 5633.67  12
   2  -1  -7 140205. 4688.67   3
   2  -1  -8 59731.7 3629.10   9
   2  -1  -9 196053. 6808.35  18
   2  -1  -9 189005. 7179.69   9
   2  -1 -10 15856.8 2663.69  11
   2  -1 -11 141928. 3995.18  14
   2  -1 -11 153800. 7851.10  11
   2  -1 -12 75789.0 2700.25  14
   3  -1  14 63041.2 1515.32  46
   3  -1  13 3122.54 473.286  46
   3  -1  12 82809.0 2613.47  46
   3  -1  11 21341.8 1281.27  31
   3  -1  10 74588.2 2387.14  36
   3  -1  10 76454.5 2550.77  31
   3  -1   9 140535. 3598.01  36
   3  -1   9 139656. 3625.64  31
   3  -1   8 3243.34 534.742  36
   3  -1   8 2975.98 1157.79  19
   3  -1   8 2829.29 478.690  31
   3  -1   7 87385.0 2611.27  36
   3  -1   7 90515.7 5033.46  19
   3  -1   7 86273.4 2430.56  31
   3  -1   7 85722.6 2767.45  27
   3  -1   6 24817.8 2465.57  19
   3  -1   6 25650.9 3785.19   1
   3  -1   5 214694. 7127.30  19
   3  -1   5 212195. 9185.37   1
   3  -1   4 214897. 6627.93  19
   3  -1   4 232255. 8317.45   1
   3  -1   3 11854.3 1442.90  21
   3  -1   3 11536.2 1328.55  19
   3  -1   3 13861.8 1788.71   1
   3  -1   2 484835. 11061.8  21
   3  -1   2 485792. 10956.6   3
   3  -1   1 34111.7 2635.00  22
   3  -1   1 33843.6 2478.85  21
   3  -1   1 36859.7 2469.56   3
   3  -1   0 94656.7 4433.71  22
   3  -1   0 104805. 4125.52   3
   3  -1  -1 142499. 5476.82  22
   3  -1  -1 148479. 5008.41   3
   3  -1  -1 149437. 5870.25  12
   3  -1  -2 130837. 5258.13  22
   3  -1  -2 135731. 4750.44  20
   3  -1  -2 136654. 5680.37  12
   3  -1  -2 140529. 4869.53   3
   3  -1  -3 417576. 10404.2  22
   3  -1  -3 435122. 11034.7  12
   3  -1  -3 426518. 9527.06  20
   3  -1  -3 408102. 9568.95   3
   3  -1  -4 1237.28 593.535  22
   3  -1  -4 756.873 646.582  12
   3  -1  -4 1091.14 499.993   3
   3  -1  -5 199796. 6690.39  22
   3  -1  -5 193329. 6296.83   3
   3  -1  -5 206112. 7219.17  12
   3  -1  -6 66127.1 3644.96  22
   3  -1  -6 59914.1 3367.23   3
   3  -1  -6 66204.2 4015.66  12
   3  -1  -7 55206.9 3324.55   3
   3  -1  -7 66888.1 3953.05  12
   3  -1  -8 253753. 7826.05  21
   3  -1  -8 245006. 8669.95   9
   3  -1  -9 5633.48 1338.96   9
   3  -1 -10 205297. 7791.60  18
   4  -1  13 42547.8 1206.44  46
   4  -1  12 11662.8 811.597  46
   4  -1  11 61082.4 1807.16  36
   4  -1  11 68769.3 2281.09  46
   4  -1  10 69003.7 2301.24  36
   4  -1  10 71452.7 2214.12  31
   4  -1   9 5010.18 711.626  36
   4  -1   9 5153.13 594.504  31
   4  -1   8 57835.1 2332.40  36
   4  -1   7 33023.6 3095.77  19
   4  -1   7 32497.6 1725.63  36
   4  -1   7 30795.2 1794.63  27
   4  -1   6 207124. 4807.38  36
   4  -1   6 215033. 7895.59  19
   4  -1   6 203320. 5190.68  27
   4  -1   5 66324.6 2468.12  35
   4  -1   5 64481.7 3916.24  19
   4  -1   5 67229.0 5558.94   1
   4  -1   5 62590.8 2316.44  29
   4  -1   5 61652.4 2523.95  27
   4  -1   4 22644.6 1370.77  35
   4  -1   4 23214.9 2148.06  19
   4  -1   4 21579.2 1411.69  27
   4  -1   4 21809.3 1315.86  29
   4  -1   4 24538.8 2992.50   1
   4  -1   3 302095. 5953.58  35
   4  -1   3 310611. 8105.21  19
   4  -1   3 306166. 10346.1   1
   4  -1   3 298356. 6148.27  27
   4  -1   2 10202.7 1774.17  21
   4  -1   2 11120.7 1744.96   3
   4  -1   1 109439. 5689.06  21
   4  -1   1 107125. 5218.18   3
   4  -1   0 51650.7 4013.18  22
   4  -1   0 51124.6 3917.37  21
   4  -1   0 54704.6 3627.70   3
   4  -1  -1 88391.0 5135.88  22
   4  -1  -1 90157.1 5177.89  21
   4  -1  -1 83786.8 4494.09   3
   4  -1  -2 132247. 6251.83  22
   4  -1  -2 129001. 6346.19  21
   4  -1  -2 129148. 5677.47   3
   4  -1  -3 5406.87 1350.08  22
   4  -1  -3 5045.55 1395.20  21
   4  -1  -3 5465.93 1224.40   3
   4  -1  -4 83349.0 4824.03  22
   4  -1  -4 83989.8 5142.87  21
   4  -1  -4 83404.0 4646.38   3
   4  -1  -5 30583.9 3137.26  21
   4  -1  -5 31338.1 2867.54  22
   4  -1  -5 30567.1 2770.78   3
   4  -1  -6 56468.1 3754.13  22
   4  -1  -6 58384.7 4247.39  21
   4  -1  -6 52090.2 3660.84   3
   4  -1  -7 76159.2 4713.38  21
   4  -1  -7 70937.0 4239.98   3
   4  -1  -8 3015.66 944.362  21
   4  -1  -8 3201.69 1187.22   9
   4  -1  -9 109223. 5880.76  18
   5  -1  10 25133.9 1157.11  36
   5  -1  10 26305.4 1213.63  46
   5  -1   9 70346.8 2368.04  36
   5  -1   9 71114.1 2297.36  46
   5  -1   8 3315.52 657.317  36
   5  -1   8 3156.12 533.726  46
   5  -1   7 117821. 3565.61  36
   5  -1   6 69491.4 5172.67  23
   5  -1   6 74862.0 2794.27  36
   5  -1   6 76693.3 2841.20  29
   5  -1   6 81213.0 3205.41  27
   5  -1   5 45891.3 2102.93  36
   5  -1   5 46787.0 2261.92  29
   5  -1   5 44963.6 2353.13  27
   5  -1   4 57829.5 2330.03  36
   5  -1   4 63188.7 2578.23  35
   5  -1   4 61305.6 2616.38  29
   5  -1   4 60076.3 2720.27  47
   5  -1   4 61374.1 2697.36  27
   5  -1   3 21240.7 1320.11  36
   5  -1   3 22626.5 1482.28  35
   5  -1   3 21267.3 1531.95  29
   5  -1   3 20037.8 1522.44  27
   5  -1   2 151200. 7748.41   1
   5  -1   2 155678. 4074.07  35
   5  -1   2 153502. 4325.45  29
   5  -1   2 147460. 4273.83  27
   5  -1   1 6164.06 748.843  35
   5  -1   1 6175.02 846.368  27
   5  -1   1 6678.05 1506.17   3
   5  -1   0 211550. 9773.48  21
   5  -1   0 212475. 4674.34  35
   5  -1   0 207607. 8566.60   3
   5  -1   0 213785. 5105.55  27
   5  -1  -1 96236.1 6435.50  21
   5  -1  -1 93706.1 2676.14  35
   5  -1  -1 98814.9 5690.76   3
   5  -1  -1 92274.7 2995.08  27
   5  -1  -2 83598.3 5960.83  21
   5  -1  -2 82669.0 5219.27   3
   5  -1  -3 91565.0 6209.07  21
   5  -1  -4 1692.35 1220.14  21
   5  -1  -5 191624. 9012.50  21
   5  -1  -6 50881.2 4309.05  21
   5  -1  -7 46896.8 3839.50  21
   6  -1   9 5385.66 437.057  36
   6  -1   8 70940.4 2123.89  36
   6  -1   7 1126.45 426.778  36
   6  -1   6 57220.0 2189.76  36
   6  -1   5 55355.9 2202.19  36
   6  -1   5 51786.8 2291.95  29
   6  -1   4 23034.9 3107.34  23
   6  -1   4 23662.5 1616.68  47
   6  -1   4 25296.2 1471.29  36
   6  -1   4 23134.4 1613.10  29
   6  -1   4 23867.5 1691.95  27
   6  -1   3 94080.8 3378.64  27
   6  -1   3 97057.0 3457.08  29
   6  -1   3 92715.8 3557.53  47
   6  -1   3 93802.1 2928.16  36
   6  -1   2 4584.85 617.999  36
   6  -1   2 4403.17 859.744  29
   6  -1   2 3903.44 789.038  27
   6  -1   1 145934. 4356.34  29
   6  -1   1 143454. 4694.76  47
   6  -1   1 138084. 4109.13  27
   6  -1   0 51131.2 2828.06  47
   6  -1   0 45651.5 2296.05  29
   6  -1   0 44111.8 2123.59  27
   6  -1  -1 76444.3 2911.91  29
   6  -1  -1 74660.4 2720.32  27
   6  -1  -2 106605. 3423.91  29
   6  -1  -2 106422. 3156.33  27
   6  -1  -3 1047.46 457.527  29
   6  -1  -4 69906.0 2354.05  29
   6  -1  -7 41486.2 1541.35  47
   7  -1   3 1075.91 353.323  47
   7  -1   2 62859.4 2447.45  47
   7  -1   2 71429.8 2587.59  29
   7  -1   1 6439.28 791.116  50
   7  -1   1 5627.12 854.152  47
   7  -1   0 29221.4 1823.09  47
   7  -1   0 33608.1 1747.39  29
   7  -1   0 32062.1 1469.23  27
   7  -1  -1 43287.7 1927.73  29
   7  -1  -1 38745.1 2071.68  47
   7  -1  -1 44470.0 1606.18  27
   7  -1  -2 4300.72 631.475  29
   7  -1  -2 6952.31 984.002  47
   7  -1  -3 59452.8 1851.75  29
   7  -1  -3 60614.0 2421.66  47
   7  -1  -4 900.116 460.781  47
   7  -1  -5 59029.6 1805.45  50
   7  -1  -5 59593.3 1783.65  47
  -7   0   3 21031.7 1479.11  39
  -7   0   2 24148.7 1735.92  39
  -7   0   1 53685.0 2661.69  39
  -7   0   1 63300.5 2210.50  49
  -7   0   0 645.952 550.550  39
  -7   0   0 677.999 389.732  49
  -7   0  -1 35038.3 2137.45  39
  -7   0  -1 42927.0 1745.76  49
  -7   0  -2 5773.38 939.557  39
  -7   0  -2 8234.94 771.156  49
  -7   0  -3 53980.8 2587.43  39
  -7   0  -3 53761.0 1762.29  49
  -7   0  -4 34200.2 2002.63  39
  -6   0   8 30028.3 1189.23  33
  -6   0   7 67890.1 1951.38  40
  -6   0   7 71928.3 2047.52  33
  -6   0   6 688.416 323.638  40
  -6   0   6 2367.43 531.608  33
  -6   0   5 158307. 5295.20  39
  -6   0   5 158365. 3539.28  33
  -6   0   5 155887. 3692.47  40
  -6   0   4 7604.85 755.424  40
  -6   0   4 7136.15 1287.21  39
  -6   0   4 8023.83 1006.73  49
  -6   0   3 27149.4 2199.41  39
  -6   0   3 27437.5 1648.29  49
  -6   0   2 84222.5 2866.31  49
  -6   0   2 82848.0 3734.50  39
  -6   0   1 18870.3 1787.39  39
  -6   0   1 17518.0 1278.78  49
  -6   0   0 146480. 3886.77  49
  -6   0  -1 19374.4 1300.19  49
  -6   0  -2 44956.3 2000.71  49
  -6   0  -3 54855.8 2209.34  49
  -6   0  -4 9125.91 920.865  49
  -6   0  -4 8246.77 1402.22  41
  -6   0  -5 55255.1 2065.51  49
  -6   0  -5 51032.3 3093.62  41
  -6   0  -6 686.708 336.114  49
  -6   0  -6 587.269 852.237  41
  -6   0  -7 75842.0 3765.30  41
  -6   0  -8 47233.4 2383.31  41
  -6   0  -9 6261.50 731.865  41
  -5   0  11 46430.2 1359.56  40
  -5   0  10 59923.5 1920.27  33
  -5   0  10 35800.7 1427.83  40
  -5   0   9 71751.2 2292.62  33
  -5   0   9 63312.1 2146.68  40
  -5   0   8 67494.3 2292.32  33
  -5   0   8 69989.7 2430.76  40
  -5   0   7 28510.1 2082.68  39
  -5   0   7 27294.4 1425.95  33
  -5   0   7 27803.3 1577.97  40
  -5   0   6 293389. 6229.91  40
  -5   0   6 282625. 5689.86  33
  -5   0   5 71746.3 2690.96  40
  -5   0   5 76799.9 3929.93  39
  -5   0   5 70520.6 2297.35  33
  -5   0   5 80366.6 2932.07  49
  -5   0   4 37344.9 2552.83  39
  -5   0   4 34720.9 1495.87  33
  -5   0   4 37049.7 1875.62  49
  -5   0   3 26575.3 1998.39  39
  -5   0   3 22710.0 1138.15  33
  -5   0   3 26501.3 1513.53  49
  -5   0   2 32251.0 1623.90  49
  -5   0   2 35050.5 3305.52   5
  -5   0   1 132156. 6337.07   5
  -5   0   1 137224. 3577.05  49
  -5   0   0 439.502 368.831  49
  -5   0   0 670.471 492.363   5
  -5   0  -1 197269. 7313.37   5
  -5   0  -1 197986. 4525.83  49
  -5   0  -1 216102. 5742.74  41
  -5   0  -2 30003.5 1545.82  49
  -5   0  -2 31565.1 2062.86  41
  -5   0  -3 48890.2 2025.14  49
  -5   0  -3 51341.8 2706.43  41
  -5   0  -4 119236. 3443.38  49
  -5   0  -4 125662. 4515.84  41
  -5   0  -5 1405.30 459.517  49
  -5   0  -5 1776.50 862.711  41
  -5   0  -6 144858. 3875.03  49
  -5   0  -6 137366. 5307.34  41
  -5   0  -7 6262.78 734.126  49
  -5   0  -7 4328.58 867.013  42
  -5   0  -7 5532.13 1303.69  41
  -5   0  -8 103977. 4085.30  42
  -5   0  -8 111252. 4844.92  41
  -5   0  -9 48394.1 2784.68  41
  -5   0 -10 11272.1 1198.81  41
  -5   0 -11 58306.3 2170.27  41
  -4   0  13 6001.80 452.019  40
  -4   0  12 49415.3 1624.29  40
  -4   0  11 42351.1 1978.48  33
  -4   0  11 8829.79 824.518  40
  -4   0  10 84786.2 2778.75  33
  -4   0  10 75643.0 2605.96  40
  -4   0   9 62583.5 2347.47  33
  -4   0   9 61236.3 2440.44  40
  -4   0   8 17165.9 1197.11  33
  -4   0   8 18597.8 1358.27  40
  -4   0   7 45250.8 2110.60  40
  -4   0   7 47493.2 2880.19  39
  -4   0   7 46298.3 1878.61  33
  -4   0   7 49171.8 1808.39  51
  -4   0   6 34885.6 1808.69  40
  -4   0   6 31742.1 2429.45  39
  -4   0   6 34826.0 1537.40  33
  -4   0   6 31576.8 1360.12  51
  -4   0   6 35827.8 3339.16   5
  -4   0   5 120718. 4466.04  39
  -4   0   5 110316. 2813.57  33
  -4   0   5 114388. 3316.87  49
  -4   0   5 107248. 5790.04   5
  -4   0   4 30149.5 1937.61  39
  -4   0   4 26462.9 1161.45  33
  -4   0   4 30718.9 1466.66  49
  -4   0   4 25086.4 2669.73   5
  -4   0   3 104453. 5333.27   5
  -4   0   2 129478. 5748.21   5
  -4   0   1 28088.9 2512.60   5
  -4   0   0 108840. 4907.23   5
  -4   0  -1 5333.47 1053.04   5
  -4   0  -2 226811. 6778.28   5
  -4   0  -2 209890. 5424.70  24
  -4   0  -3 168796. 4850.53  24
  -4   0  -4 57524.9 2010.88  49
  -4   0  -4 59873.5 4019.22   2
  -4   0  -4 60493.8 2609.27  41
  -4   0  -5 178492. 5142.11  41
  -4   0  -5 171363. 4051.41  49
  -4   0  -5 161768. 7104.78   2
  -4   0  -5 161587. 5334.49  42
  -4   0  -6 11396.0 1905.43   2
  -4   0  -6 13081.8 1045.56  49
  -4   0  -6 11304.7 1535.52  42
  -4   0  -6 12504.4 1455.24  41
  -4   0  -7 236527. 5272.32  49
  -4   0  -7 250633. 7329.67  41
  -4   0  -7 244767. 9407.15   2
  -4   0  -8 6103.20 750.587  49
  -4   0  -8 7274.71 1818.47  42
  -4   0  -8 5277.29 1321.76  41
  -4   0  -9 35723.8 2574.79  41
  -4   0  -9 38813.6 3159.65  42
  -4   0 -10 66060.9 3267.46  42
  -4   0 -10 69772.7 3358.66  41
  -4   0 -11 6622.22 934.818  42
  -4   0 -11 5047.65 934.221  41
  -4   0 -12 79822.0 2455.13  42
  -4   0 -12 81864.6 2791.92  41
  -4   0 -13 6694.03 640.559  41
  -3   0  14 30555.0 1070.73  40
  -3   0  13 53909.3 1676.00  30
  -3   0  13 51325.2 1749.84  40
  -3   0  12 1796.00 493.132  40
  -3   0  12 2800.47 519.531  30
  -3   0  11 189731. 4233.54  30
  -3   0  11 181955. 4492.27  40
  -3   0  11 193478. 4564.87  33
  -3   0  10 39830.4 1680.00  30
  -3   0  10 37591.1 1932.73  40
  -3   0   9 141675. 3698.32  33
  -3   0   9 136845. 3501.52  51
  -3   0   9 143616. 4010.01  40
  -3   0   8 155586. 3812.32  33
  -3   0   8 150740. 3594.80  51
  -3   0   7 37614.8 1788.02  40
  -3   0   7 42523.5 2505.20  39
  -3   0   7 38801.6 1568.58  33
  -3   0   7 34555.8 1424.11  51
  -3   0   7 39307.3 3150.78   5
  -3   0   6 119851. 5423.14   5
  -3   0   5 14694.4 1796.77   5
  -3   0   4 346492. 9283.26   5
  -3   0   3 153658. 5610.08   5
  -3   0   2 47907.6 2884.70   5
  -3   0   1 523188. 11096.1   5
  -3   0   0 49665.9 1871.92  24
  -3   0   0 55719.0 2849.87   5
  -3   0  -1 25260.1 1815.15   5
  -3   0  -1 30204.0 1979.37   2
  -3   0  -1 26952.0 1326.11  24
  -3   0  -2 205773. 5570.64   5
  -3   0  -2 219510. 6088.84   2
  -3   0  -3 211997. 6290.61   2
  -3   0  -3 212716. 5300.23   5
  -3   0  -4 332589. 5750.37  13
  -3   0  -4 340633. 8705.22   2
  -3   0  -4 332481. 6568.99  25
  -3   0  -5 1886.27 397.802  13
  -3   0  -5 1434.12 672.999   2
  -3   0  -5 2323.45 644.384  25
  -3   0  -6 173352. 3938.00  13
  -3   0  -6 183122. 6744.64   2
  -3   0  -6 190133. 5132.65  25
  -3   0  -7 13359.7 1011.65  13
  -3   0  -7 13488.0 1936.93   2
  -3   0  -7 17195.4 1721.93  25
  -3   0  -7 16218.1 1608.12  41
  -3   0  -8 110693. 4443.24  41
  -3   0  -8 108260. 5611.73   2
  -3   0  -8 113970. 3259.70  13
  -3   0  -8 113617. 3353.41  49
  -3   0  -8 109577. 4425.52  25
  -3   0  -9 144316. 3808.98  13
  -3   0  -9 131286. 4815.29  25
  -3   0  -9 137440. 4940.38  41
  -3   0 -10 16819.1 1741.29  25
  -3   0 -10 16865.0 1727.44  41
  -3   0 -11 78333.1 3404.03  25
  -3   0 -11 86380.0 3575.23  41
  -3   0 -12 8771.28 1089.53  25
  -3   0 -12 7559.04 1082.55  41
  -3   0 -13 47782.9 2071.91  41
  -3   0 -14 18981.6 962.912  42
  -3   0 -14 19355.3 1038.68  41
  -2   0  15 41258.1 1200.87  30
  -2   0  14 73941.0 2156.70  30
  -2   0  14 79630.0 2146.60  40
  -2   0  13 2641.13 516.527  30
  -2   0  13 4152.17 754.333  40
  -2   0  12 154807. 3840.60  30
  -2   0  12 146454. 3902.56  40
  -2   0  11 4856.51 757.507  40
  -2   0  10 144364. 3762.73  33
  -2   0  10 147565. 3674.02  51
  -2   0  10 138006. 3523.34  26
  -2   0  10 149742. 4068.40  40
  -2   0   9 95762.0 2812.83  33
  -2   0   9 98075.9 2743.26  51
  -2   0   9 93788.6 2596.14  26
  -2   0   9 100190. 3165.63  40
  -2   0   8 105314. 6481.43   7
  -2   0   7 158287. 7810.92   7
  -2   0   7 152480. 5517.07   5
  -2   0   6 55129.9 4318.72   7
  -2   0   6 51989.3 2917.50   5
  -2   0   6 49896.6 2486.84   6
  -2   0   5 384481. 8168.71   6
  -2   0   5 403417. 9036.40   5
  -2   0   4 176181. 4723.71   6
  -2   0   4 176239. 5225.24   5
  -2   0   3 319292. 7230.44   5
  -2   0   3 305976. 6588.20   6
  -2   0   2 178834. 4441.26   6
  -2   0   2 183007. 4888.80   5
  -2   0   1 11824.3 862.394   2
  -2   0   1 10590.8 1021.65   5
  -2   0   0 115113. 3017.16   2
  -2   0   0 114156. 3395.76   5
  -2   0  -1 88190.3 2680.15   2
  -2   0  -1 86431.2 2770.03   5
  -2   0  -2 595211. 10337.0   2
  -2   0  -2 601963. 9954.87   5
  -2   0  -2 619068. 8469.03  13
  -2   0  -2 584621. 8890.69  10
  -2   0  -3 95170.5 2596.61   5
  -2   0  -3 95147.1 3232.28   2
  -2   0  -3 95217.7 1935.30  13
  -2   0  -4 145597. 4487.28   2
  -2   0  -4 145155. 2786.44  13
  -2   0  -4 151979. 3141.27  25
  -2   0  -5 378243. 8724.37   2
  -2   0  -5 361966. 6058.56  13
  -2   0  -6 1815.63 665.517   2
  -2   0  -6 2494.24 383.158  13
  -2   0  -7 56653.2 3385.85   2
  -2   0  -7 58713.6 1895.29  13
  -2   0  -8 26240.5 1320.67  13
  -2   0  -8 25041.2 2357.17   2
  -2   0  -9 83966.7 2591.34  13
  -2   0  -9 77940.0 2747.81  49
  -2   0 -10 138523. 6219.83   2
  -2   0 -10 139805. 3574.16  13
  -2   0 -10 129924. 4232.26  25
  -2   0 -11 12466.9 1223.05  25
  -2   0 -12 66588.5 2879.10  25
  -2   0 -13 16570.3 1320.94  25
  -2   0 -13 20308.6 1538.52  41
  -2   0 -14 60138.8 2166.60  41
  -2   0 -15 37665.2 1304.63  41
  -1   0  15 27594.8 1133.23  30
  -1   0  14 35192.4 1536.20  40
  -1   0  14 14070.3 1003.92  30
  -1   0  13 97754.9 2932.76  30
  -1   0  13 94184.5 2903.38  40
  -1   0  12 1142.66 589.729  40
  -1   0  11 201243. 4525.12  26
  -1   0  11 194563. 4861.50  40
  -1   0  10 9614.50 1840.76   7
  -1   0  10 10129.5 846.499  26
  -1   0  10 10405.5 1013.01  40
  -1   0   9 88841.0 5475.77   7
  -1   0   9 81052.2 2295.63  51
  -1   0   9 82311.2 2335.74  26
  -1   0   9 85957.4 2780.43  40
  -1   0   8 286961. 10234.5   7
  -1   0   7 21514.7 2644.41   7
  -1   0   6 315593. 6749.18   6
  -1   0   6 334964. 10739.9   7
  -1   0   6 313021. 6976.53   5
  -1   0   5 4288.83 1196.45   7
  -1   0   5 3492.17 563.060   6
  -1   0   5 3741.41 602.045   5
  -1   0   4 167953. 6302.79   7
  -1   0   4 167538. 4015.54   6
  -1   0   4 162668. 4063.62   5
  -1   0   3 247882. 5169.06   5
  -1   0   3 257371. 7384.50   7
  -1   0   3 263483. 5078.08   6
  -1   0   2 80980.8 2159.64   6
  -1   0   2 80511.6 2330.99   5
  -1   0   1 384506. 6221.97   6
  -1   0   1 396019. 6602.31   5
  -1   0   0 172.448 86.7259   2
  -1   0   0 54.6578 111.793   5
  -1   0  -1 393593. 6219.26   2
  -1   0  -2 27646.0 1202.94   2
  -1   0  -3 477746. 8210.77   2
  -1   0  -3 482358. 6735.69   5
  -1   0  -3 499937. 6861.08  15
  -1   0  -4 226083. 4988.08   2
  -1   0  -4 232636. 7261.13  11
  -1   0  -5 225178. 5546.52   2
  -1   0  -5 220601. 3741.38  13
  -1   0  -5 228853. 3835.14  15
  -1   0  -6 128749. 2643.04  13
  -1   0  -6 131686. 4335.98   2
  -1   0  -6 138995. 6818.72  11
  -1   0  -7 99866.0 3986.34   2
  -1   0  -7 93548.7 2288.27  13
  -1   0  -7 98094.2 6060.95  11
  -1   0  -8 179201. 3713.25  13
  -1   0  -8 178920. 5992.07   2
  -1   0  -9 89655.8 4393.07   2
  -1   0  -9 91406.5 2561.28  13
  -1   0 -10 10275.2 1520.74   2
  -1   0 -10 9158.44 823.789  13
  -1   0 -11 68607.8 2336.76  13
  -1   0 -12 2432.86 480.383  13
  -1   0 -13 144372. 4094.00  25
  -1   0 -15 9366.71 745.047  41
   0   0  15 48184.0 1575.29  30
   0   0  14 59987.6 2072.02  30
   0   0  13 46268.4 2012.85  40
   0   0  13 19117.3 1271.73  30
   0   0  12 96630.3 2981.67  30
   0   0  12 93608.5 3138.51  40
   0   0  11 1946.04 760.927  40
   0   0  11 703.378 379.975  31
   0   0  11 905.573 409.274  26
   0   0  10 118208. 3601.19  40
   0   0  10 125357. 6500.69   7
   0   0  10 124064. 3185.97  31
   0   0  10 124260. 3177.36  26
   0   0   9 45785.7 3849.01   7
   0   0   8 117595. 6159.10   7
   0   0   7 336160. 10757.4   7
   0   0   6 1413.97 480.686  19
   0   0   6 2532.54 928.763   7
   0   0   6 1546.28 502.827   6
   0   0   5 431278. 8268.40  19
   0   0   5 448980. 11975.0   7
   0   0   5 428100. 9371.45   6
   0   0   5 416520. 7337.22   5
   0   0   4 141902. 3585.68  19
   0   0   4 151601. 6278.93   7
   0   0   4 135763. 4708.82   6
   0   0   4 152130. 3126.89   5
   0   0   3 256860. 8119.56   7
   0   0   3 253404. 4138.99   5
   0   0   2 104227. 1844.86   5
   0   0  -1 111898. 1850.94   2
   0   0  -2 99809.6 2081.70   2
   0   0  -2 108540. 2309.56   9
   0   0  -3 252146. 4572.65   2
   0   0  -3 258263. 5023.93   9
   0   0  -4 152572. 3544.83   2
   0   0  -4 158847. 2537.01  15
   0   0  -4 159608. 4167.09   9
   0   0  -5 467396. 8366.90   2
   0   0  -5 470977. 6653.35  15
   0   0  -6 1841.28 226.155  15
   0   0  -6 1472.67 435.155   2
   0   0  -6 1605.65 957.316  11
   0   0  -6 1607.83 521.615   9
   0   0  -7 343590. 7702.94   2
   0   0  -7 345901. 5419.63  15
   0   0  -7 356465. 5639.64  13
   0   0  -7 341688. 11298.9  11
   0   0  -8 127083. 2580.04  15
   0   0  -8 125018. 4478.25   2
   0   0  -8 126754. 2791.16  13
   0   0  -8 132165. 7059.09  11
   0   0  -9 48783.5 2874.54   2
   0   0  -9 49223.0 1670.20  13
   0   0  -9 45077.7 4329.50  11
   0   0 -10 135636. 3259.72  13
   0   0 -10 130711. 7684.08  11
   0   0 -11 1310.48 1089.64  11
   0   0 -11 811.969 341.215  13
   0   0 -12 90390.0 2646.67  13
   1   0  15 5945.00 458.489  30
   1   0  14 118551. 2915.49  30
   1   0  14 110057. 2603.16  46
   1   0  13 154673. 3758.66  30
   1   0  13 149092. 3540.15  46
   1   0  12 2315.17 559.436  31
   1   0  12 2910.32 534.601  30
   1   0  11 65687.3 2373.53  31
   1   0  11 73935.6 2821.49  40
   1   0  10 7184.05 1628.29   7
   1   0  10 8145.02 777.923  31
   1   0  10 8738.43 747.327  26
   1   0   9 83524.1 5595.60   7
   1   0   9 86919.9 2424.86  31
   1   0   9 77841.6 2798.63  40
   1   0   8 159422. 7917.74   7
   1   0   7 97753.5 6224.53   7
   1   0   7 94693.9 4630.99   6
   1   0   7 93270.6 4145.62  19
   1   0   6 115763. 4264.92  19
   1   0   6 122400. 7339.17   7
   1   0   6 118925. 4806.41  23
   1   0   5 218082. 5561.15  19
   1   0   5 224221. 7909.17   1
   1   0   4 194103. 4628.96  19
   1   0   4 189630. 7246.01   1
   1   0   3 413421. 8462.50   1
   1   0   2 30706.3 1321.13   3
   1   0   1 372658. 6045.40   3
   1   0   0 149.671 133.710   3
   1   0  -2 80760.4 1377.47   2
   1   0  -3 268119. 4196.18   2
   1   0  -4 169504. 3310.65   2
   1   0  -5 3662.80 453.428   2
   1   0  -6 315465. 7707.08   9
   1   0  -6 338887. 6379.21   2
   1   0  -7 20215.7 1671.56  18
   1   0  -7 20610.2 1890.27   9
   1   0  -8 302029. 5057.40  13
   1   0  -8 294188. 8668.34   9
   1   0  -9 91824.2 2299.54  13
   1   0  -9 93659.5 6315.08  11
   1   0  -9 88792.0 4779.31   9
   1   0 -10 10206.6 734.304  13
   1   0 -10 11016.5 2324.11  11
   1   0 -11 209273. 4230.13  13
   1   0 -11 208046. 9837.12  11
   1   0 -12 382.637 356.880  14
   2   0  14 57214.3 1802.06  46
   2   0  13 16989.9 1090.10  46
   2   0  12 76577.5 2578.44  31
   2   0  11 15564.1 1136.51  31
   2   0  10 139615. 3564.39  31
   2   0   9 83700.0 6289.66   7
   2   0   9 78442.3 2406.80  31
   2   0   8 24525.8 2478.65  19
   2   0   8 25001.4 3714.90   7
   2   0   7 58618.9 3447.67  19
   2   0   7 52235.7 3553.25  23
   2   0   6 1916.51 706.585  23
   2   0   6 2199.47 732.932  19
   2   0   6 2460.86 1034.61   1
   2   0   5 367241. 8324.96  19
   2   0   5 341934. 10349.6   1
   2   0   4 135249. 4132.13  19
   2   0   4 148385. 5120.01   1
   2   0   3 92593.6 3014.96  19
   2   0   3 97650.1 3426.53   3
   2   0   2 634316. 10855.4  21
   2   0   2 576593. 10479.7   3
   2   0   1 87954.6 3018.66  21
   2   0   1 86235.5 2857.24   3
   2   0   0 112252. 3315.90   3
   2   0  -1 10947.6 1104.28  12
   2   0  -1 10300.7 956.541   3
   2   0  -2 183968. 4976.37  12
   2   0  -3 331602. 5524.14  14
   2   0  -3 321893. 7272.93  12
   2   0  -4 178406. 5089.08  12
   2   0  -4 185297. 3635.05  14
   2   0  -5 422391. 8914.39  12
   2   0  -6 54246.9 2702.97  12
   2   0  -7 155069. 5927.27   9
   2   0  -8 105879. 4913.35  18
   2   0  -8 105413. 5193.11   9
   2   0  -9 104849. 5089.44  18
   2   0  -9 100097. 3251.66  14
   2   0  -9 101113. 5419.92   9
   2   0 -10 149061. 4189.61  14
   2   0 -10 155356. 8631.15  11
   2   0 -10 151325. 6897.71   9
   2   0 -11 5819.78 780.130  14
   2   0 -12 136000. 3758.26  14
   3   0  14 19970.8 932.024  46
   3   0  13 54962.3 1923.40  46
   3   0  12 9995.57 957.514  46
   3   0  11 93168.3 2685.26  36
   3   0  11 100025. 2901.57  31
   3   0  10 16649.0 1111.84  36
   3   0  10 16300.7 1094.39  31
   3   0   9 134422. 3551.71  36
   3   0   9 139279. 3426.48  31
   3   0   8 107237. 5439.52  19
   3   0   8 102553. 2928.17  36
   3   0   8 101115. 2666.96  31
   3   0   7 13872.0 945.493  36
   3   0   7 11984.4 1711.61  19
   3   0   7 10989.9 1891.53  23
   3   0   6 163215. 7026.01  23
   3   0   6 169913. 6113.22  19
   3   0   5 1978.06 669.991  19
   3   0   5 1607.26 762.684   1
   3   0   4 338777. 8036.68  19
   3   0   4 367318. 9809.51   1
   3   0   3 196531. 5226.11  19
   3   0   3 208922. 6372.25   3
   3   0   2 196697. 6356.22  21
   3   0   2 208907. 6081.88   3
   3   0   2 191012. 4724.22  19
   3   0   1 26291.3 2130.69  21
   3   0   1 25998.2 1950.97   3
   3   0   0 55712.2 3084.98  22
   3   0   0 51426.1 3001.90  21
   3   0   0 57291.9 2912.74   3
   3   0  -1 557275. 11705.4  22
   3   0  -1 539444. 11291.6   3
   3   0  -1 561805. 11901.0  21
   3   0  -2 41577.8 2563.90  22
   3   0  -2 41402.4 2681.37  21
   3   0  -2 48560.5 2792.52   3
   3   0  -3 158272. 5253.90  22
   3   0  -3 166053. 5709.33  21
   3   0  -3 165602. 5632.15   3
   3   0  -4 349640. 8377.06  22
   3   0  -4 355047. 9162.66  21
   3   0  -4 353992. 9177.99   3
   3   0  -4 340426. 9104.07  12
   3   0  -5 14901.8 1717.05  12
   3   0  -5 13151.5 1378.30  22
   3   0  -5 13840.0 1642.60  21
   3   0  -5 13666.7 1692.34   3
   3   0  -6 133927. 5298.81  21
   3   0  -6 124453. 5384.89   3
   3   0  -7 42309.9 2867.30  21
   3   0  -7 39808.3 3054.38   3
   3   0  -7 44863.9 3401.91   9
   3   0  -8 165975. 6938.17  18
   3   0  -8 146540. 6076.70   3
   3   0  -8 163583. 7100.91   9
   3   0  -9 146078. 6752.77  18
   3   0  -9 158810. 7201.18   9
   3   0 -10 41364.9 3443.65  18
   4   0  13 6361.01 546.916  46
   4   0  12 95488.7 2641.50  46
   4   0  11 6762.72 683.458  36
   4   0  11 6414.69 757.350  46
   4   0  10 76217.9 2587.04  36
   4   0  10 84253.4 2720.37  46
   4   0   9 39669.1 1886.26  36
   4   0   8 4955.13 1450.14  23
   4   0   8 5880.63 777.722  36
   4   0   7 232858. 5177.90  36
   4   0   7 210316. 9361.43  23
   4   0   6 10071.1 2046.57  23
   4   0   6 10404.5 1548.72  19
   4   0   6 11379.3 961.699  36
   4   0   6 11133.2 975.625  29
   4   0   6 10375.7 1066.83  27
   4   0   5 172157. 8142.62   1
   4   0   5 172824. 5949.84  19
   4   0   5 164581. 3898.98  36
   4   0   5 171637. 4368.17  27
   4   0   5 165455. 4142.57  29
   4   0   5 169536. 4496.13  47
   4   0   4 58368.3 2106.39  35
   4   0   4 60397.5 2192.68  29
   4   0   4 57743.2 4243.73   1
   4   0   4 58677.7 2248.29  27
   4   0   3 196158. 7358.97   3
   4   0   2 223656. 7778.28   3
   4   0   1 5243.79 1325.47  21
   4   0   1 5017.37 1141.57   3
   4   0   0 120839. 5922.22  21
   4   0   0 117991. 5304.36   3
   4   0  -1 28873.2 2845.48  21
   4   0  -1 29859.6 2627.34   3
   4   0  -2 131046. 5814.67  22
   4   0  -2 131361. 6221.11  21
   4   0  -2 133538. 5814.02   3
   4   0  -3 102414. 5004.44  22
   4   0  -3 109152. 5587.61  21
   4   0  -3 110729. 5415.55   3
   4   0  -4 28334.0 2504.76  22
   4   0  -4 26478.1 2774.13  21
   4   0  -4 25945.7 2714.83   3
   4   0  -5 122958. 6097.11  21
   4   0  -5 117171. 5854.14   3
   4   0  -6 39176.6 3308.83  21
   4   0  -6 38626.0 3353.19   3
   4   0  -6 41883.9 3476.40   9
   4   0  -7 47448.8 3488.85  21
   4   0  -7 51819.4 4005.39   9
   4   0  -8 19123.8 2521.01  18
   4   0  -9 59693.3 4357.29  18
   5   0  11 57550.5 1701.48  36
   5   0  11 63758.1 1816.94  46
   5   0  10 13396.0 952.731  36
   5   0  10 13263.7 902.291  46
   5   0   9 56463.3 2175.48  36
   5   0   9 56842.7 2043.82  46
   5   0   8 125647. 3606.67  36
   5   0   8 128537. 3332.83  46
   5   0   7 6353.11 854.550  36
   5   0   7 4065.63 1395.45  23
   5   0   6 141507. 3866.11  36
   5   0   6 141936. 4228.05  29
   5   0   6 140315. 4365.54  27
   5   0   5 1602.63 499.630  36
   5   0   5 1404.19 556.648  29
   5   0   5 1025.70 509.231  47
   5   0   5 1633.68 661.944  27
   5   0   4 123058. 3392.18  36
   5   0   4 117179. 3752.90  29
   5   0   4 123487. 4176.17  47
   5   0   4 124924. 3881.18  27
   5   0   3 54869.4 4496.25   1
   5   0   3 51642.7 1965.17  36
   5   0   3 54482.9 2626.54  47
   5   0   3 50044.3 2286.20  29
   5   0   3 48629.8 2240.71  27
   5   0   2 28027.1 1365.78  36
   5   0   2 31740.6 1556.90  35
   5   0   2 31589.3 1738.31  29
   5   0   2 29840.8 1671.45  27
   5   0   2 26390.0 2973.54   3
   5   0   1 206322. 4262.38  36
   5   0   1 210935. 4542.27  35
   5   0   1 217006. 4954.54  27
   5   0   1 223234. 5110.61  29
   5   0   1 216953. 8693.52   3
   5   0   0 1070.31 294.554  35
   5   0   0 673.046 390.255  29
   5   0   0 831.357 364.724  27
   5   0   0 1411.55 828.543   3
   5   0  -1 151019. 7885.46  21
   5   0  -1 153540. 7230.39   3
   5   0  -1 144627. 3593.36  27
   5   0  -2 38752.8 3939.73  21
   5   0  -2 38193.7 3575.53   3
   5   0  -3 24184.2 3128.35  21
   5   0  -3 25915.1 1354.76  29
   5   0  -4 38501.8 3857.59  21
   5   0  -4 40351.9 1630.63  29
   5   0  -5 74432.3 5301.38  21
   5   0  -6 294918. 10345.2  21
   5   0  -6 295839. 10433.0  18
   5   0  -7 31089.6 3169.27  18
   6   0   9 7726.94 623.625  36
   6   0   8 60310.7 2025.63  36
   6   0   7 83999.7 2596.81  36
   6   0   6 1505.89 508.874  36
   6   0   5 52240.5 2078.50  36
   6   0   5 53609.3 2616.92  47
   6   0   5 52276.1 4609.64  23
   6   0   4 8822.36 2046.79  23
   6   0   4 9297.60 869.152  36
   6   0   4 8985.79 1074.70  29
   6   0   4 7762.33 1080.91  47
   6   0   4 10021.5 1107.26  27
   6   0   3 55465.3 2037.11  36
   6   0   3 54958.8 2531.82  29
   6   0   3 55595.0 2803.45  47
   6   0   3 54577.0 2425.64  27
   6   0   2 51006.1 1866.19  36
   6   0   2 48604.3 2223.71  27
   6   0   2 51406.8 2429.95  29
   6   0   2 51978.7 2719.78  47
   6   0   1 15832.1 1337.04  29
   6   0   1 16260.2 1232.47  27
   6   0   0 159811. 4366.56  29
   6   0   0 163097. 4889.26  47
   6   0   0 155710. 4029.45  27
   6   0  -1 21141.5 1429.59  29
   6   0  -1 24756.7 2014.81  47
   6   0  -1 21742.6 1264.39  27
   6   0  -2 90273.4 2937.81  29
   6   0  -2 92559.0 3376.26  47
   6   0  -3 32575.8 1579.24  29
   6   0  -3 34917.0 1964.19  47
   6   0  -4 11284.3 1158.05  47
   6   0  -5 165389. 4080.75  47
   6   0  -6 1488.64 405.183  47
   6   0  -7 70362.6 1986.00  50
   7   0   4 39719.3 1739.67  47
   7   0   3 53641.7 2328.03  47
   7   0   2 7390.93 829.987  50
   7   0   2 5495.65 825.110  47
   7   0   1 38447.1 1894.58  50
   7   0   1 36084.9 1975.33  47
   7   0   0 167.036 523.207  47
   7   0   0 1518.40 502.105  29
   7   0   0 1562.65 568.086  50
   7   0  -1 64031.1 2437.13  28
   7   0  -1 66717.3 2578.49  50
   7   0  -1 69734.4 2381.44  29
   7   0  -1 64479.2 2599.89  47
   7   0  -2 32047.5 1733.49  50
   7   0  -2 29648.9 1668.35  47
   7   0  -3 26178.6 1461.10  50
   7   0  -3 25784.0 1470.20  47
   7   0  -4 68053.1 2152.39  50
   7   0  -4 65765.9 2058.77  47
   7   0  -5 847.331 260.241  50
   7   0  -5 9279.24 826.314  28
  -7   1   3 42342.8 1973.33  39
  -7   1   2 2565.84 604.034  39
  -7   1   2 4465.05 674.386  49
  -7   1   1 30513.6 1799.19  39
  -7   1   1 38011.5 1740.72  49
  -7   1   0 23231.9 1537.41  39
  -7   1   0 31456.6 1572.77  49
  -7   1  -1 5942.67 806.608  39
  -7   1  -1 7550.01 817.367  49
  -7   1  -2 53670.8 2245.93  39
  -7   1  -2 72203.4 2415.52  49
  -7   1  -3 583.313 360.015  39
  -7   1  -3 718.036 364.312  49
  -7   1  -4 45465.3 1770.11  39
  -7   1  -4 42804.4 1471.91  49
  -6   1   9 54361.9 1596.62  33
  -6   1   8 16867.6 951.169  33
  -6   1   7 41452.4 1570.09  33
  -6   1   6 63978.7 2823.99  39
  -6   1   6 71983.3 2190.04  33
  -6   1   5 17759.6 1734.86  39
  -6   1   5 22169.4 1180.32  33
  -6   1   4 54071.6 3155.23  39
  -6   1   4 59378.3 1983.64  33
  -6   1   4 61965.3 2562.66  49
  -6   1   3 571.970 597.838  39
  -6   1   3 883.702 621.537  49
  -6   1   2 89429.1 3896.19  39
  -6   1   2 98632.5 3212.43  49
  -6   1   1 65679.3 3299.05  39
  -6   1   1 73913.2 2735.09  49
  -6   1   0 40867.2 2018.16  49
  -6   1  -1 140133. 3992.70  49
  -6   1  -2 5632.49 880.697  49
  -6   1  -3 93155.7 3228.23  49
  -6   1  -4 28030.5 1733.56  49
  -6   1  -4 20763.0 2005.08  41
  -6   1  -5 53615.6 2313.35  49
  -6   1  -5 40624.7 2684.65  41
  -6   1  -6 51811.9 2031.96  49
  -6   1  -6 44061.2 2628.81  41
  -6   1  -7 781.099 302.863  49
  -6   1  -7 202.764 603.777  41
  -6   1  -8 62380.8 2239.52  41
  -6   1  -9 5165.35 485.611  41
  -5   1  11 39012.1 1499.91  33
  -5   1  10 114657. 2708.97  40
  -5   1  10 122485. 3006.61  33
  -5   1   9 1076.26 342.102  40
  -5   1   9 2015.77 643.144  33
  -5   1   8 111688. 3085.18  33
  -5   1   8 111848. 3037.11  40
  -5   1   7 42033.7 2596.39  39
  -5   1   7 44320.8 1843.96  33
  -5   1   7 47870.1 1932.77  40
  -5   1   6 50624.5 1992.75  40
  -5   1   6 43264.8 2953.07  39
  -5   1   6 48052.6 1894.72  33
  -5   1   6 49297.0 2375.26  49
  -5   1   5 167019. 5894.85  39
  -5   1   5 160982. 3815.95  33
  -5   1   5 175451. 4595.36  49
  -5   1   4 2057.31 795.443  39
  -5   1   4 2105.74 424.223  33
  -5   1   4 1022.25 499.511  49
  -5   1   3 84859.2 3682.05  39
  -5   1   3 74546.4 2248.21  33
  -5   1   3 82549.4 2786.95  49
  -5   1   2 72444.4 2124.94  33
  -5   1   2 78455.2 2671.31  49
  -5   1   2 76632.8 4734.63   5
  -5   1   1 86468.0 2840.39  49
  -5   1   1 89983.6 4958.22   5
  -5   1   0 201807. 4723.17  49
  -5   1   0 183821. 7096.74   5
  -5   1  -1 5238.19 732.064  49
  -5   1  -1 5692.67 1020.48  41
  -5   1  -2 144487. 4002.02  49
  -5   1  -2 147154. 4987.72  41
  -5   1  -3 22147.9 1524.79  49
  -5   1  -3 22284.6 1958.34  41
  -5   1  -4 59895.4 2620.76  49
  -5   1  -4 58810.2 3316.52  41
  -5   1  -5 51461.3 2485.63  49
  -5   1  -5 44758.1 3059.82  41
  -5   1  -6 76454.3 3107.38  49
  -5   1  -6 68376.1 4108.73  41
  -5   1  -7 110308. 3551.81  49
  -5   1  -7 97799.0 5292.02  41
  -5   1  -8 2575.36 555.130  49
  -5   1  -8 2924.88 1140.41  41
  -5   1  -9 63809.6 2092.04  49
  -5   1  -9 64066.3 2940.30  41
  -5   1 -10 23416.6 1400.78  41
  -5   1 -11 27268.6 1177.73  41
  -4   1  13 36116.4 1172.53  40
  -4   1  12 19201.2 1013.33  40
  -4   1  11 64553.4 2249.48  33
  -4   1  11 51002.2 1920.84  40
  -4   1  10 184.234 334.263  40
  -4   1  10 2482.99 705.486  33
  -4   1   9 106502. 3119.84  33
  -4   1   9 106656. 2926.04  51
  -4   1   9 107274. 3182.29  40
  -4   1   8 3462.47 608.032  40
  -4   1   8 2998.18 554.951  33
  -4   1   8 5030.70 711.917  51
  -4   1   7 65605.8 3435.37  39
  -4   1   7 67807.0 2261.39  33
  -4   1   7 62279.0 2077.34  51
  -4   1   7 74856.9 4885.58   5
  -4   1   7 70296.2 2488.11  40
  -4   1   6 49593.5 1987.12  40
  -4   1   6 46737.1 2990.18  39
  -4   1   6 50168.0 1827.10  33
  -4   1   6 45973.6 1653.05  51
  -4   1   6 53419.9 4041.19   5
  -4   1   6 53468.7 2242.96  49
  -4   1   5 23552.9 1298.12  40
  -4   1   5 27342.5 2051.98  39
  -4   1   5 25942.2 1454.04  49
  -4   1   5 26665.7 1220.15  33
  -4   1   5 29258.9 2871.71   5
  -4   1   4 88074.4 3378.73  39
  -4   1   4 76791.0 4548.69   5
  -4   1   4 79008.5 2161.05  33
  -4   1   4 85375.9 2569.15  49
  -4   1   3 4934.42 1135.70   5
  -4   1   2 117630. 5246.57   5
  -4   1   1 75965.7 3984.54   5
  -4   1   0 49775.1 3083.28   5
  -4   1  -1 102026. 4374.40   5
  -4   1  -3 307898. 6072.86  49
  -4   1  -3 299188. 9973.28   2
  -4   1  -3 298489. 6876.77  41
  -4   1  -4 27484.0 1581.00  49
  -4   1  -4 23294.6 2686.02   2
  -4   1  -4 26590.3 1906.72  41
  -4   1  -5 67311.2 2704.63  49
  -4   1  -5 61798.4 4471.58   2
  -4   1  -5 60636.7 3214.60  41
  -4   1  -6 197549. 6799.33  41
  -4   1  -6 205290. 8644.31   2
  -4   1  -7 31211.9 1998.67  49
  -4   1  -7 30274.9 2865.95  41
  -4   1  -8 57514.5 2619.78  49
  -4   1  -8 51871.3 2932.39  42
  -4   1  -8 49175.1 3786.59  41
  -4   1  -9 4830.69 766.086  49
  -4   1  -9 5633.26 960.398  42
  -4   1  -9 4341.82 1228.20  41
  -4   1 -10 65106.9 2337.71  49
  -4   1 -10 64502.3 2538.23  42
  -4   1 -10 64078.3 3128.26  41
  -4   1 -11 58791.9 2016.81  42
  -4   1 -11 59894.3 2516.94  41
  -4   1 -12 11003.3 864.547  41
  -4   1 -13 38655.5 1220.85  41
  -3   1  14 19005.0 940.126  40
  -3   1  13 48196.6 1630.05  30
  -3   1  13 46009.8 1746.27  40
  -3   1  12 49132.0 1838.57  30
  -3   1  12 49148.7 2019.26  40
  -3   1  11 24721.3 1475.02  40
  -3   1  11 26640.0 1344.57  30
  -3   1  10 182174. 4235.66  51
  -3   1  10 184636. 4444.27  33
  -3   1  10 198572. 4161.82  30
  -3   1  10 191060. 4628.10  40
  -3   1   9 3629.79 630.048  40
  -3   1   9 4153.78 600.897  33
  -3   1   9 4205.55 630.716  51
  -3   1   8 232724. 4808.13  33
  -3   1   8 223004. 4638.14  51
  -3   1   8 228043. 8250.95   5
  -3   1   7 58178.6 1889.20  33
  -3   1   7 56836.5 1821.25  51
  -3   1   7 55717.4 3783.08   5
  -3   1   7 59681.6 2123.75  40
  -3   1   6 57011.3 3625.61   5
  -3   1   5 183813. 6430.12   5
  -3   1   4 2270.59 775.661   5
  -3   1   3 386495. 9353.59   5
  -3   1   2 131667. 4721.69   5
  -3   1   1 144664. 4936.77   2
  -3   1   1 140448. 4711.39   5
  -3   1   0 95039.0 3660.18   5
  -3   1   0 107892. 4588.22   2
  -3   1  -1 31977.5 1983.58   5
  -3   1  -1 35568.5 2504.40   2
  -3   1  -2 474308. 10877.3   2
  -3   1  -2 469129. 9109.38   5
  -3   1  -3 12114.7 1513.38   2
  -3   1  -3 13057.7 994.203  25
  -3   1  -4 223561. 7166.66   2
  -3   1  -4 214634. 5004.40  25
  -3   1  -5 213282. 7281.90   2
  -3   1  -5 208145. 5358.37  25
  -3   1  -6 27297.9 2624.57   2
  -3   1  -6 26821.3 2030.18  25
  -3   1  -7 88188.6 5083.44   2
  -3   1  -7 98720.8 3670.81  49
  -3   1  -7 93276.7 4664.89  41
  -3   1  -8 2558.59 679.899  49
  -3   1  -8 3190.02 1046.86   2
  -3   1  -8 2853.99 1144.34  25
  -3   1  -8 4224.94 1392.98  41
  -3   1  -9 129716. 4148.02  49
  -3   1  -9 123966. 4725.43  25
  -3   1  -9 123874. 5116.77  41
  -3   1 -10 72383.2 2828.47  49
  -3   1 -10 68918.5 3025.15  25
  -3   1 -11 19466.9 1296.07  49
  -3   1 -11 20140.2 1424.21  25
  -3   1 -11 23600.0 1951.53  41
  -3   1 -12 79247.3 2908.58  41
  -3   1 -13 4429.58 543.725  42
  -3   1 -13 2049.35 468.825  41
  -3   1 -14 61399.1 1634.88  41
  -2   1  15 1583.33 287.679  30
  -2   1  14 64689.3 2058.56  30
  -2   1  14 73223.1 2212.37  40
  -2   1  13 27901.7 1426.73  30
  -2   1  13 31202.6 1607.77  40
  -2   1  12 79659.5 2824.43  40
  -2   1  12 82467.5 2693.77  30
  -2   1  11 147400. 3669.13  30
  -2   1  11 142528. 3756.94  33
  -2   1  11 151553. 3708.74  51
  -2   1  11 145336. 3975.96  40
  -2   1  10 18960.2 2936.62   7
  -2   1  10 16123.6 1103.28  33
  -2   1  10 15636.7 1101.10  51
  -2   1  10 14780.7 1143.13  40
  -2   1   9 179544. 9498.72   7
  -2   1   9 175467. 3927.25  33
  -2   1   9 170768. 3818.50  51
  -2   1   9 187872. 4362.30  40
  -2   1   8 64487.7 5729.38   7
  -2   1   8 58347.9 3507.67   5
  -2   1   7 160101. 9055.76   7
  -2   1   7 143232. 5494.22   5
  -2   1   6 65291.5 5492.25   7
  -2   1   6 57835.3 3125.61   5
  -2   1   5 43847.1 4348.34   7
  -2   1   5 42545.6 2473.66   5
  -2   1   4 504633. 10062.4   5
  -2   1   3 18552.4 1436.25   5
  -2   1   2 516930. 9605.66   5
  -2   1   1 30470.4 1963.22   2
  -2   1   1 27451.4 1576.33   5
  -2   1   0 295430. 6104.53   5
  -2   1   0 305368. 6742.28   2
  -2   1  -1 578161. 10507.8   2
  -2   1  -1 579893. 9702.49   5
  -2   1  -2 23429.0 1578.19   2
  -2   1  -2 21938.3 1150.68   5
  -2   1  -3 453106. 9276.35   2
  -2   1  -3 462153. 7372.71   5
  -2   1  -3 454070. 6943.88  13
  -2   1  -4 68034.6 3107.96   2
  -2   1  -4 58280.9 1640.56  13
  -2   1  -5 69135.9 3378.82   2
  -2   1  -5 64298.2 1828.46  13
  -2   1  -6 60927.3 3408.95   2
  -2   1  -6 56729.8 1822.23  13
  -2   1  -7 12413.3 1682.01   2
  -2   1  -7 11375.4 867.455  13
  -2   1  -8 142316. 3504.59  13
  -2   1  -8 138536. 5994.90   2
  -2   1  -9 17133.0 2149.43   2
  -2   1  -9 14010.1 1341.86  49
  -2   1  -9 16133.7 1131.88  13
  -2   1 -10 101518. 3572.23  49
  -2   1 -10 97973.6 3680.24  25
  -2   1 -11 49287.8 2262.63  49
  -2   1 -11 48595.7 2459.29  25
  -2   1 -12 20985.1 1308.57  49
  -2   1 -12 20065.4 1447.75  25
  -2   1 -13 81044.4 2796.24  41
  -2   1 -14 3553.37 531.220  41
  -1   1  16 1127.49 220.254  30
  -1   1  15 69044.6 2032.38  30
  -1   1  14 7561.79 797.068  30
  -1   1  14 28710.3 1795.20  40
  -1   1  13 69037.0 2412.50  30
  -1   1  13 66623.3 2639.41  40
  -1   1  12 190132. 4421.53  30
  -1   1  12 178438. 4619.06  40
  -1   1  11 44520.4 1711.15  34
  -1   1  11 45444.5 1874.49  51
  -1   1  11 44985.4 2066.60  40
  -1   1  10 75149.0 5569.67   7
  -1   1  10 75301.5 2257.90  34
  -1   1  10 74830.4 2323.44  33
  -1   1  10 72182.2 2221.66  51
  -1   1  10 79601.5 2697.08  40
  -1   1   9 67228.8 5276.36   7
  -1   1   8 90050.8 6058.89   7
  -1   1   7 161031. 8277.72   7
  -1   1   7 152573. 5017.21   5
  -1   1   6 28803.5 3609.59   7
  -1   1   6 23659.1 1704.48   5
  -1   1   5 393478. 13235.1   7
  -1   1   5 407947. 6602.03   6
  -1   1   5 403922. 8130.25   5
  -1   1   4 25103.4 2932.90   7
  -1   1   4 22698.8 993.430   6
  -1   1   4 23990.9 1410.92   5
  -1   1   3 227213. 4801.74   5
  -1   1   3 227920. 3738.29   4
  -1   1   2 85239.7 2462.82   5
  -1   1   2 101361. 2364.10   4
  -1   1   1 231978. 5395.87   2
  -1   1   1 279793. 4891.65   5
  -1   1   0 462635. 7054.63   5
  -1   1   0 416573. 7591.49   2
  -1   1  -1 7130.46 671.617   2
  -1   1  -1 7173.76 490.353   5
  -1   1  -2 53274.9 1969.25   2
  -1   1  -2 51517.3 1143.86  13
  -1   1  -2 53590.1 1333.72   5
  -1   1  -3 21186.5 1308.36   2
  -1   1  -3 19073.3 672.689  13
  -1   1  -4 529252. 9689.08   2
  -1   1  -4 513527. 7553.77  13
  -1   1  -5 12847.1 1260.93   2
  -1   1  -5 12985.0 665.575  13
  -1   1  -5 15719.2 2564.66  11
  -1   1  -6 46027.9 2590.49   2
  -1   1  -6 43689.6 1418.13  13
  -1   1  -6 43396.5 4265.25  11
  -1   1  -7 349843. 8759.43   2
  -1   1  -7 343706. 5899.30  13
  -1   1  -8 286.961 495.470   2
  -1   1  -8 230.737 303.757  13
  -1   1  -8 351.097 1046.64  11
  -1   1  -9 143427. 5856.10   2
  -1   1  -9 146230. 3534.13  13
  -1   1 -10 18793.2 1178.65  13
  -1   1 -10 18266.1 2096.26   2
  -1   1 -11 122663. 3315.44  13
  -1   1 -12 86780.9 2811.85  14
  -1   1 -12 89426.0 2932.50  49
  -1   1 -13 1335.37 420.151  49
  -1   1 -13 220.359 555.333  25
  -1   1 -15 9990.06 636.021  41
   0   1  16 64674.9 1587.39  30
   0   1  15 4560.74 543.953  30
   0   1  14 107593. 2989.99  30
   0   1  13 70692.4 2511.51  30
   0   1  13 96033.8 3151.81  40
   0   1  12 42158.1 1881.04  30
   0   1  12 55158.2 2417.64  40
   0   1  11 51309.5 4481.72   7
   0   1  11 57363.5 2088.66  30
   0   1  11 53396.6 2336.38  40
   0   1  10 3995.39 1378.85   7
   0   1  10 4438.86 538.761  31
   0   1  10 6061.29 766.667  40
   0   1   9 106025. 6496.12   7
   0   1   8 26589.3 3186.44   7
   0   1   7 210402. 9025.88   7
   0   1   6 266498. 10038.4   7
   0   1   5 55240.9 4378.38   7
   0   1   5 59065.5 1711.06   6
   0   1   4 551601. 7989.71   6
   0   1   4 497345. 9575.77   5
   0   1   3 87891.8 1550.25   6
   0   1   3 81732.1 2689.32   5
   0   1   2 424545. 6715.42   4
   0   1   2 461947. 7944.00   5
   0   1   1 536738. 8056.62   4
   0   1   0 319898. 5981.01   2
   0   1  -1 418074. 6593.39   2
   0   1  -2 596.663 195.353   2
   0   1  -2 787.062 359.353   9
   0   1  -3 372787. 5252.74  13
   0   1  -3 363388. 6431.86   2
   0   1  -3 356216. 8046.11   9
   0   1  -4 90292.9 3436.07  18
   0   1  -4 78916.2 2511.24   2
   0   1  -4 77102.8 1415.85  15
   0   1  -4 76921.0 1553.37  13
   0   1  -4 86942.0 3793.31   9
   0   1  -5 404504. 6031.30  13
   0   1  -5 408706. 9144.26  18
   0   1  -5 400522. 7815.11   2
   0   1  -6 545006. 10364.3   2
   0   1  -6 568209. 8126.75  13
   0   1  -6 547380. 15175.5  11
   0   1  -7 5627.87 904.983   2
   0   1  -7 5489.32 493.857  13
   0   1  -7 5087.08 1552.94  11
   0   1  -8 444819. 7210.41  13
   0   1  -8 431003. 9880.88   2
   0   1  -8 433577. 14349.0  11
   0   1  -9 116601. 2911.88  13
   0   1  -9 124449. 7526.01  11
   0   1 -10 103169. 2793.91  13
   0   1 -10 105794. 7096.55  11
   0   1 -11 31060.5 1448.05  13
   0   1 -11 32414.4 3795.52  11
   0   1 -12 27943.6 1594.56  14
   0   1 -14 535.491 269.699  49
   1   1  15 71309.3 1969.19  30
   1   1  14 5060.76 613.381  30
   1   1  14 4288.88 500.053  46
   1   1  13 78364.0 2416.59  46
   1   1  13 80199.3 2559.64  30
   1   1  12 27257.5 1437.79  30
   1   1  12 27272.6 1392.22  46
   1   1  11 32625.1 1513.79  30
   1   1  11 32446.9 3641.18   7
   1   1  11 32405.5 1556.68  31
   1   1  10 176800. 8942.38   7
   1   1  10 180393. 3876.82  30
   1   1  10 174292. 3931.27  31
   1   1  10 168784. 4480.99  40
   1   1   9 1285.46 1056.55   7
   1   1   8 270018. 11520.1   7
   1   1   7 162711. 9114.40   7
   1   1   6 101185. 3738.08  19
   1   1   6 111025. 8421.87   7
   1   1   6 117638. 5610.21  23
   1   1   5 365188. 7570.88  19
   1   1   5 369523. 9322.43   1
   1   1   4 4011.04 549.285  19
   1   1   4 5256.02 890.400   1
   1   1   3 88600.9 2409.39  19
   1   1   2 64132.7 2057.37   4
   1   1   2 66824.7 1696.56   3
   1   1   1 174704. 3547.41   4
   1   1   0 262567. 4423.95   4
   1   1  -1 96243.9 1934.31   4
   1   1  -2 113381. 2435.80   2
   1   1  -2 109855. 2206.44  14
   1   1  -2 108391. 2574.56  12
   1   1  -3 23370.5 940.812   2
   1   1  -3 22987.8 1033.11  12
   1   1  -3 21527.8 1213.75   4
   1   1  -3 22878.7 1461.98   9
   1   1  -4 53664.2 1693.14   2
   1   1  -4 52794.6 1104.18  13
   1   1  -4 50908.5 1639.93  12
   1   1  -4 55114.5 2577.92   9
   1   1  -5 310084. 7373.81  18
   1   1  -5 322897. 5988.97   2
   1   1  -5 310099. 4710.50  13
   1   1  -5 317682. 7739.90   9
   1   1  -6 26078.6 2009.29  18
   1   1  -6 29727.4 961.130  13
   1   1  -6 29367.8 2304.54   9
   1   1  -7 220107. 6886.51  18
   1   1  -7 229381. 4000.22  13
   1   1  -7 215576. 7381.16   9
   1   1  -8 7468.46 570.358  13
   1   1  -8 7184.70 1381.92   9
   1   1  -9 169835. 3540.67  13
   1   1  -9 190309. 9434.76  11
   1   1 -10 51134.0 2231.49  14
   1   1 -10 52376.0 4946.84  11
   1   1 -11 80201.1 2891.08  14
   1   1 -12 88403.6 2975.92  14
   2   1  15 4811.99 421.555  46
   2   1  14 99660.2 2602.98  46
   2   1  13 29914.5 1474.22  46
   2   1  12 17665.8 1181.86  46
   2   1  11 164744. 3967.46  31
   2   1  10 1217.36 1199.20   7
   2   1  10 545.616 321.871  31
   2   1   9 291763. 5450.67  36
   2   1   9 281206. 13306.2   7
   2   1   9 292487. 5411.28  31
   2   1   8 87913.2 7998.87   7
   2   1   8 82652.5 5290.55  23
   2   1   7 116253. 4652.94  19
   2   1   7 120530. 6096.48  23
   2   1   6 179539. 5416.06  19
   2   1   6 176863. 8239.98   1
   2   1   6 173660. 6705.34  23
   2   1   5 15718.0 1724.07  23
   2   1   5 17187.1 1770.62   1
   2   1   5 13154.7 1248.93  19
   2   1   4 423783. 8066.10  19
   2   1   3 5002.65 590.126  19
   2   1   3 5771.76 732.992   3
   2   1   2 234026. 4465.75  19
   2   1   2 244554. 5240.11   3
   2   1   1 51706.2 2349.82  21
   2   1   1 52629.7 2116.12   3
   2   1   0 138688. 4029.99  21
   2   1   0 134901. 3779.32   3
   2   1  -1 142055. 4092.33  21
   2   1  -2 8883.85 926.464  21
   2   1  -2 9994.55 729.519  14
   2   1  -3 172386. 4745.53  21
   2   1  -3 179831. 3782.88  14
   2   1  -4 294862. 5421.74  14
   2   1  -4 279611. 6581.24  21
   2   1  -5 23800.1 1635.71  21
   2   1  -5 24739.6 1252.20  14
   2   1  -5 23091.0 2023.75   9
   2   1  -6 126059. 5042.57  18
   2   1  -6 121231. 3229.45  14
   2   1  -6 124829. 5198.86   9
   2   1  -7 5331.22 1155.92  18
   2   1  -7 5291.55 693.383  14
   2   1  -7 6385.84 1299.18   9
   2   1  -8 256346. 8544.17  18
   2   1  -8 254833. 5731.88  14
   2   1  -8 248806. 8889.20   9
   2   1  -9 2293.33 914.908  18
   2   1  -9 1611.95 506.667  14
   2   1  -9 1627.31 816.837   9
   2   1 -10 60665.3 2558.21  14
   2   1 -10 70092.5 5673.53  11
   2   1 -11 148664. 4153.19  14
   3   1  14 3355.73 462.660  46
   3   1  13 47049.5 1832.88  46
   3   1  12 63568.9 2327.82  46
   3   1  11 11331.0 935.715  36
   3   1  11 12163.5 1037.30  46
   3   1  10 157973. 3898.93  36
   3   1  10 148623. 3612.43  31
   3   1   9 6437.20 733.813  36
   3   1   9 5167.72 2191.94   7
   3   1   9 6790.62 645.627  31
   3   1   9 6224.11 1628.22  23
   3   1   8 132869. 3353.19  36
   3   1   8 124143. 2893.91  31
   3   1   8 130191. 7265.21  23
   3   1   7 42613.0 1643.52  36
   3   1   7 40718.7 3796.01  23
   3   1   6 120778. 6149.22  23
   3   1   6 134962. 4938.41  19
   3   1   5 223532. 6192.06  19
   3   1   5 244292. 7802.08   1
   3   1   4 15642.5 1312.66  19
   3   1   4 18217.2 1744.59   3
   3   1   3 594289. 10204.7  19
   3   1   3 571994. 11796.3   3
   3   1   2 8626.58 1134.06   3
   3   1   1 139872. 5238.74  21
   3   1   1 148649. 4868.17   3
   3   1   0 64610.7 3150.95   3
   3   1   0 59851.3 3271.41  21
   3   1  -1 70906.3 3524.50  21
   3   1  -1 71295.4 3432.81   3
   3   1  -2 312648. 7516.64  22
   3   1  -2 314623. 8338.45  21
   3   1  -2 338640. 8600.52   3
   3   1  -3 36035.2 2152.78  22
   3   1  -3 37529.3 2575.56  21
   3   1  -3 36626.9 1720.44  14
   3   1  -4 259255. 7436.45  21
   3   1  -4 253573. 5672.89  14
   3   1  -5 32213.6 2465.23  21
   3   1  -5 34484.7 1898.08  14
   3   1  -5 32763.3 2730.34   9
   3   1  -6 58853.0 3320.20  21
   3   1  -6 55574.6 2487.01  14
   3   1  -6 55161.7 3758.37   9
   3   1  -7 187384. 7532.02  18
   3   1  -7 194011. 5150.32  14
   3   1  -7 183319. 7630.29   9
   3   1  -8 20355.9 2495.70  18
   3   1  -8 16195.9 2124.17   3
   3   1  -8 19397.6 1536.09  14
   3   1  -8 19484.8 2513.37   9
   3   1  -9 238277. 9059.70  18
   3   1  -9 222582. 5672.98  14
   3   1  -9 232070. 9196.53   9
   4   1  13 24858.9 1129.05  46
   4   1  12 19633.6 1050.36  36
   4   1  12 23164.5 1246.74  46
   4   1  11 78310.8 2545.07  36
   4   1  11 85217.5 2661.43  46
   4   1  10 1285.48 477.246  36
   4   1  10 1197.37 466.042  46
   4   1   9 75937.4 2672.09  36
   4   1   9 77366.0 2550.76  46
   4   1   8 41624.5 1909.19  36
   4   1   8 41497.1 1748.72  46
   4   1   8 38775.7 4219.00  23
   4   1   7 86399.1 2762.51  36
   4   1   7 88403.6 2551.18  46
   4   1   7 87862.0 6166.48  23
   4   1   6 110611. 6608.24  23
   4   1   6 106358. 2705.38  46
   4   1   6 107952. 3038.51  36
   4   1   6 108111. 3341.83  29
   4   1   6 107556. 3769.90  47
   4   1   6 116134. 3540.72  27
   4   1   5 60142.0 2032.59  36
   4   1   5 57969.8 2253.61  29
   4   1   5 58541.5 2521.06  47
   4   1   5 62200.6 2342.07  27
   4   1   4 274162. 5182.16  36
   4   1   4 281561. 5675.54  29
   4   1   4 287501. 5704.60  27
   4   1   3 51962.2 3522.62   3
   4   1   2 168334. 6499.73   3
   4   1   1 75229.0 4188.38   3
   4   1   0 21859.5 2522.47  21
   4   1   0 23219.6 2335.27   3
   4   1  -1 299312. 9639.85  21
   4   1  -1 296460. 9206.60   3
   4   1  -2 15787.2 2166.45  21
   4   1  -2 19781.0 2290.80   3
   4   1  -3 215947. 8015.42  21
   4   1  -3 226657. 8461.51   3
   4   1  -4 28267.2 2819.12  21
   4   1  -4 31024.9 3178.11   3
   4   1  -4 30179.1 2780.27   9
   4   1  -5 100189. 5366.50  21
   4   1  -5 101739. 5901.61   3
   4   1  -5 100392. 5385.38   9
   4   1  -6 187683. 7257.39  21
   4   1  -6 180050. 7769.98  18
   4   1  -6 176720. 7968.19   3
   4   1  -6 189961. 7849.13   9
   4   1  -7 2526.02 1023.46  18
   4   1  -7 2494.81 1022.56   9
   4   1  -8 58228.4 4460.93  18
   4   1  -9 8388.98 1728.65  18
   5   1  11 7996.37 683.837  36
   5   1  11 7758.37 650.591  46
   5   1  10 61077.8 2169.46  36
   5   1  10 62908.5 2069.99  46
   5   1   9 1895.00 566.969  36
   5   1   9 1515.48 401.952  46
   5   1   8 112648. 3356.90  36
   5   1   8 116526. 3068.01  46
   5   1   7 138349. 3776.75  36
   5   1   7 127075. 7823.36  23
   5   1   6 48032.4 2038.02  36
   5   1   6 51979.7 2873.88  47
   5   1   5 95467.5 6530.61  23
   5   1   5 95647.7 2888.68  36
   5   1   5 98187.7 3431.51  29
   5   1   5 93347.0 3774.39  47
   5   1   5 100969. 3443.22  27
   5   1   4 74.2462 281.536  36
   5   1   4 309.850 432.466  29
   5   1   4 1416.15 698.251  47
   5   1   4 307.505 426.988  27
   5   1   3 102217. 2799.13  36
   5   1   3 110089. 3438.57  29
   5   1   3 111439. 3798.95  47
   5   1   3 97393.2 3176.84  27
   5   1   3 99682.4 5795.33   3
   5   1   2 52734.2 1807.33  36
   5   1   2 56033.4 2177.53  27
   5   1   2 53977.2 2274.45  29
   5   1   2 55963.0 2551.44  47
   5   1   2 58353.7 4345.83   3
   5   1   1 58166.0 2303.11  29
   5   1   1 63106.4 2632.58  47
   5   1   1 64012.6 4605.19   3
   5   1   1 59534.8 2146.52  27
   5   1   0 179131. 4311.11  29
   5   1   0 188926. 8131.54   3
   5   1   0 176438. 3974.66  27
   5   1  -1 1643.88 427.688  29
   5   1  -1 1344.49 911.387   3
   5   1  -2 115030. 3090.71  29
   5   1  -2 110724. 5512.53   9
   5   1  -3 1351.68 348.045  29
   5   1  -3 1835.35 823.215   9
   5   1  -4 164233. 7546.43  18
   5   1  -4 158943. 7058.76   9
   5   1  -5 107404. 6105.93  18
   5   1  -6 38010.3 3621.97  18
   5   1  -7 94095.7 5572.97  18
   6   1  10 1344.91 253.903  36
   6   1   9 46411.1 1632.48  36
   6   1   8 11117.1 863.769  36
   6   1   7 30631.6 1475.93  36
   6   1   6 24697.0 1357.15  36
   6   1   6 23718.3 1841.90  47
   6   1   5 13341.8 999.425  36
   6   1   5 14683.6 1541.25  47
   6   1   4 41389.4 4130.17  23
   6   1   4 44243.2 2555.84  47
   6   1   4 46218.7 1820.62  36
   6   1   4 48180.6 2306.90  50
   6   1   4 49424.6 2394.01  29
   6   1   3 734.844 877.929  23
   6   1   3 830.237 341.246  36
   6   1   3 1876.73 617.946  50
   6   1   3 1300.13 619.615  29
   6   1   3 546.944 717.017  47
   6   1   3 1295.58 495.040  27
   6   1   2 69639.3 2762.16  29
   6   1   2 72581.7 3157.72  47
   6   1   2 64175.7 2430.73  27
   6   1   1 46050.1 2151.56  29
   6   1   1 48759.4 2534.05  47
   6   1   1 45959.8 1912.11  27
   6   1   0 38562.0 1923.01  29
   6   1   0 43552.2 2396.53  47
   6   1   0 40687.3 1673.99  27
   6   1  -1 145981. 3872.87  29
   6   1  -1 141616. 4251.26  47
   6   1  -2 6450.34 1052.14  47
   6   1  -2 4226.24 619.441  29
   6   1  -3 53694.2 1899.81  29
   6   1  -3 54911.8 2332.33  47
   6   1  -4 40965.6 1888.43  47
   6   1  -5 84824.6 2496.25  47
   6   1  -6 57541.4 1926.50  50
   6   1  -8 51698.3 1527.55  28
   7   1   4 550.419 465.277  47
   7   1   3 65968.1 2410.38  50
   7   1   3 69584.0 2788.86  47
   7   1   2 16678.0 1248.81  50
   7   1   2 19152.8 1446.63  47
   7   1   1 29777.0 1684.72  50
   7   1   1 28502.3 1720.63  47
   7   1   0 60280.4 2456.82  47
   7   1   0 60173.2 2430.58  50
   7   1   0 56918.6 2248.98  28
   7   1  -1 6573.04 858.343  50
   7   1  -1 4523.39 655.695  47
   7   1  -2 84337.9 2796.17  50
   7   1  -2 78575.9 2629.18  47
   7   1  -2 75568.0 2621.08  28
   7   1  -3 11463.1 942.053  50
   7   1  -3 10865.9 845.265  47
   7   1  -4 25897.6 1200.81  50
   7   1  -4 32843.8 1483.01  28
   7   1  -5 28155.7 1171.72  28
  -7   2   3 9306.26 887.737  49
  -7   2   2 41027.5 1835.24  49
  -7   2   1 905.106 473.713  49
  -7   2   0 58236.1 2255.14  49
  -7   2  -1 28281.4 1314.64  39
  -7   2  -1 33198.7 1680.06  49
  -7   2  -2 12776.8 823.018  39
  -7   2  -2 13569.7 1096.98  49
  -7   2  -3 36631.8 1741.19  49
  -6   2   9 9184.99 713.214  33
  -6   2   8 40861.7 1524.10  33
  -6   2   7 964.416 361.998  33
  -6   2   6 82725.3 2457.22  33
  -6   2   5 34917.0 2169.28  39
  -6   2   5 36315.7 1553.41  33
  -6   2   5 36556.8 1969.18  49
  -6   2   4 18338.7 1671.89  39
  -6   2   4 20901.1 1185.97  33
  -6   2   4 20867.7 1504.69  49
  -6   2   3 56262.5 1969.43  33
  -6   2   3 59913.3 2507.57  49
  -6   2   2 559.016 525.346  39
  -6   2   2 279.221 555.460  49
  -6   2   1 92543.3 3559.70  39
  -6   2   1 108422. 3522.78  49
  -6   2   0 16788.9 1393.93  49
  -6   2  -1 75469.0 3019.43  49
  -6   2  -2 112370. 3809.93  49
  -6   2  -3 15962.6 1495.99  49
  -6   2  -4 94499.7 3557.13  49
  -6   2  -4 76278.7 3092.28  41
  -6   2  -5 4036.62 854.086  49
  -6   2  -5 2954.44 644.129  41
  -6   2  -6 41569.3 1966.32  49
  -6   2  -6 42339.6 1988.79  41
  -6   2  -7 26942.6 1310.08  49
  -6   2  -7 34678.0 1554.60  41
  -6   2  -8 10634.3 669.302  41
  -5   2  11 25601.3 1273.28  33
  -5   2  10 60898.0 2070.80  33
  -5   2   9 86010.2 2689.39  33
  -5   2   9 99416.3 2602.41  51
  -5   2   8 10298.2 923.726  33
  -5   2   8 17566.5 1112.47  51
  -5   2   7 97146.9 3859.66  39
  -5   2   7 100428. 2918.46  33
  -5   2   6 22103.5 1981.79  39
  -5   2   6 23343.9 1308.44  33
  -5   2   6 24921.6 1638.44  49
  -5   2   5 207669. 6343.02  39
  -5   2   5 206442. 4513.66  33
  -5   2   5 213056. 5185.03  49
  -5   2   4 69359.0 3180.42  39
  -5   2   4 68214.0 2235.65  33
  -5   2   4 76605.4 2777.16  49
  -5   2   3 3851.22 769.686  39
  -5   2   3 3516.20 510.957  33
  -5   2   3 4057.38 707.089  49
  -5   2   2 217841. 4504.39  33
  -5   2   2 228485. 5264.69  49
  -5   2   1 18892.4 1356.07  49
  -5   2   1 17399.8 1000.92  33
  -5   2   1 18273.9 1146.48  43
  -5   2   1 15172.1 1981.18   5
  -5   2   0 115848. 3137.31  43
  -5   2   0 109985. 3996.10  41
  -5   2  -1 65621.1 2673.94  49
  -5   2  -1 61816.6 2157.59  43
  -5   2  -2 45505.5 2302.73  49
  -5   2  -2 46414.8 1830.52  43
  -5   2  -3 102619. 3698.81  49
  -5   2  -3 81256.0 3681.74  41
  -5   2  -4 2712.22 750.380  49
  -5   2  -4 3474.07 906.733  41
  -5   2  -5 163680. 5246.02  49
  -5   2  -5 126246. 4751.99  41
  -5   2  -6 65295.9 3300.76  49
  -5   2  -6 52910.8 2931.93  41
  -5   2  -7 18054.2 1574.08  49
  -5   2  -7 17935.7 1656.77  41
  -5   2  -8 26957.0 1655.07  49
  -5   2  -8 31033.1 1904.31  41
  -5   2  -9 11362.4 894.602  49
  -5   2  -9 13658.7 1071.99  41
  -5   2 -10 66182.3 1950.77  41
  -4   2  13 61731.7 1539.43  40
  -4   2  12 1660.93 340.768  40
  -4   2  12 15908.8 1227.80  33
  -4   2  11 43109.3 1846.14  33
  -4   2  11 38658.1 1583.88  40
  -4   2  10 83528.5 2717.61  33
  -4   2  10 91522.0 2683.39  51
  -4   2  10 88172.1 2587.82  40
  -4   2   9 58317.4 2193.19  33
  -4   2   9 52009.6 1968.11  51
  -4   2   9 56155.5 2036.69  40
  -4   2   8 173317. 4104.14  33
  -4   2   8 161451. 3874.46  51
  -4   2   7 74978.5 3518.93  39
  -4   2   7 74881.9 2386.54  33
  -4   2   7 70617.7 2230.70  51
  -4   2   7 77734.1 2888.68  49
  -4   2   7 79273.7 5030.80   5
  -4   2   6 26986.2 2093.21  39
  -4   2   6 26798.2 1317.36  33
  -4   2   6 27498.9 1248.47  51
  -4   2   6 28516.8 1604.94  49
  -4   2   6 28832.1 2959.50   5
  -4   2   5 7382.50 985.590  39
  -4   2   5 7625.16 680.710  33
  -4   2   5 9130.44 856.777  49
  -4   2   5 8035.02 1568.55   5
  -4   2   4 72528.7 2086.34  33
  -4   2   4 72894.9 2390.11  49
  -4   2   4 75715.0 4449.95   5
  -4   2   3 133976. 3087.37  43
  -4   2   3 136647. 5875.34   5
  -4   2   2 4861.61 1111.35   5
  -4   2   1 181503. 6443.21   5
  -4   2   0 10215.2 1422.42   5
  -4   2  -1 141566. 5201.88   5
  -4   2  -2 39865.1 1886.79  49
  -4   2  -2 34887.5 3451.64   2
  -4   2  -3 24149.0 1814.16  41
  -4   2  -3 28457.3 1720.45  49
  -4   2  -3 30955.2 3266.95   2
  -4   2  -4 113051. 6343.49   2
  -4   2  -4 101704. 4166.97  41
  -4   2  -5 19009.8 1735.43  49
  -4   2  -5 15931.0 2378.36   2
  -4   2  -5 14929.2 1656.99  41
  -4   2  -6 119218. 4800.79  49
  -4   2  -6 89691.5 4199.78  41
  -4   2  -7 21257.7 1991.48  49
  -4   2  -7 14955.4 1771.13  41
  -4   2  -8 26073.6 1998.87  49
  -4   2  -8 26575.0 2187.90  41
  -4   2  -9 83254.9 3253.59  49
  -4   2  -9 88332.4 3476.91  41
  -4   2 -10 2553.68 563.402  49
  -4   2 -10 1799.35 590.084  41
  -4   2 -11 54427.4 1787.32  49
  -4   2 -11 54426.5 1971.51  41
  -4   2 -12 8927.79 618.541  41
  -3   2  14 74058.2 1940.25  40
  -3   2  13 3445.14 583.050  40
  -3   2  13-1.11467 305.613  30
  -3   2  12 65766.9 2112.35  30
  -3   2  12 63886.8 2218.53  40
  -3   2  11 53744.2 2145.73  33
  -3   2  11 60600.0 2196.69  51
  -3   2  11 56191.7 1945.15  30
  -3   2  11 53428.4 2093.02  40
  -3   2  10 67676.2 2402.92  33
  -3   2  10 69004.6 2318.39  51
  -3   2  10 70249.6 2423.60  40
  -3   2   9 132488. 3445.78  33
  -3   2   9 134463. 3401.76  51
  -3   2   9 144159. 3590.67  40
  -3   2   8 1371.54 355.052  40
  -3   2   8 402.702 315.239  51
  -3   2   8 1025.83 322.389  33
  -3   2   8 794.526 714.948   5
  -3   2   7 200784. 4062.84  33
  -3   2   7 198317. 3997.03  51
  -3   2   7 200256. 7544.74   5
  -3   2   6 26795.3 2502.48   5
  -3   2   5 143717. 5652.18   5
  -3   2   4 385470. 9636.83   5
  -3   2   3 60706.9 3258.47   5
  -3   2   2 337551. 8259.39   5
  -3   2   1 28342.9 2411.44   2
  -3   2   1 26212.0 1944.56   5
  -3   2   0 325876. 9667.90   2
  -3   2   0 335064. 7844.54   5
  -3   2  -1 218695. 5819.13   5
  -3   2  -1 221163. 7564.34   2
  -3   2  -2 96469.9 3388.92   5
  -3   2  -2 92593.7 4613.34   2
  -3   2  -3 137240. 5758.76   2
  -3   2  -4 823.534 541.390   2
  -3   2  -5 134963. 6084.32   2
  -3   2  -6 55591.4 3200.33  49
  -3   2  -6 48075.9 3725.90   2
  -3   2  -6 48241.9 2963.39  41
  -3   2  -7 112206. 4797.89  49
  -3   2  -7 119601. 6210.40   2
  -3   2  -7 107787. 4758.21  41
  -3   2  -8 54808.5 3116.37  49
  -3   2  -8 63198.8 3357.09  41
  -3   2  -9 2314.96 688.110  49
  -3   2  -9 9637.32 1420.06  41
  -3   2 -10 154323. 4617.86  49
  -3   2 -10 159492. 4676.44  41
  -3   2 -11 26784.0 1566.85  49
  -3   2 -11 28062.2 1681.61  41
  -3   2 -12 51606.7 1793.84  49
  -3   2 -12 51866.8 1963.30  41
  -3   2 -13 26518.2 1112.54  41
  -2   2  15 36322.9 1308.52  30
  -2   2  14 31981.4 1425.10  30
  -2   2  14 42670.1 1673.40  40
  -2   2  13 107507. 3014.96  30
  -2   2  13 103631. 3069.85  40
  -2   2  12 30882.7 1532.67  30
  -2   2  12 38866.3 1807.36  33
  -2   2  12 43876.6 1828.76  51
  -2   2  12 28961.9 1597.00  40
  -2   2  11 67942.2 2367.25  33
  -2   2  11 68963.2 2308.53  51
  -2   2  11 70357.3 2310.63  30
  -2   2  11 67496.8 2468.70  40
  -2   2  10 55211.6 5556.89   7
  -2   2  10 54200.7 2171.69  34
  -2   2  10 50555.9 1918.89  33
  -2   2  10 50866.3 1898.22  51
  -2   2  10 48978.8 1815.02  30
  -2   2  10 53760.1 2094.51  40
  -2   2   9 20845.7 3628.99   7
  -2   2   9 20285.1 1262.80  34
  -2   2   9 19168.3 1059.61  33
  -2   2   9 19108.4 1058.69  51
  -2   2   9 19279.8 993.338  30
  -2   2   9 19950.7 1163.42  40
  -2   2   8 222330. 12458.7   7
  -2   2   8 207170. 7352.03   5
  -2   2   7 2481.82 2056.31   7
  -2   2   7 2162.57 742.846   5
  -2   2   6 195848. 11727.0   7
  -2   2   6 187825. 6126.85   5
  -2   2   5 285252. 13721.1   7
  -2   2   5 293845. 7612.00   5
  -2   2   4 388102. 14335.5   7
  -2   2   4 377273. 8538.37   5
  -2   2   3 568268. 11056.2   5
  -2   2   3 606579. 10571.4   4
  -2   2   2 4495.68 729.753   5
  -2   2   1 492558. 11132.6   2
  -2   2   1 499735. 9280.08   5
  -2   2   0 7309.20 829.228   5
  -2   2   0 7497.31 1155.41   2
  -2   2  -1 167646. 4205.20   5
  -2   2  -1 166898. 5249.68   2
  -2   2  -2 403392. 9242.30   2
  -2   2  -2 424568. 7559.35   5
  -2   2  -3 122308. 4569.83   2
  -2   2  -4 226881. 6808.19   2
  -2   2  -5 1506.60 665.767   2
  -2   2  -6 227411. 7558.66   2
  -2   2  -7 154686. 6435.39   2
  -2   2  -7 139831. 4698.03  49
  -2   2  -8 26651.8 1851.18  49
  -2   2  -8 26759.7 2762.72   2
  -2   2  -8 24694.4 1645.85  45
  -2   2  -9 134604. 4044.53  45
  -2   2  -9 135283. 4272.44  49
  -2   2 -10 1119.04 587.338  49
  -2   2 -10 303.828 350.122  45
  -2   2 -11 69395.0 2644.76  49
  -2   2 -11 67091.3 2483.20  25
  -2   2 -12 8592.14 818.442  49
  -2   2 -12 9029.58 804.979  25
  -2   2 -13 32726.1 1277.40  49
  -2   2 -13 35941.2 1533.67  41
  -2   2 -14 35018.5 1196.25  41
  -1   2  16 31279.1 1101.95  30
  -1   2  15 21838.8 1119.68  30
  -1   2  14 67864.5 2329.16  30
  -1   2  14 91949.7 2782.61  40
  -1   2  13 12867.5 1037.42  30
  -1   2  13 26591.3 1632.73  40
  -1   2  12 172964. 4038.73  34
  -1   2  12 181981. 4178.42  30
  -1   2  12 160429. 3887.71  51
  -1   2  12 169388. 4334.23  40
  -1   2  11 14510.0 2680.22   7
  -1   2  11 14282.0 1028.37  34
  -1   2  11 14736.4 1017.57  30
  -1   2  11 15801.9 1029.04  51
  -1   2  11 14903.9 1117.54  40
  -1   2  10 15156.4 2839.77   7
  -1   2  10 13023.2 934.894  34
  -1   2  10 11956.6 830.104  51
  -1   2  10 12506.7 865.499  30
  -1   2  10 13199.6 1003.24  40
  -1   2   9 177229. 9538.95   7
  -1   2   8 16906.6 2983.04   7
  -1   2   7 436759. 15920.5   7
  -1   2   7 418009. 10092.1   5
  -1   2   6 400453. 16709.9   7
  -1   2   6 393038. 9011.08   5
  -1   2   5 90529.1 7809.14   7
  -1   2   5 89949.9 2558.67   4
  -1   2   5 91878.8 3480.95   5
  -1   2   4 434299. 7489.26   4
  -1   2   4 439362. 8663.39   5
  -1   2   3 13871.3 1002.76   4
  -1   2   3 13815.3 1985.04   7
  -1   2   3 13887.8 1127.61   5
  -1   2   2 218640. 4932.13   5
  -1   2   2 212529. 5694.43   4
  -1   2   1 31396.6 2038.51   2
  -1   2   1 32146.1 1575.03   5
  -1   2   0 280483. 5568.72   5
  -1   2   0 286005. 6832.97   2
  -1   2  -1 389103. 7925.35   2
  -1   2  -1 387587. 7060.04   5
  -1   2  -2 11886.7 1132.57   2
  -1   2  -2 15027.9 1607.86  11
  -1   2  -3 173122. 4797.47   2
  -1   2  -3 163482. 3002.95  13
  -1   2  -3 177410. 7526.54  11
  -1   2  -4 594.315 461.040   2
  -1   2  -4 521.692 194.236  13
  -1   2  -4 523.554 1080.08  11
  -1   2  -5 218023. 6170.58   2
  -1   2  -5 215860. 3965.33  13
  -1   2  -5 209998. 9450.89  11
  -1   2  -6 51666.7 3011.15   2
  -1   2  -6 50706.0 1635.82  13
  -1   2  -6 46999.1 4279.40  11
  -1   2  -7 89259.3 4318.44   2
  -1   2  -7 84094.9 2351.01  13
  -1   2  -7 77801.3 5516.87  11
  -1   2  -8 161396. 6346.11   2
  -1   2  -8 165185. 3780.14  13
  -1   2  -8 152492. 4319.90  45
  -1   2  -9 26504.3 2571.89   2
  -1   2  -9 26189.8 1638.77  45
  -1   2 -10 147574. 3878.33  14
  -1   2 -10 147528. 4091.66  45
  -1   2 -11 8753.59 871.309  14
  -1   2 -12 56782.0 2157.65  49
  -1   2 -13 39587.0 1534.79  49
  -1   2 -14 23996.7 879.852  49
   0   2  16 40532.3 1334.90  30
   0   2  15 39885.7 1565.31  30
   0   2  14 8482.27 826.620  30
   0   2  13 178163. 4284.20  30
   0   2  13 189708. 4714.11  40
   0   2  12 27533.6 1316.19  34
   0   2  12 26731.1 1444.43  30
   0   2  11 115295. 7380.57   7
   0   2  11 105753. 2797.56  34
   0   2  11 108330. 2970.54  30
   0   2  11 111672. 3336.23  40
   0   2  10 57620.5 5159.80   7
   0   2  10 51643.8 1772.47  34
   0   2  10 55742.6 1860.47  30
   0   2  10 55058.0 2121.09  40
   0   2   9 12550.2 2512.83   7
   0   2   8 227622. 10345.6   7
   0   2   7 4508.87 1638.95   7
   0   2   6 465164. 14393.7   7
   0   2   5 29064.8 3080.64   7
   0   2   5 28602.5 1555.38   4
   0   2   4 110271. 5528.99   7
   0   2   4 131664. 3429.68   4
   0   2   3 234299. 4847.84   4
   0   2   3 196658. 7005.01   7
   0   2   2 216.932 461.761   7
   0   2   2 311.138 229.168   4
   0   2   1 426041. 8406.99   4
   0   2   1 416872. 7931.68   7
   0   2   0 5767.25 798.964   2
   0   2   0 6171.62 916.825   4
   0   2  -1 625414. 10990.3   2
   0   2  -2 520936. 11281.4  18
   0   2  -2 514258. 9258.68   2
   0   2  -3 3473.32 819.890  18
   0   2  -3 2573.53 518.275   2
   0   2  -3 2751.33 252.103  13
   0   2  -4 648478. 11524.8   2
   0   2  -4 662449. 9381.84  13
   0   2  -5 79052.9 3128.98   2
   0   2  -5 75563.1 1793.14  13
   0   2  -6 280481. 8517.66  18
   0   2  -6 286950. 7221.01   2
   0   2  -6 281786. 4845.78  13
   0   2  -6 290747. 9837.68  11
   0   2  -7 296008. 7766.44   2
   0   2  -7 275426. 5013.29  13
   0   2  -7 281631. 10123.3  11
   0   2  -8 72185.3 2163.40  13
   0   2  -8 74160.5 3792.94   2
   0   2  -8 70252.6 5012.52  11
   0   2  -9 178820. 3947.21  13
   0   2  -9 161225. 7981.99  11
   0   2 -10 20863.7 1403.84  14
   0   2 -10 19930.7 2789.14  11
   0   2 -11 181415. 4573.91  14
   0   2 -11 180194. 4311.38  45
   0   2 -13 30893.7 1374.25  49
   0   2 -14 49347.4 1422.28  49
   1   2  15 4447.42 528.719  30
   1   2  14 46307.7 1816.70  30
   1   2  14 45677.3 1661.98  46
   1   2  13 16816.8 1134.79  30
   1   2  13 16067.1 1051.58  46
   1   2  12 114975. 3173.66  30
   1   2  12 112576. 3040.71  46
   1   2  11 70170.4 2287.66  30
   1   2  11 68279.6 2202.55  46
   1   2  10 107301. 7488.37   7
   1   2  10 101997. 2694.54  30
   1   2  10 106813. 2689.41  46
   1   2  10 112173. 3300.83  40
   1   2   9 216119. 10882.1   7
   1   2   8 4198.84 1756.34   7
   1   2   7 232347. 11403.1   7
   1   2   6 4610.28 1238.76  23
   1   2   6 6384.69 2371.04   7
   1   2   5 480862. 12062.8  23
   1   2   4 42021.0 1609.85   1
   1   2   4 41954.6 2066.33   4
   1   2   4 44250.9 2678.52  23
   1   2   3 572505. 9995.10   4
   1   2   3 565111. 8203.14   3
   1   2   2 568080. 9670.30   4
   1   2   1 464342. 8187.72   4
   1   2   1 474262. 8073.11   9
   1   2   0 272189. 5512.65   4
   1   2   0 262633. 5495.44   9
   1   2  -1 16669.5 1235.52   4
   1   2  -1 14531.4 774.094  14
   1   2  -2 15515.0 1459.69   4
   1   2  -2 15237.4 1289.18  18
   1   2  -2 16259.7 810.983  14
   1   2  -2 15492.1 1323.27   9
   1   2  -3 402940. 7706.37   2
   1   2  -3 401093. 6503.91  14
   1   2  -3 411469. 9135.13   9
   1   2  -3 390609. 8322.85   4
   1   2  -4 8908.50 1228.15  18
   1   2  -4 9502.29 451.475  13
   1   2  -4 9345.22 674.538  14
   1   2  -4 10573.4 953.579   2
   1   2  -4 10877.8 1104.66   4
   1   2  -4 10232.8 1361.91   9
   1   2  -5 304073. 8202.38  18
   1   2  -5 282558. 4515.45  13
   1   2  -5 286454. 5261.88  14
   1   2  -5 298208. 8465.80   9
   1   2  -6 94786.7 4552.84  18
   1   2  -6 93726.2 2644.58  14
   1   2  -6 90862.8 2050.84  13
   1   2  -6 93324.8 4834.72   9
   1   2  -7 108973. 5263.37  18
   1   2  -7 112420. 3162.02  14
   1   2  -7 111698. 2492.68  13
   1   2  -8 93203.7 3009.36  14
   1   2  -8 93153.9 2349.09  13
   1   2  -9 33552.7 1807.73  14
   1   2  -9 35175.2 3713.39  11
   1   2 -10 146083. 4112.52  14
   1   2 -10 150690. 7699.71  11
   1   2 -11 22688.8 1479.01  14
   1   2 -14 17518.8 782.578  49
   2   2  15 108079. 2464.93  46
   2   2  14 849.958 361.911  46
   2   2  13 66576.5 2273.12  46
   2   2  12 22367.1 1328.81  46
   2   2  12 26048.5 1313.45  30
   2   2  11 105160. 2966.27  46
   2   2  10 188529. 4219.23  36
   2   2  10 189787. 10975.1   7
   2   2  10 184851. 4133.30  46
   2   2   9 26284.5 1258.31  36
   2   2   9 24289.1 4163.42   7
   2   2   9 24096.2 1131.16  31
   2   2   8 382850. 18251.9   7
   2   2   8 489661. 15135.7  23
   2   2   7 2868.57 1179.31  23
   2   2   6 99032.2 5238.55  23
   2   2   5 192840. 5349.29   1
   2   2   5 169066. 6347.04  23
   2   2   4 305052. 8119.71  23
   2   2   4 328786. 6603.21   3
   2   2   3 410317. 7605.04   3
   2   2   2 25797.4 1402.86  18
   2   2   2 26596.6 1474.38   3
   2   2   2 26762.9 1231.13   9
   2   2   1 241989. 5428.88  18
   2   2   1 240813. 5130.53   9
   2   2   0 61583.8 2229.28   4
   2   2   0 60948.1 2398.15   9
   2   2  -1 261224. 6207.94  21
   2   2  -1 249621. 4844.33   4
   2   2  -1 247685. 5923.07   9
   2   2  -2 418589. 8710.64  21
   2   2  -2 438446. 7525.44  14
   2   2  -2 444661. 9251.03   9
   2   2  -3 2518.00 535.139  21
   2   2  -3 3531.00 792.649  18
   2   2  -3 3070.33 500.652  14
   2   2  -3 3178.70 818.713   9
   2   2  -4 199670. 5301.01  21
   2   2  -4 207557. 6433.66  18
   2   2  -4 186233. 4279.25  14
   2   2  -4 200334. 6462.49   9
   2   2  -5 7160.63 1278.59  18
   2   2  -5 7073.68 737.820  14
   2   2  -5 7986.59 1382.87   9
   2   2  -6 265182. 8394.23  18
   2   2  -6 247626. 5429.40  14
   2   2  -6 256894. 8543.15   9
   2   2  -7 110925. 5622.42  18
   2   2  -7 111193. 3411.33  14
   2   2  -7 115582. 5900.99   9
   2   2  -8 67694.5 4574.49  18
   2   2  -8 68841.1 2732.62  14
   2   2  -8 65456.3 4681.20   9
   2   2  -9 81269.4 5100.87  18
   2   2  -9 81396.8 3046.33  14
   2   2 -10 37842.4 1992.15  14
   2   2 -11 77345.0 2755.37  14
   3   2  15 7424.97 514.689  46
   3   2  14 41012.7 1533.85  46
   3   2  13 32.9617 385.037  46
   3   2  12 69559.2 2336.55  36
   3   2  12 72175.8 2483.80  46
   3   2  11 70535.5 2477.54  36
   3   2  11 74184.9 2514.86  46
   3   2  10 45025.8 1928.78  36
   3   2  10 44159.2 1853.45  46
   3   2   9 79825.0 2584.59  36
   3   2   9 72421.3 8147.83   7
   3   2   9 79278.0 2454.54  46
   3   2   9 75161.3 6074.92  23
   3   2   8 31384.7 1461.00  36
   3   2   8 30748.4 1365.73  46
   3   2   8 31756.9 3831.17  23
   3   2   7 208950. 4284.25  36
   3   2   7 204160. 9034.34  23
   3   2   6 25234.0 2824.80  23
   3   2   5 154437. 6538.06  23
   3   2   4 190362. 5792.05   3
   3   2   3 8996.90 1137.44   3
   3   2   2 235118. 5955.33  18
   3   2   2 251046. 6718.90   3
   3   2   2 253551. 5572.91   9
   3   2   1 6845.52 1047.04   3
   3   2   0 156574. 5412.43   3
   3   2  -1 89830.1 4146.85  21
   3   2  -1 100688. 4455.27   3
   3   2  -1 92022.8 3785.37   9
   3   2  -2 211902. 6715.98  21
   3   2  -2 222114. 6675.46   9
   3   2  -3 358137. 9220.72  21
   3   2  -3 365708. 9524.57   9
   3   2  -4 49700.2 3087.16  21
   3   2  -4 49631.5 3455.24  18
   3   2  -4 48592.2 2165.87  14
   3   2  -4 52020.1 3468.33   9
   3   2  -5 249795. 8601.80  18
   3   2  -5 245123. 5754.03  14
   3   2  -5 252377. 8538.50   9
   3   2  -6 28657.8 2914.94  18
   3   2  -6 28324.0 1766.24  14
   3   2  -6 29103.7 2930.52   9
   3   2  -7 153763. 7208.00  18
   3   2  -7 154274. 4572.37  14
   3   2  -7 154077. 7280.65   9
   3   2  -8 72178.2 5024.96  18
   3   2  -8 73811.6 3037.54  14
   3   2  -8 79439.2 5322.05   9
   3   2  -9 21260.1 2712.99  18
   3   2  -9 21890.3 1527.15  14
   4   2  14 414.295 195.883  46
   4   2  13 60824.2 1907.50  46
   4   2  12 8287.38 749.084  36
   4   2  12 9412.34 838.499  46
   4   2  11 43083.1 1875.64  36
   4   2  11 46248.9 1888.00  46
   4   2  10 52632.8 2169.63  36
   4   2  10 53194.8 2054.05  46
   4   2   9 28414.1 1570.45  36
   4   2   9 27195.6 1435.82  46
   4   2   9 24158.9 3631.37  23
   4   2   8 93133.4 2898.07  36
   4   2   8 86972.2 2624.44  46
   4   2   8 86445.1 6586.79  23
   4   2   7 11825.8 2402.76  23
   4   2   7 11197.5 1347.17  47
   4   2   7 12145.1 964.328  36
   4   2   7 10406.2 804.335  46
   4   2   6 85939.6 2592.93  36
   4   2   6 89644.9 3534.19  47
   4   2   6 87701.7 2383.79  46
   4   2   6 85292.4 5854.99  23
   4   2   5 54023.2 4391.08  23
   4   2   5 51980.2 1842.00  36
   4   2   5 56504.3 2231.55  29
   4   2   5 49985.6 2416.52  47
   4   2   5 54272.6 2143.86  27
   4   2   4 19686.9 1016.76  36
   4   2   4 21365.4 1265.47  29
   4   2   4 23163.9 1504.85  47
   4   2   4 20620.4 1198.22  27
   4   2   4 18936.0 2087.51   3
   4   2   3 144121. 6007.19   3
   4   2   2 38259.1 2966.25   3
   4   2   1 222825. 6983.41  18
   4   2   1 230592. 7876.73   3
   4   2   0 152506. 6487.37   3
   4   2   0 155035. 5482.75   9
   4   2  -1 126602. 6073.47   3
   4   2  -1 116765. 5027.04   9
   4   2  -2 236579. 8139.47  18
   4   2  -2 243226. 9133.50   3
   4   2  -2 238306. 7887.92   9
   4   2  -3 19639.4 2408.47  18
   4   2  -3 21580.4 2797.58   3
   4   2  -3 20265.3 2337.41   9
   4   2  -4 243745. 9089.53  18
   4   2  -4 242976. 8763.81   9
   4   2  -5 5482.27 1586.24  18
   4   2  -5 4520.62 1452.75   3
   4   2  -5 3960.04 1215.79   9
   4   2  -6 115736. 6400.02  18
   4   2  -6 119258. 6367.33   9
   4   2  -7 100712. 6078.78  18
   4   2  -8 7818.21 1740.49  18
   5   2  12 61606.0 1667.42  46
   5   2  11 12120.0 874.769  36
   5   2  11 12898.9 842.753  46
   5   2  10 54541.8 2074.61  36
   5   2  10 53697.0 1902.84  46
   5   2   9 42428.7 1910.93  36
   5   2   9 40121.3 1657.08  46
   5   2   9 37209.2 4051.45  23
   5   2   8 1537.76 1107.90  23
   5   2   8 2467.89 617.412  36
   5   2   7 233891. 5140.72  36
   5   2   7 238891. 7210.51  47
   5   2   6 17994.0 1198.27  36
   5   2   6 17773.3 1751.10  47
   5   2   6 14762.9 2742.48  23
   5   2   5 38999.8 4204.72  23
   5   2   5 38774.8 1709.19  36
   5   2   5 41782.0 2196.21  29
   5   2   5 37568.0 2391.22  47
   5   2   5 41181.0 2166.07  50
   5   2   4 100723. 6429.18  23
   5   2   4 99596.0 2788.51  36
   5   2   4 103925. 3492.44  50
   5   2   4 101448. 3423.33  29
   5   2   4 99326.4 3808.42  47
   5   2   4 100918. 3226.68  27
   5   2   3 12656.2 859.888  36
   5   2   3 12342.4 1123.04  29
   5   2   3 13701.2 1370.20  47
   5   2   3 12336.5 1033.97  27
   5   2   2 158128. 4115.82  29
   5   2   2 154296. 4482.68  47
   5   2   2 147664. 7118.00   3
   5   2   2 150764. 3723.59  27
   5   2   1 20465.2 1304.51  29
   5   2   1 18752.3 1436.73  47
   5   2   1 20694.5 2634.10   3
   5   2   1 19654.3 1111.60  27
   5   2   0 116122. 5699.59  18
   5   2   0 120329. 3302.68  29
   5   2   0 121528. 6638.14   3
   5   2   0 117734. 3590.05  47
   5   2  -1 105433. 5676.79  18
   5   2  -1 114835. 3104.28  29
   5   2  -1 105080. 3292.23  47
   5   2  -2 37687.5 3452.22  18
   5   2  -2 42556.6 1705.98  29
   5   2  -2 40909.0 1889.99  47
   5   2  -2 34925.5 3058.99   9
   5   2  -3 128248. 6694.49  18
   5   2  -3 124680. 3459.42  47
   5   2  -3 137489. 6502.15   9
   5   2  -4 1276.00 930.847  18
   5   2  -4 761.808 335.914  47
   5   2  -5 72409.3 5129.42  18
   5   2  -6 9491.75 1914.35  18
   5   2  -8 70885.1 2125.90  28
   6   2   9 1675.35 375.349  36
   6   2   8 28081.5 1336.57  36
   6   2   7 221.745 328.731  36
   6   2   7 242.811 675.460  47
   6   2   6 71947.6 2313.96  36
   6   2   6 71634.1 3504.05  47
   6   2   5 17184.6 1068.68  36
   6   2   5 15867.7 1675.42  47
   6   2   5 17585.8 2753.21  23
   6   2   4 27979.6 1316.94  36
   6   2   4 27160.5 1825.01  50
   6   2   4 27222.2 2022.31  47
   6   2   4 24232.9 3115.35  23
   6   2   3 57904.1 4633.75  23
   6   2   3 59093.6 2671.07  50
   6   2   3 58689.2 2885.98  47
   6   2   2 173.910 744.335  23
   6   2   2 805.286 634.171  50
   6   2   2 493.288 486.287  29
   6   2   2 424.227 640.785  47
   6   2   1 71822.7 4816.87  23
   6   2   1 82208.0 2877.57  29
   6   2   1 78279.4 3187.57  47
   6   2   1 89442.7 3299.33  28
   6   2   0 11884.4 1862.59  23
   6   2   0 13578.9 1102.94  29
   6   2   0 12209.1 1262.32  47
   6   2  -1 67931.9 2403.64  29
   6   2  -1 67325.1 2711.75  47
   6   2  -2 18326.9 1361.13  47
   6   2  -3 20989.1 1453.17  50
   6   2  -3 19919.4 1333.94  47
   6   2  -4 102614. 3106.71  50
   6   2  -4 106063. 2916.19  47
   6   2  -5 1673.73 424.668  50
   6   2  -6 56895.0 2015.07  28
   6   2  -7 28327.4 1205.90  28
   7   2   5 28881.3 1763.14  47
   7   2   4 40445.0 2106.76  47
   7   2   3 13101.5 1201.80  47
   7   2   3 11826.1 1042.00  50
   7   2   2 77782.2 2792.66  50
   7   2   2 84272.7 3021.66  47
   7   2   1 7417.57 890.376  50
   7   2   1 7933.19 930.272  47
   7   2   0 52921.9 2191.91  47
   7   2   0 51796.6 2203.59  50
   7   2  -1 21084.0 1375.53  50
   7   2  -1 21260.0 1317.20  47
   7   2  -1 22400.3 1373.78  28
   7   2  -2 29735.7 1536.13  28
   7   2  -2 31329.3 1604.00  50
   7   2  -2 31765.3 1478.53  47
   7   2  -3 40402.3 1599.31  50
   7   2  -3 35972.6 1315.26  47
   7   2  -4 4673.78 558.475  28
  -7   3   3 15017.1 1024.98  49
  -7   3   2 17460.3 1158.71  49
  -7   3   1 36892.7 1727.23  49
  -7   3   0 801.781 414.304  49
  -7   3  -1 43310.4 1859.48  49
  -7   3  -2 8103.26 786.110  49
  -7   3  -3 18598.8 1021.63  49
  -6   3   9 15917.3 880.376  33
  -6   3   8 27496.8 1246.50  33
  -6   3   7 57625.9 1967.17  33
  -6   3   6 528.568 335.773  33
  -6   3   5 78140.4 2427.46  33
  -6   3   5 73497.4 2789.29  49
  -6   3   4 18431.0 1147.44  33
  -6   3   4 18748.0 1410.10  49
  -6   3   3 29177.7 1457.09  33
  -6   3   3 27609.3 1748.29  49
  -6   3   2 26682.8 1378.08  33
  -6   3   2 24971.5 1669.93  49
  -6   3   1 35140.4 2058.82  49
  -6   3   0 89427.8 3373.52  49
  -6   3  -1 3838.52 971.723  49
  -6   3  -2 105755. 3920.03  49
  -6   3  -3 25924.9 1997.70  49
  -6   3  -4 16217.3 1632.23  49
  -6   3  -5 48127.6 2692.79  49
  -6   3  -5 53981.5 1922.65  41
  -6   3  -6-84.7470 350.775  49
  -6   3  -7 31907.8 1208.29  49
  -5   3  12 28050.7 1097.85  33
  -5   3  11 79428.7 2221.41  33
  -5   3  10 1923.53 509.064  33
  -5   3  10 20549.3 1130.76  51
  -5   3   9 88754.8 2668.99  33
  -5   3   9 83892.1 2417.91  51
  -5   3   8 61930.9 2264.03  33
  -5   3   8 62953.5 2087.93  51
  -5   3   7 12685.8 1027.23  33
  -5   3   6 161904. 3939.55  33
  -5   3   6 158969. 4418.56  49
  -5   3   5 44098.6 1839.28  33
  -5   3   5 43267.4 2110.50  49
  -5   3   4 195213. 4399.62  33
  -5   3   4 191172. 4870.66  49
  -5   3   3 128450. 3822.73  49
  -5   3   3 125231. 3298.87  33
  -5   3   2 62312.9 2588.38  49
  -5   3   2 62346.4 2313.23  43
  -5   3   1 160658. 4506.89  49
  -5   3   1 159484. 4056.00  43
  -5   3   0 5280.74 880.792  49
  -5   3   0 5170.20 727.646  43
  -5   3  -1 115625. 4025.81  49
  -5   3  -1 121332. 3535.18  43
  -5   3  -1 115656. 3794.81  41
  -5   3  -2 12705.8 1099.89  43
  -5   3  -2 10004.3 1243.30  49
  -5   3  -2 9779.40 1090.77  41
  -5   3  -3 101974. 4132.45  49
  -5   3  -3 102278. 3130.64  43
  -5   3  -3 92042.2 3449.39  41
  -5   3  -4 118357. 4730.99  49
  -5   3  -4 110403. 3792.75  41
  -5   3  -5 937.766 1109.22  49
  -5   3  -5 2674.34 649.886  41
  -5   3  -6 41204.6 3048.64  49
  -5   3  -6 43957.1 2168.71  41
  -5   3  -7 8510.23 1158.62  49
  -5   3  -7 9707.12 968.861  41
  -5   3  -8 56116.8 2256.98  49
  -5   3  -8 67304.5 2231.17  41
  -5   3  -9 13385.5 832.916  49
  -5   3  -9 14116.6 819.846  41
  -4   3  12 56502.1 1994.91  33
  -4   3  12 74390.1 2293.95  51
  -4   3  11 2012.46 539.320  33
  -4   3  11 7968.76 1057.99  51
  -4   3  10 137191. 3587.44  33
  -4   3  10 134120. 3447.82  51
  -4   3   9 78788.7 2533.63  51
  -4   3   9 82209.6 2642.38  33
  -4   3   8 17400.4 1174.30  33
  -4   3   8 17023.0 1091.35  51
  -4   3   7 97256.3 2818.07  33
  -4   3   7 96774.1 2717.08  51
  -4   3   7 98692.1 3246.18  49
  -4   3   6 5501.81 585.204  51
  -4   3   6 6930.58 715.710  33
  -4   3   6 5981.64 762.737  49
  -4   3   6 7221.08 1520.00   5
  -4   3   5 170968. 3814.41  33
  -4   3   5 173669. 4176.60  49
  -4   3   5 160200. 3528.71  51
  -4   3   5 181055. 7348.21   5
  -4   3   4 5303.13 659.175  49
  -4   3   4 5178.29 595.846  43
  -4   3   4 5659.88 1312.26   5
  -4   3   3 144405. 3637.84  49
  -4   3   3 139001. 3333.96  43
  -4   3   3 149738. 6226.87   5
  -4   3   2 175282. 4178.00  49
  -4   3   2 176333. 3856.74  43
  -4   3   2 174922. 6660.30   5
  -4   3   1 13919.2 1054.63  49
  -4   3   1 12082.6 873.402  43
  -4   3   1 12946.6 1723.27   5
  -4   3   0 183504. 4547.60  49
  -4   3   0 185239. 4091.86  43
  -4   3   0 179972. 6366.91   5
  -4   3  -1 2940.54 625.551  49
  -4   3  -1 3890.71 1293.86   2
  -4   3  -1 2412.75 450.863  43
  -4   3  -2 34987.9 3619.15   2
  -4   3  -2 34104.1 2031.52  49
  -4   3  -2 37166.7 1713.52  43
  -4   3  -2 30994.5 1781.84  41
  -4   3  -3 11975.5 1336.22  49
  -4   3  -3 8881.19 1861.76   2
  -4   3  -3 11302.7 997.160  43
  -4   3  -3 9293.43 1023.90  41
  -4   3  -4 65999.2 4997.49   2
  -4   3  -4 59819.2 3255.58  49
  -4   3  -4 68817.5 2510.54  43
  -4   3  -4 55902.2 2663.73  41
  -4   3  -5 163210. 6152.01  49
  -4   3  -5 150053. 4738.39  41
  -4   3  -6 542.972 1023.95  49
  -4   3  -6 1319.02 577.747  41
  -4   3  -7 71162.2 3708.19  49
  -4   3  -7 74402.0 3179.95  41
  -4   3  -8 10059.9 1255.39  49
  -4   3  -8 10052.8 1113.58  41
  -4   3  -9 31122.9 1743.10  49
  -4   3  -9 32303.9 1700.64  41
  -4   3 -10 48353.5 1836.15  49
  -4   3 -10 50878.2 1855.09  41
  -4   3 -11 6692.36 507.526  49
  -4   3 -11 7558.76 570.970  41
  -3   3  14 35321.0 1229.88  40
  -3   3  13 58467.3 1855.79  30
  -3   3  13 60607.7 1894.54  40
  -3   3  12 1698.70 445.425  40
  -3   3  12 1128.55 330.888  30
  -3   3  11 66638.2 2393.78  33
  -3   3  11 69491.7 2380.18  51
  -3   3  11 69259.1 2146.60  30
  -3   3  11 72422.4 2268.88  40
  -3   3  10 8370.28 826.076  33
  -3   3  10 9263.36 843.867  51
  -3   3  10 8727.88 754.251  40
  -3   3   9 151386. 3720.89  51
  -3   3   9 155608. 3767.62  33
  -3   3   9 164624. 7442.59   5
  -3   3   9 164472. 3612.10  40
  -3   3   8 151097. 3549.29  33
  -3   3   8 152355. 3534.10  51
  -3   3   8 158692. 7077.64   5
  -3   3   7 36272.2 1436.40  51
  -3   3   7 37978.5 1479.35  33
  -3   3   6 193511. 7204.25   5
  -3   3   5 10052.2 1515.35   5
  -3   3   4 303646. 8650.24   5
  -3   3   3 178028. 6079.44   5
  -3   3   2 180519. 5938.15   5
  -3   3   2 181379. 6876.59   4
  -3   3   1 188745. 5958.60   5
  -3   3   0 18102.2 2314.10   2
  -3   3   0 13832.7 1466.24   5
  -3   3  -1 229303. 8497.32   2
  -3   3  -1 250879. 6618.98   5
  -3   3  -2 75734.7 4654.80   2
  -3   3  -3 168974. 7091.81   2
  -3   3  -4 101136. 5485.27   2
  -3   3  -5 2655.53 1026.65   2
  -3   3  -5 1524.34 663.189  49
  -3   3  -5 3115.24 706.719  41
  -3   3  -6 269586. 7695.12  49
  -3   3  -6 271722. 6745.03  41
  -3   3  -7 4601.65 976.741  49
  -3   3  -7 9567.01 1302.15  41
  -3   3  -8 73486.0 3229.22  49
  -3   3  -8 79893.9 3261.69  41
  -3   3  -9 56282.0 2563.73  49
  -3   3  -9 61840.1 2628.27  41
  -3   3 -10 20978.7 1391.23  49
  -3   3 -10 22422.8 1464.90  41
  -3   3 -11 64385.5 2161.85  49
  -3   3 -11 67172.0 2216.41  41
  -3   3 -12 2770.15 366.085  49
  -3   3 -12 3026.73 406.770  41
  -2   3  15 54469.1 1666.64  30
  -2   3  14 18804.1 1096.82  30
  -2   3  14 37752.4 1543.09  40
  -2   3  13 18290.7 1139.36  30
  -2   3  13 24356.6 1331.49  40
  -2   3  12 79834.8 2529.16  51
  -2   3  12 79843.7 2507.58  30
  -2   3  12 78708.1 2528.73  40
  -2   3  11 536.732 341.449  40
  -2   3  11 369.405 412.717  34
  -2   3  11 359.440 298.300  33
  -2   3  11 291.627 280.540  30
  -2   3  11 273.270 351.481  51
  -2   3  10 141199. 9875.39   7
  -2   3  10 143409. 3986.34  34
  -2   3  10 132959. 3316.15  33
  -2   3  10 128989. 3302.89  51
  -2   3  10 133345. 3214.26  30
  -2   3  10 134044. 3353.38  40
  -2   3   9 18438.7 3890.32   7
  -2   3   9 21947.6 1407.66  34
  -2   3   9 23673.0 1145.99  33
  -2   3   9 21474.9 1127.24  51
  -2   3   9 19550.3 1008.11  30
  -2   3   9 24043.6 2658.95   5
  -2   3   9 21389.6 1102.63  40
  -2   3   8 137070. 10799.0   7
  -2   3   8 170762. 6907.47   5
  -2   3   7 120414. 9585.91   7
  -2   3   7 135874. 5715.56   5
  -2   3   6 1351.88 1339.32   7
  -2   3   6 1949.98 712.348   5
  -2   3   5 325896. 12511.8   7
  -2   3   5 337640. 8644.28   5
  -2   3   4 5839.87 811.240   4
  -2   3   4 5133.15 984.100   5
  -2   3   3 158776. 5078.29   5
  -2   3   3 150677. 5282.55   4
  -2   3   2 71691.5 3167.91   5
  -2   3   2 74696.3 3934.96   4
  -2   3   1 441711. 10876.6   2
  -2   3   1 463378. 9408.33   5
  -2   3   0 263714. 8139.56   2
  -2   3   0 268909. 6432.52   5
  -2   3  -1 103341. 3614.01   5
  -2   3  -1 104748. 4755.07   2
  -2   3  -2 420267. 10445.2   2
  -2   3  -3 183944. 6469.90   2
  -2   3  -4 175152. 6542.86   2
  -2   3  -5 367942. 10367.6   2
  -2   3  -6 8944.49 1107.96  49
  -2   3  -6 7737.33 1499.08   2
  -2   3  -7 203009. 5363.07  49
  -2   3  -7 203725. 5793.33  45
  -2   3  -7 216584. 8299.45   2
  -2   3  -8 67749.9 2794.58  49
  -2   3  -8 64101.5 2943.50  45
  -2   3  -9 67506.3 2741.83  49
  -2   3  -9 73330.0 2972.32  45
  -2   3 -10 36796.7 1885.09  49
  -2   3 -10 38349.3 1966.93  45
  -2   3 -11 16386.6 1144.62  49
  -2   3 -12 74473.2 2222.64  49
  -2   3 -12 81681.7 2383.65  41
  -2   3 -13 1525.36 260.095  49
  -2   3 -13 2010.79 356.699  41
  -1   3  16 39664.0 1329.76  30
  -1   3  15 7966.92 735.002  30
  -1   3  14 48074.2 1876.05  30
  -1   3  13 159932. 3940.04  34
  -1   3  13 165954. 3968.91  30
  -1   3  13 163728. 4006.43  40
  -1   3  12 9756.37 931.286  34
  -1   3  12 10082.7 876.341  30
  -1   3  12 11035.2 916.971  51
  -1   3  11 127940. 8499.89   7
  -1   3  11 126211. 3458.77  34
  -1   3  11 119255. 3066.55  51
  -1   3  11 121897. 3168.13  30
  -1   3  11 119061. 3284.54  40
  -1   3  10 18919.5 3426.27   7
  -1   3  10 19789.0 1234.93  34
  -1   3  10 19252.1 1059.38  30
  -1   3  10 18204.7 1011.19  51
  -1   3  10 17997.1 1090.85  40
  -1   3   9 171647. 9875.34   7
  -1   3   8 143931. 8598.88   7
  -1   3   7 88377.4 6424.90   7
  -1   3   7 102245. 3307.76   4
  -1   3   6 315381. 6637.18   4
  -1   3   6 322364. 8589.15   5
  -1   3   5 59230.5 4617.48   7
  -1   3   5 62929.4 2552.08   4
  -1   3   5 68669.0 3361.98   5
  -1   3   4 249710. 5981.17   4
  -1   3   4 241514. 8391.24   7
  -1   3   4 259532. 6737.55   5
  -1   3   3 10733.1 1223.01   4
  -1   3   3 8330.48 1323.60   7
  -1   3   3 11089.4 1208.20   5
  -1   3   2 127640. 4480.43   7
  -1   3   2 126728. 4736.58   4
  -1   3   1 141054. 4372.27   5
  -1   3   0 212927. 6563.88   2
  -1   3  -1 735133. 10242.0  14
  -1   3  -1 678404. 13827.8   2
  -1   3  -2 451185. 6632.81  14
  -1   3  -2 440050. 9824.73   2
  -1   3  -3 24233.4 928.509  14
  -1   3  -3 26694.5 2059.54   2
  -1   3  -3 23462.0 2228.57  11
  -1   3  -4 85846.5 2098.12  14
  -1   3  -4 85951.7 3959.00   2
  -1   3  -4 80721.1 4759.38  11
  -1   3  -5 74441.8 3832.69   2
  -1   3  -5 72679.2 2020.27  14
  -1   3  -5 67071.6 4483.43  11
  -1   3  -6 202163. 6937.83   2
  -1   3  -6 190898. 4056.08  14
  -1   3  -6 188466. 7826.37  11
  -1   3  -7 16982.5 1071.78  14
  -1   3  -7 18614.3 2150.24   2
  -1   3  -7 15550.6 2266.80  11
  -1   3  -8 126578. 3425.20  14
  -1   3  -8 118844. 3586.40  45
  -1   3  -8 130205. 6057.93   2
  -1   3  -9 61342.3 2325.98  14
  -1   3  -9 55981.4 2351.25  45
  -1   3 -10 62331.5 2358.39  14
  -1   3 -10 63475.6 2453.57  45
  -1   3 -11 62644.2 2294.28  49
  -1   3 -11 59525.5 2208.57  45
  -1   3 -12 1237.16 508.097  49
  -1   3 -13 46599.8 1490.99  49
  -1   3 -14 8684.66 509.820  41
   0   3  16 5696.79 586.432  30
   0   3  15 66180.4 2106.99  30
   0   3  14 61227.8 1937.75  34
   0   3  14 61803.6 2212.19  30
   0   3  13 25748.4 1437.32  30
   0   3  13 25776.3 1330.03  34
   0   3  12 322440. 6252.81  34
   0   3  12 323846. 6311.90  30
   0   3  12 329694. 6532.50  40
   0   3  11 2773.03 1290.32   7
   0   3  11 2901.15 501.595  34
   0   3  11 3226.78 517.246  30
   0   3  10 76720.1 6244.15   7
   0   3  10 76580.7 2376.69  34
   0   3  10 73675.2 2199.23  30
   0   3  10 72908.4 2335.09  40
   0   3   9 46253.9 4649.56   7
   0   3   8 138780. 7696.12   7
   0   3   7 319151. 11332.2   7
   0   3   6 128381. 6509.71   7
   0   3   6 136923. 4332.52   4
   0   3   5 160947. 6881.48   7
   0   3   5 178337. 4876.23   4
   0   3   4 9722.80 1024.91   4
   0   3   4 8344.08 1457.68   7
   0   3   3 290188. 6590.12   4
   0   3   3 245643. 7508.53   7
   0   3   2 109878. 3975.92   4
   0   3   2 92737.8 3574.19   7
   0   3   1 25243.2 1212.94   7
   0   3   1 25861.9 2011.78   4
   0   3   0 122081. 2467.35  14
   0   3   0 122883. 4542.26   4
   0   3  -1 49213.5 2714.36   2
   0   3  -1 42247.0 1329.76  14
   0   3  -2 510870. 7797.19  14
   0   3  -2 478482. 10336.6   2
   0   3  -3 211003. 3943.36  14
   0   3  -3 215279. 5965.75   2
   0   3  -4 267114. 4855.46  14
   0   3  -4 267307. 7011.49   2
   0   3  -5 159747. 3515.33  14
   0   3  -5 157584. 5396.26   2
   0   3  -6 12083.5 896.752  14
   0   3  -6 12242.2 1482.56   2
   0   3  -6 10738.3 1715.44  11
   0   3  -7 296877. 5921.19  14
   0   3  -7 297511. 8500.81   2
   0   3  -8 8476.22 902.653  14
   0   3  -8 7462.01 1602.01  11
   0   3  -9 212296. 5047.04  14
   0   3  -9 198200. 8388.47  11
   0   3 -10 213867. 5010.31  14
   0   3 -10 189392. 4094.65  43
   0   3 -11 1851.08 450.953  14
   0   3 -11 2176.49 468.281  45
   0   3 -12 59682.8 1917.85  45
   0   3 -13 12431.5 795.782  49
   1   3  16 43454.7 1283.97  30
   1   3  15 35021.7 1428.14  30
   1   3  14 14399.1 933.075  46
   1   3  14 13761.2 978.761  30
   1   3  13 52183.3 2006.42  30
   1   3  13 49559.5 1883.51  46
   1   3  12 13936.3 944.024  34
   1   3  12 12964.8 973.962  30
   1   3  12 12340.9 917.630  46
   1   3  11 140200. 3409.22  34
   1   3  11 139346. 3452.56  30
   1   3  11 139797. 3363.20  46
   1   3  10 23627.3 3608.53   7
   1   3  10 22179.6 1193.64  34
   1   3  10 22917.3 1151.81  30
   1   3  10 22407.2 1116.72  46
   1   3   9 136561. 8398.31   7
   1   3   8 100188. 7046.12   7
   1   3   7 68115.3 5873.97   7
   1   3   6 161579. 9366.55   7
   1   3   5 155527. 4956.98   4
   1   3   5 161856. 6853.39  23
   1   3   4 809413. 14883.3   4
   1   3   4 999999. 18433.9  23
   1   3   3 195368. 5374.03   4
   1   3   3 215151. 6433.05  23
   1   3   2 230712. 5833.93   4
   1   3   2 217412. 6286.34  18
   1   3   1 657868. 12382.2   4
   1   3   1 679747. 13241.7  18
   1   3   0 509769. 10838.5   4
   1   3   0 531469. 10973.4  18
   1   3  -1 147621. 5538.69   4
   1   3  -1 157851. 5315.10  18
   1   3  -1 161146. 3375.80  14
   1   3  -2 4779.45 922.410  18
   1   3  -2 3736.38 809.798   4
   1   3  -2 4185.40 498.242  14
   1   3  -2 3856.82 888.797   9
   1   3  -3 289825. 8235.96  18
   1   3  -3 280804. 6635.62   2
   1   3  -3 260238. 5024.47  14
   1   3  -3 261288. 6886.01   4
   1   3  -4 242210. 6271.44   2
   1   3  -4 248778. 7977.14  18
   1   3  -4 216962. 4504.49  14
   1   3  -4 215512. 6159.95   4
   1   3  -5 43532.0 3328.66  18
   1   3  -5 42504.2 1751.04  14
   1   3  -6 210999. 8134.16  18
   1   3  -6 216665. 4819.77  14
   1   3  -7 7329.99 1492.57  18
   1   3  -7 9798.29 985.062  14
   1   3  -8 55809.4 3989.82  18
   1   3  -8 62021.2 2508.80  14
   1   3  -8 58073.0 4420.48  11
   1   3  -9 27012.9 1668.34  14
   1   3  -9 27170.1 3045.29  11
   1   3 -11 69464.5 2094.55  43
   1   3 -12 1795.59 370.486  45
   2   3  15 38810.6 1388.63  46
   2   3  14 32360.5 1441.12  46
   2   3  13 34500.9 1502.50  30
   2   3  13 34688.2 1589.85  46
   2   3  12 138287. 3413.37  30
   2   3  12 136772. 3526.27  46
   2   3  11 3207.79 544.860  36
   2   3  11 2775.29 439.084  30
   2   3  11 2820.91 517.202  46
   2   3  10 179163. 4212.67  36
   2   3  10 176948. 10531.9   7
   2   3  10 176298. 3790.78  30
   2   3  10 173371. 3941.17  46
   2   3   9 154337. 3573.41  36
   2   3   9 144314. 9779.43   7
   2   3   9 141501. 3308.13  46
   2   3   8 152256. 10817.1   7
   2   3   7 235275. 10042.6  23
   2   3   6 21361.3 2597.14  23
   2   3   5 257389. 8381.12  23
   2   3   4 102490. 2938.91   3
   2   3   4 96103.8 4434.59  23
   2   3   3 265861. 7180.15  23
   2   3   3 256115. 6835.19  18
   2   3   3 267794. 7027.79   4
   2   3   3 268941. 5664.42   3
   2   3   2 436868. 9242.25  23
   2   3   2 434495. 9327.98  18
   2   3   2 463113. 9655.13   4
   2   3   2 438632. 8572.06   9
   2   3   1 30997.1 2020.73   4
   2   3   1 25403.3 1866.44  18
   2   3   1 26964.1 1748.21   9
   2   3   0 432220. 9564.28  18
   2   3   0 428588. 9179.55   9
   2   3  -1 1143.03 522.635  18
   2   3  -1 1489.31 442.239   4
   2   3  -1 1190.61 532.096   9
   2   3  -2 423642. 9910.48  18
   2   3  -2 395209. 7258.94  14
   2   3  -2 409362. 9743.74   9
   2   3  -3 135383. 5509.40  18
   2   3  -3 144342. 3666.71  14
   2   3  -3 140458. 5640.35   9
   2   3  -4 57177.0 3752.30  18
   2   3  -4 52304.3 2101.66  14
   2   3  -4 57688.9 3774.92   9
   2   3  -5 300309. 9508.90  18
   2   3  -5 287115. 9376.17   9
   2   3  -6 4891.48 1320.54  18
   2   3  -6 4743.22 727.187  14
   2   3  -6 5412.12 1383.12   9
   2   3  -7 117885. 6359.15  18
   2   3  -7 114204. 3606.54  14
   2   3  -8 7857.26 1762.39  18
   2   3  -8 10991.2 1119.11  14
   2   3  -9 19636.1 1452.81  14
   2   3 -10 95282.6 3189.24  14
   2   3 -12 60262.7 1648.82  43
   3   3  15 17066.0 828.365  46
   3   3  14 38510.7 1516.77  46
   3   3  13 27344.9 1412.96  46
   3   3  12 2413.15 504.155  36
   3   3  12 3160.07 604.275  46
   3   3  11 128380. 3600.12  36
   3   3  11 134139. 3504.69  46
   3   3  10 4717.49 668.631  36
   3   3  10 3991.25 605.194  46
   3   3   9 110914. 3146.43  36
   3   3   9 107094. 9678.41   7
   3   3   9 109251. 2971.72  46
   3   3   8 62886.7 2135.54  36
   3   3   8 59800.7 1971.25  46
   3   3   8 56835.6 3589.66  47
   3   3   8 65694.4 5772.94  23
   3   3   7 6869.20 1848.92  23
   3   3   7 8836.69 729.284  36
   3   3   7 8948.12 676.406  46
   3   3   6 132763. 6796.50  23
   3   3   5 12310.7 1936.06  23
   3   3   4 104215. 5088.22  23
   3   3   3 163083. 5203.20   3
   3   3   2 165927. 5467.66  18
   3   3   2 172628. 5562.44   3
   3   3   1 214994. 6546.51  18
   3   3   1 230223. 6928.81   3
   3   3   1 234257. 6203.05   9
   3   3   0 1254.80 554.165  18
   3   3   0 1358.68 560.927   9
   3   3  -1 247345. 7556.75  18
   3   3  -1 243957. 7187.81   9
   3   3  -2 66080.5 3913.94  18
   3   3  -2 70174.3 3852.47   9
   3   3  -3 180464. 7117.16  18
   3   3  -3 178440. 6912.46   9
   3   3  -4 47092.1 3769.24  18
   3   3  -4 43856.1 2058.28  14
   3   3  -4 44774.0 3579.60   9
   3   3  -5 89277.2 5403.83  18
   3   3  -5 82438.8 2986.06  14
   3   3  -5 87282.3 5270.26   9
   3   3  -6 137887. 6996.06  18
   3   3  -6 123446. 3852.95  14
   3   3  -6 129683. 6833.17   9
   3   3  -7 444.442 754.629  18
   3   3  -7 1069.48 483.500  14
   3   3  -8 95876.7 6079.01  18
   3   3  -8 97754.8 3359.62  14
   3   3  -9 9280.43 1872.32  18
   3   3  -9 10311.9 974.154  14
   4   3  14 41115.5 1331.91  46
   4   3  13 10929.0 802.849  46
   4   3  12 64469.0 2166.94  46
   4   3  11 2857.94 586.144  36
   4   3  11 2396.71 536.448  46
   4   3  10 66082.6 2470.70  36
   4   3  10 66285.2 2295.78  46
   4   3   9 11195.7 1035.58  36
   4   3   9 9558.76 853.823  46
   4   3   9 10447.5 1371.21  47
   4   3   9 8638.55 2307.68  23
   4   3   8 48436.7 2019.24  36
   4   3   8 50465.9 3449.81  47
   4   3   8 48244.5 1855.37  46
   4   3   8 51153.5 5258.20  23
   4   3   7 97564.0 2876.54  36
   4   3   7 98377.0 4285.68  47
   4   3   7 95204.7 2652.64  46
   4   3   7 99441.5 6934.14  23
   4   3   6 7682.57 2023.19  23
   4   3   6 7074.38 716.234  36
   4   3   6 6937.80 1082.42  47
   4   3   6 5973.24 587.497  46
   4   3   5 60140.6 2006.34  36
   4   3   5 63623.0 2530.64  50
   4   3   5 63697.3 2838.26  47
   4   3   5 61248.3 4801.89  23
   4   3   4 20627.0 2603.40  23
   4   3   4 16875.4 948.620  36
   4   3   4 18464.1 1260.04  50
   4   3   4 20357.1 1272.49  29
   4   3   4 16084.8 1314.00  47
   4   3   3 188984. 7572.27  23
   4   3   3 208107. 4549.09  29
   4   3   3 205539. 7256.66   3
   4   3   3 198606. 4871.30  47
   4   3   2 78963.0 2416.01  29
   4   3   2 78634.9 4455.15   3
   4   3   2 76939.3 2624.38  47
   4   3   1 11684.3 1626.26  18
   4   3   1 11808.8 1807.09   3
   4   3   1 15085.6 1064.27  47
   4   3   0 243821. 8242.36  18
   4   3   0 254504. 9141.17   3
   4   3   0 247476. 5132.50  47
   4   3   0 264690. 7867.44   9
   4   3  -1 15877.9 2087.71  18
   4   3  -1 19174.6 2585.18   3
   4   3  -1 15859.5 1023.13  47
   4   3  -1 17723.6 2010.81   9
   4   3  -2 98448.7 5404.81  18
   4   3  -2 104198. 6476.07   3
   4   3  -2 91213.3 2595.76  47
   4   3  -2 92777.4 5053.52   9
   4   3  -3 59238.2 4406.66  18
   4   3  -3 66038.1 5630.18   3
   4   3  -3 57906.6 4200.24   9
   4   3  -4 100387. 6036.91  18
   4   3  -4 107303. 7818.28   3
   4   3  -4 97828.3 5761.69   9
   4   3  -5 88427.7 5764.10  18
   4   3  -5 83386.7 5405.02   9
   4   3  -6-243.030 991.782  18
   4   3  -7 187552. 8666.51  18
   4   3 -10 39711.2 1394.76  38
   5   3  12 7362.40 549.459  46
   5   3  11 71604.8 2238.38  36
   5   3  11 71034.2 2076.37  46
   5   3  10 2649.72 559.622  36
   5   3  10 2053.69 421.845  46
   5   3   9 40816.7 1847.56  36
   5   3   9 39977.3 1635.51  46
   5   3   8 60020.8 2270.70  36
   5   3   8 54867.5 3703.71  47
   5   3   8 55475.8 5452.06  23
   5   3   7 95435.4 2891.50  36
   5   3   7 92141.0 4421.20  47
   5   3   7 88359.1 6733.88  23
   5   3   6 188832. 4333.58  36
   5   3   6 193610. 6183.66  47
   5   3   6 188459. 9575.89  23
   5   3   5 15814.5 1057.35  36
   5   3   5 16962.4 1488.33  50
   5   3   5 16029.2 1659.80  47
   5   3   5 16046.6 2691.96  23
   5   3   4 102780. 2783.79  36
   5   3   4 99275.3 3619.58  50
   5   3   4 103486. 3942.14  47
   5   3   4 97379.1 6267.31  23
   5   3   3 42381.3 3908.19  23
   5   3   3 42175.3 2217.64  50
   5   3   3 45630.5 2168.07  29
   5   3   3 41503.2 2327.39  47
   5   3   3 51583.5 2515.58  28
   5   3   2 97753.2 5697.55  23
   5   3   2 103297. 3257.78  29
   5   3   2 104862. 3616.10  47
   5   3   1 129296. 6252.63  23
   5   3   1 133901. 3680.55  29
   5   3   1 130090. 3979.66  47
   5   3   0 1565.64 857.156  23
   5   3   0 423.704 309.796  29
   5   3   0 969.145 512.426  47
   5   3  -1 141541. 6954.21  18
   5   3  -1 152937. 3753.19  29
   5   3  -1 149508. 4045.06  47
   5   3  -2 27674.3 3132.79  18
   5   3  -2 27454.7 1536.08  47
   5   3  -3 63631.1 2524.29  50
   5   3  -3 59708.5 2247.66  47
   5   3  -4 60002.6 4774.59  18
   5   3  -4 57212.4 2304.63  50
   5   3  -5 3552.92 1298.22  18
   5   3  -5 4569.92 635.847  50
   5   3  -6 73760.8 2535.24  28
   5   3  -7 10131.2 856.782  28
   5   3  -8 47907.8 1717.17  44
   6   3   9 19065.1 997.883  36
   6   3   8 9512.33 761.784  36
   6   3   8 7430.76 868.533  47
   6   3   7 70742.9 2185.20  36
   6   3   7 66237.5 3639.91  47
   6   3   6 4720.45 577.260  36
   6   3   6 4339.88 1045.93  47
   6   3   5 67466.2 3066.96  50
   6   3   5 70113.9 2164.73  36
   6   3   5 72024.0 3430.00  47
   6   3   5 70299.7 5266.62  23
   6   3   4 7687.65 1826.90  23
   6   3   4 8240.62 1116.10  50
   6   3   4 10395.2 1402.83  47
   6   3   3 44074.4 2370.46  50
   6   3   3 45348.4 2529.38  47
   6   3   3 36116.2 2156.08  28
   6   3   3 39198.2 3689.24  23
   6   3   2 59196.7 2732.41  50
   6   3   2 56045.9 2710.35  47
   6   3   2 61450.2 2812.31  28
   6   3   2 53989.7 4133.27  23
   6   3   1 5125.27 1308.96  23
   6   3   1 7315.87 1065.19  50
   6   3   1 4217.73 821.678  47
   6   3   0 40309.5 2194.33  50
   6   3   0 34855.2 1973.66  47
   6   3  -1 23165.5 1649.33  50
   6   3  -1 19098.3 1413.66  47
   6   3  -2 114837. 3679.69  50
   6   3  -2 121208. 3726.21  28
   6   3  -3 45929.0 2103.65  50
   6   3  -3 47225.8 1902.25  47
   6   3  -4 8035.26 834.768  50
   6   3  -4 20799.3 1487.24  28
   6   3  -5 31575.5 1413.61  50
   6   3  -5 41308.0 1774.57  28
   6   3  -6 2679.72 496.350  28
   6   3  -7 27295.1 1019.00  44
   7   3   5 867.227 439.803  47
   7   3   4 55489.8 2461.26  47
   7   3   3 19025.8 1331.40  50
   7   3   3 21997.3 1506.17  47
   7   3   2 19345.2 1341.21  50
   7   3   2 21521.8 1446.20  47
   7   3   1 53605.4 2231.26  50
   7   3   1 55435.1 2240.21  47
   7   3   1 50617.9 1747.58  28
   7   3   0 1475.01 475.045  50
   7   3   0 1066.38 435.521  47
   7   3   0 360.977 307.779  28
   7   3  -1 66233.5 2378.04  50
   7   3  -1 65610.1 2189.85  47
   7   3  -1 66247.7 2218.98  28
   7   3  -2 3131.21 501.672  50
   7   3  -2 3834.99 540.988  28
   7   3  -3 14940.7 890.623  28
   7   3  -3 11618.8 805.330  44
  -7   4   3 52692.7 1551.46  49
  -7   4   2 853.143 260.907  49
  -7   4   1 29258.8 1168.35  49
  -7   4   0 27581.4 1119.27  49
  -7   4  -1 6145.77 504.936  49
  -6   4   9 45484.7 1484.44  33
  -6   4   8 9427.91 743.586  33
  -6   4   7 37346.2 1552.39  33
  -6   4   6 36562.3 1603.50  33
  -6   4   5 15394.6 1068.23  33
  -6   4   5 11606.9 989.878  49
  -6   4   4 93942.9 2766.69  33
  -6   4   4 76790.7 2738.36  49
  -6   4   3 220.920 347.712  33
  -6   4   3-13.3550 438.143  49
  -6   4   2 55183.2 2154.23  33
  -6   4   2 44583.1 2171.88  49
  -6   4   1 14159.1 1085.58  33
  -6   4   1 10101.3 1090.68  49
  -6   4   0 19181.8 1485.16  49
  -6   4  -1 46762.2 2286.72  49
  -6   4  -2 2205.45 703.627  49
  -6   4  -3 43765.2 2121.36  49
  -6   4  -4 3762.08 666.541  49
  -6   4  -5 33570.7 1532.93  49
  -6   4  -6 23730.0 1015.95  49
  -5   4  12 22229.6 922.571  33
  -5   4  11 25693.8 1200.61  33
  -5   4  11 40168.6 1411.14  51
  -5   4  10 45146.7 1747.93  33
  -5   4  10 49533.6 1736.46  51
  -5   4   9 863.997 424.365  33
  -5   4   9 2872.39 603.533  51
  -5   4   8 117686. 3265.86  33
  -5   4   8 113229. 3040.27  51
  -5   4   7 41294.0 1840.25  33
  -5   4   7 38327.5 1638.51  51
  -5   4   6 115429. 3243.58  33
  -5   4   6 101530. 3336.09  49
  -5   4   5 75166.8 2574.43  33
  -5   4   5 68280.4 2686.51  49
  -5   4   4 53441.6 2134.86  33
  -5   4   4 47244.0 2229.36  49
  -5   4   3 185775. 4929.56  49
  -5   4   3 194528. 4727.10  43
  -5   4   2 23415.6 1500.85  43
  -5   4   2 22319.6 1618.83  49
  -5   4   1 104059. 3717.68  49
  -5   4   1 109815. 3498.29  43
  -5   4   0 59172.0 2541.73  43
  -5   4   0 53064.9 2663.70  49
  -5   4  -1 31544.8 2134.20  49
  -5   4  -1 36700.5 2086.42  43
  -5   4  -2 141626. 4419.24  43
  -5   4  -2 108252. 4192.49  49
  -5   4  -3 318.522 849.255  49
  -5   4  -3 1104.07 478.030  43
  -5   4  -4 94211.4 3839.97  49
  -5   4  -4 102811. 3278.04  43
  -5   4  -5 35634.8 2260.88  49
  -5   4  -5 41748.2 1784.88  41
  -5   4  -6 10822.7 1153.88  49
  -5   4  -6 12273.7 896.600  41
  -5   4  -7 62422.4 2300.34  49
  -5   4  -7 71093.8 2047.75  41
  -5   4  -8 2786.37 436.093  49
  -5   4  -9 47592.9 1262.74  49
  -4   4  13 22613.8 1057.64  33
  -4   4  13 38144.4 1439.15  51
  -4   4  12 28280.2 1347.52  33
  -4   4  12 40281.4 1611.85  51
  -4   4  11 59303.3 2123.96  33
  -4   4  11 66356.8 2228.70  51
  -4   4  10 2657.30 549.485  33
  -4   4  10 2514.03 571.506  51
  -4   4   9 134454. 3562.10  33
  -4   4   9 136148. 3523.54  51
  -4   4   8 19176.5 1230.89  33
  -4   4   8 20388.3 1225.35  51
  -4   4   7 94882.2 2829.51  33
  -4   4   7 91093.3 2724.79  51
  -4   4   7 87093.0 2923.75  49
  -4   4   6 144176. 3591.82  33
  -4   4   6 137963. 3423.04  51
  -4   4   6 141017. 3818.46  49
  -4   4   6 148345. 7081.88   5
  -4   4   5 56790.8 1953.98  51
  -4   4   5 58477.9 2239.79  49
  -4   4   5 57599.0 2128.77  43
  -4   4   4 90715.9 2870.72  49
  -4   4   4 90014.8 2734.59  43
  -4   4   4 92914.0 5194.51   5
  -4   4   3 17296.2 1213.28  49
  -4   4   3 18065.0 1155.97  43
  -4   4   3 16569.3 2132.57   5
  -4   4   2 108440. 3332.90  49
  -4   4   2 112101. 3182.23  43
  -4   4   1 41169.1 2030.58  49
  -4   4   1 42177.0 1883.91  43
  -4   4   1 39681.7 3157.10   5
  -4   4   0 62047.8 2675.53  49
  -4   4   0 66674.5 2510.74  43
  -4   4  -1 67513.1 4825.53   2
  -4   4  -1 66060.7 2908.95  49
  -4   4  -1 70005.1 2711.62  43
  -4   4  -2 32026.6 3427.08   2
  -4   4  -2 27732.7 1803.07  43
  -4   4  -3 179951. 8543.49   2
  -4   4  -3 181410. 5190.62  43
  -4   4  -4 40340.8 2504.15  49
  -4   4  -4 48525.7 2564.38  43
  -4   4  -4 46017.5 2092.26  41
  -4   4  -5 51429.1 2854.60  49
  -4   4  -5 56372.3 2559.04  43
  -4   4  -5 57322.0 2396.32  41
  -4   4  -6 53333.6 2865.72  49
  -4   4  -6 53472.4 2296.88  41
  -4   4  -7 22473.4 1716.85  49
  -4   4  -7 23844.6 1463.39  41
  -4   4  -8 47254.7 2128.60  49
  -4   4  -8 49735.4 1966.53  41
  -4   4  -9 356.578 325.090  49
  -4   4  -9 923.690 327.989  41
  -4   4 -10 47832.2 1503.73  49
  -4   4 -10 48827.3 1403.02  41
  -3   4  14 26158.9 1396.12  51
  -3   4  13 69576.7 2113.72  33
  -3   4  13 80055.2 2429.48  51
  -3   4  12 34535.3 1576.07  33
  -3   4  12 40698.0 1755.32  51
  -3   4  11 17284.5 1127.34  33
  -3   4  11 16052.8 1146.07  51
  -3   4  10 235763. 5081.05  33
  -3   4  10 250038. 5200.17  51
  -3   4   9 6555.06 714.309  33
  -3   4   9 6524.10 740.527  51
  -3   4   9 7178.10 1585.21   5
  -3   4   8 96661.1 3945.82  34
  -3   4   8 84886.0 2533.94  33
  -3   4   8 90210.4 2620.76  51
  -3   4   8 85113.0 5419.56   5
  -3   4   7 66224.7 3355.59  34
  -3   4   7 59805.3 1986.67  33
  -3   4   7 60502.8 2011.34  51
  -3   4   7 59132.8 4297.25   5
  -3   4   6 97868.3 2555.26  51
  -3   4   6 104937. 5481.41   5
  -3   4   5 117676. 5606.91   5
  -3   4   4 1350.20 696.883   5
  -3   4   3 237498. 7642.94   5
  -3   4   3 224004. 7424.22   4
  -3   4   2 63307.3 3669.44   5
  -3   4   2 63973.8 4125.48   4
  -3   4   1 174471. 6270.59   5
  -3   4   0 174594. 7420.87   2
  -3   4   0 179529. 6224.43   5
  -3   4  -1 20626.9 2626.04   2
  -3   4  -2 288651. 10219.6   2
  -3   4  -3 8997.83 1783.95   2
  -3   4  -3 9863.20 1062.19  49
  -3   4  -3 9421.20 1083.02  43
  -3   4  -4 89140.8 5601.97   2
  -3   4  -4 81230.1 3261.19  49
  -3   4  -4 92787.9 3926.47  43
  -3   4  -4 83896.8 2784.59  41
  -3   4  -5 73251.1 3168.60  49
  -3   4  -5 71593.0 3463.38  43
  -3   4  -5 73822.5 2706.63  41
  -3   4  -6 149490. 4772.14  49
  -3   4  -6 141881. 4596.87  43
  -3   4  -6 149888. 4181.47  41
  -3   4  -7 84999.7 3369.40  49
  -3   4  -7 91456.5 3183.21  41
  -3   4  -8-203.020 595.115  49
  -3   4  -8 1414.21 565.982  41
  -3   4  -9 54682.1 2238.66  49
  -3   4  -9 55384.7 2133.97  41
  -3   4 -10 4751.53 643.038  49
  -3   4 -10 4307.70 568.602  41
  -3   4 -11 59735.5 1760.32  49
  -3   4 -11 60268.4 1713.83  41
  -2   4  15 6712.33 674.401  30
  -2   4  14 78450.4 2345.52  51
  -2   4  14 72635.6 2200.23  30
  -2   4  13 17174.5 1200.92  51
  -2   4  13 15424.6 1036.88  30
  -2   4  12 44497.8 2189.55  34
  -2   4  12 41476.6 1788.49  51
  -2   4  12 41397.8 1715.35  30
  -2   4  12 46172.8 1727.70  40
  -2   4  11 131119. 3446.68  51
  -2   4  11 133750. 3320.81  30
  -2   4  11 135907. 3238.09  40
  -2   4  10 14774.7 1304.34  34
  -2   4  10 12430.2 2718.03   7
  -2   4  10 13475.8 912.471  33
  -2   4  10 14641.9 1006.64  51
  -2   4  10 13265.1 898.332  30
  -2   4  10 12799.5 831.636  40
  -2   4   9 117371. 2879.80  33
  -2   4   9 116973. 3008.56  51
  -2   4   9 118931. 2847.53  30
  -2   4   8 6674.60 2072.23   7
  -2   4   8 8633.60 946.411  34
  -2   4   8 6402.44 592.875  51
  -2   4   7 138777. 8442.14   7
  -2   4   7 157713. 6660.71   5
  -2   4   6 72141.3 5419.40   7
  -2   4   6 81630.9 4449.81   5
  -2   4   5 4279.75 1295.33   7
  -2   4   5 5562.68 890.960   4
  -2   4   5 5634.00 1191.57   5
  -2   4   4 71453.8 3665.65   4
  -2   4   4 76947.8 3944.15   5
  -2   4   3 87025.6 4059.78   5
  -2   4   3 78752.6 4084.26   4
  -2   4   2 403288. 9733.92   5
  -2   4   2 388479. 10537.0   4
  -2   4   1 85200.5 3884.19   5
  -2   4   0 66993.0 4150.12   2
  -2   4  -1 352063. 10371.8   2
  -2   4  -2 2838.27 983.562   2
  -2   4  -3 172727. 7034.65   2
  -2   4  -4 3923.53 1144.60   2
  -2   4  -5 325593. 6944.84  49
  -2   4  -5 346449. 7854.50  45
  -2   4  -5 350692. 11020.4   2
  -2   4  -6 144920. 4239.92  49
  -2   4  -6 130743. 4202.26  45
  -2   4  -6 131011. 3772.32  43
  -2   4  -6 149743. 7035.38   2
  -2   4  -7 40230.5 2087.76  49
  -2   4  -7 35938.2 2058.61  45
  -2   4  -7 35329.3 1733.19  43
  -2   4  -7 40870.5 3700.97   2
  -2   4  -8 153654. 4212.63  49
  -2   4  -8 143166. 4205.59  45
  -2   4  -9 7786.27 954.337  49
  -2   4  -9 5631.01 769.345  45
  -2   4 -10 72594.5 2475.94  49
  -2   4 -10 70884.8 2467.19  45
  -2   4 -11 38702.4 1560.72  49
  -2   4 -11 40098.9 1566.04  41
  -2   4 -12 25255.4 1026.01  49
  -2   4 -12 25682.2 1034.31  41
  -1   4  16 11809.2 773.908  30
  -1   4  15 102330. 2662.90  30
  -1   4  14 13877.5 1040.05  34
  -1   4  14 15811.4 1080.95  30
  -1   4  13 87492.3 2880.13  34
  -1   4  13 83434.3 2521.61  51
  -1   4  13 87294.6 2675.79  30
  -1   4  12 115587. 3470.50  34
  -1   4  12 106950. 2952.21  51
  -1   4  12 109181. 3052.70  30
  -1   4  12 109132. 3033.65  40
  -1   4  11 46258.2 2108.09  34
  -1   4  11 41678.9 1681.08  51
  -1   4  11 44348.6 1762.58  30
  -1   4  11 47223.5 1791.73  40
  -1   4  10 85224.8 6533.67   7
  -1   4  10 99528.6 3126.51  34
  -1   4  10 91396.3 2522.79  51
  -1   4  10 94162.3 2560.98  30
  -1   4  10 87736.9 2421.15  40
  -1   4   9 8647.40 2072.88   7
  -1   4   9 10522.9 947.845  34
  -1   4   8 298449. 11593.0   7
  -1   4   7 20521.5 2824.36   7
  -1   4   7 23563.6 1778.42   4
  -1   4   6 93198.8 5725.85   7
  -1   4   6 97091.0 3788.53   4
  -1   4   5 391962. 11182.8   7
  -1   4   5 403387. 9112.18   4
  -1   4   4 3350.92 915.403   7
  -1   4   4 5491.59 1002.69   4
  -1   4   3 366866. 9549.41   4
  -1   4   3 416049. 9287.18   7
  -1   4   2 83762.5 4088.99   4
  -1   4   1 71187.5 3912.24   4
  -1   4   0 309146. 8782.56   2
  -1   4  -1 7906.47 1381.74   2
  -1   4  -1 7451.51 511.380  14
  -1   4  -2 358324. 9727.67   2
  -1   4  -2 357630. 5905.11  14
  -1   4  -3 9982.07 688.713  14
  -1   4  -3 11552.1 1407.70  11
  -1   4  -3 11834.8 1667.36   2
  -1   4  -4 128468. 3028.01  14
  -1   4  -4 138682. 5642.62  11
  -1   4  -5 51190.3 1825.54  14
  -1   4  -5 53506.8 3689.63  11
  -1   4  -5 51947.4 3619.04   2
  -1   4  -6 34361.9 1547.01  14
  -1   4  -6 36528.4 1602.80  43
  -1   4  -6 35399.7 3117.31   2
  -1   4  -7 105584. 3079.18  14
  -1   4  -7 112457. 3330.16  45
  -1   4  -7 110045. 3008.53  43
  -1   4  -7 114763. 5885.88   2
  -1   4  -8 5189.65 1255.04   2
  -1   4  -8 4005.41 586.125  14
  -1   4  -8 4075.41 675.779  45
  -1   4  -8 4305.29 573.345  43
  -1   4  -9 77561.0 2656.19  14
  -1   4  -9 82497.1 2764.86  45
  -1   4  -9 81572.5 2411.40  43
  -1   4 -10 21493.2 1486.77  49
  -1   4 -10 16455.8 1157.26  45
  -1   4 -11 29158.9 1428.32  49
  -1   4 -11 25958.6 1295.69  45
  -1   4 -12 27233.4 1175.33  49
  -1   4 -12 27153.8 1083.89  45
  -1   4 -13 6918.93 452.041  49
  -1   4 -13 8545.33 516.680  41
   0   4  16 73747.2 1972.46  30
   0   4  15 2797.23 672.628  30
   0   4  14 70355.2 2291.93  34
   0   4  14 73595.8 2405.95  30
   0   4  13 62557.2 2290.37  34
   0   4  13 62228.7 2258.45  30
   0   4  12 214852. 4915.30  34
   0   4  12 209263. 4650.71  30
   0   4  11 90938.6 6726.67   7
   0   4  11 98921.4 3064.73  34
   0   4  11 100423. 2806.03  30
   0   4  10 8249.78 2111.94   7
   0   4  10 8207.63 828.999  34
   0   4  10 7712.24 688.180  30
   0   4  10 6880.10 585.719  46
   0   4   9 307541. 11853.2   7
   0   4   8 37728.8 3810.97   7
   0   4   7 150074. 7261.13   7
   0   4   7 158009. 5384.54   4
   0   4   6 226637. 8485.75   7
   0   4   6 253041. 6943.28   4
   0   4   5 101430. 4073.75   4
   0   4   5 87649.1 4721.86   7
   0   4   4 305121. 7821.07   4
   0   4   4 276561. 8220.74   7
   0   4   3 35910.5 2589.34   4
   0   4   3 31882.2 2199.02   7
   0   4   2 182812. 6277.74   4
   0   4   2 193454. 4708.75   7
   0   4   1 123169. 4870.56   4
   0   4   1 115672. 2370.31   7
   0   4   0 232810. 7044.51   4
   0   4  -1 224650. 6661.64   2
   0   4  -1 212308. 4109.13  14
   0   4  -1 225740. 6994.44   4
   0   4  -2 55964.6 3269.90   2
   0   4  -2 50068.9 1702.29  14
   0   4  -2 55018.1 3334.32   4
   0   4  -3 531427. 11988.9   2
   0   4  -3 521724. 8463.14  14
   0   4  -4 3388.73 490.110  14
   0   4  -4 3556.47 884.423   2
   0   4  -5 68314.7 3864.30   2
   0   4  -5 66443.6 2229.50  14
   0   4  -5 67455.9 3850.30  11
   0   4  -6 84228.6 4440.59   2
   0   4  -6 81904.0 2656.31  14
   0   4  -6 78314.8 4419.03  11
   0   4  -7 29918.1 1629.55  14
   0   4  -7 27771.0 2719.70  11
   0   4  -8 133866. 3809.43  14
   0   4  -8 130778. 6086.64  11
   0   4  -8 124167. 3251.40  43
   0   4  -9 3216.21 598.792  14
   0   4  -9 3778.15 562.028  43
   0   4 -10 107467. 3283.95  14
   0   4 -10 109351. 3072.84  45
   0   4 -10 107015. 2746.54  43
   0   4 -11 37552.0 1559.39  45
   0   4 -12 14284.7 917.152  49
   0   4 -12 9125.13 643.023  45
   0   4 -13 69353.9 1678.61  49
   1   4  15 51749.8 1777.12  30
   1   4  14 22054.1 1109.71  34
   1   4  14 22953.8 1265.82  30
   1   4  14 20856.0 1143.87  46
   1   4  13 53962.3 1999.59  34
   1   4  13 52231.0 2023.83  30
   1   4  13 53961.9 1983.98  46
   1   4  12 27350.3 1462.76  34
   1   4  12 27737.4 1423.01  30
   1   4  12 25310.8 1337.76  46
   1   4  11 34099.0 1669.06  34
   1   4  11 32851.2 1524.03  30
   1   4  11 35774.4 1530.94  46
   1   4  10 94137.1 6911.38   7
   1   4  10 98969.8 2935.78  34
   1   4  10 92101.5 2590.79  30
   1   4  10 97114.4 2575.09  46
   1   4   9 5005.43 1701.52   7
   1   4   8 142531. 8185.48   7
   1   4   7 62167.8 5255.38   7
   1   4   7 57249.6 3374.15   4
   1   4   6 89780.4 6173.61   7
   1   4   6 84665.3 4082.14   4
   1   4   5 228333. 10194.1   7
   1   4   5 224103. 6842.18   4
   1   4   4 21448.1 1968.39   4
   1   4   3 224813. 6805.63   4
   1   4   2 116422. 4836.90   4
   1   4   1 403834. 10484.7   4
   1   4   1 415261. 10633.4  18
   1   4   0 179741. 6603.25   4
   1   4   0 187823. 6853.95  18
   1   4  -1 246942. 8146.96  18
   1   4  -1 239642. 4703.12  14
   1   4  -2 394023. 11077.6  18
   1   4  -2 398901. 6910.22  14
   1   4  -3 6256.65 1029.17   4
   1   4  -3 5259.26 1266.56  18
   1   4  -3 6273.29 684.650  14
   1   4  -4 151159. 7041.74  18
   1   4  -4 157773. 3857.17  14
   1   4  -5 32928.6 3280.50  18
   1   4  -5 37720.2 1774.13  14
   1   4  -6 23354.1 2738.83  18
   1   4  -6 22713.9 1439.53  14
   1   4  -7 47641.9 2192.04  14
   1   4  -8 19484.1 1422.04  14
   1   4  -8 20101.9 2443.76  11
   1   4 -10 17351.8 1263.52  14
   1   4 -11 29001.1 1200.79  43
   1   4 -12 56412.2 1626.71  45
   1   4 -13 6595.42 473.317  49
   2   4  15 4193.00 476.068  46
   2   4  14 109006. 2679.80  30
   2   4  14 109932. 2900.95  46
   2   4  13 10297.6 855.523  30
   2   4  13 9756.04 878.402  46
   2   4  12 64160.8 2172.54  34
   2   4  12 59193.3 2079.01  30
   2   4  12 64696.1 2259.32  46
   2   4  11 122389. 3320.27  34
   2   4  11 118137. 3066.28  30
   2   4  11 118925. 3191.93  46
   2   4  10 4060.37 604.935  36
   2   4  10 4596.36 1748.43   7
   2   4  10 4293.14 534.449  30
   2   4  10 4648.33 583.128  46
   2   4   9 141918. 3556.85  36
   2   4   9 142379. 9407.07   7
   2   4   9 135397. 3135.72  30
   2   4   9 132879. 4149.41  47
   2   4   9 144465. 3321.22  46
   2   4   8 19033.7 3622.55   7
   2   4   6 120931. 6839.68  23
   2   4   5 101403. 4770.67   4
   2   4   5 108820. 5758.91  23
   2   4   4 506103. 11977.5   4
   2   4   4 519973. 12893.8  23
   2   4   3 117637. 4854.20  18
   2   4   3 132927. 5319.03   4
   2   4   3 128174. 3749.33   3
   2   4   3 113829. 4899.95  23
   2   4   2 334009. 8961.37   4
   2   4   2 310037. 8050.48  23
   2   4   1 364176. 9948.76  18
   2   4   1 383193. 8741.59  23
   2   4   0 259182. 8026.21  18
   2   4   0 244309. 6300.36  23
   2   4  -1 274728. 8392.36   4
   2   4  -1 234142. 7857.13  18
   2   4  -2 6793.95 1408.58  18
   2   4  -2 8090.66 804.709  14
   2   4  -3 285694. 9526.80  18
   2   4  -3 263269. 5617.70  14
   2   4  -4 108634. 5992.09  18
   2   4  -4 102309. 3190.46  14
   2   4  -5 111968. 6348.97  18
   2   4  -5 107487. 3398.56  14
   2   4  -6 125039. 6965.11  18
   2   4  -6 140782. 4060.99  14
   2   4  -7 19635.7 2754.49  18
   2   4  -7 24805.1 1632.53  14
   2   4  -8 112825. 6346.29  18
   2   4  -8 133378. 3985.71  14
   2   4  -9 17727.1 1326.26  14
   2   4 -11 46137.7 1542.16  43
   2   4 -12 23493.2 890.654  45
   2   4 -12 22733.1 803.844  43
   3   4  15 64141.8 1755.39  46
   3   4  14 1617.11 416.676  46
   3   4  13 42046.9 1754.83  46
   3   4  12 28996.0 1507.21  46
   3   4  11 36113.7 1806.87  36
   3   4  11 38171.2 1733.19  46
   3   4  10 108929. 3251.36  36
   3   4  10 100205. 3579.64  47
   3   4  10 109391. 3039.24  46
   3   4   9 1326.35 440.209  36
   3   4   9 611.613 471.657  47
   3   4   9 1209.32 390.549  46
   3   4   8 117946. 3179.55  36
   3   4   8 115994. 5101.82  47
   3   4   8 118087. 3018.56  46
   3   4   8 115837. 7884.39  23
   3   4   7 13940.6 2600.99  23
   3   4   7 14687.3 963.850  36
   3   4   7 15222.3 1708.04  47
   3   4   7 15119.6 918.099  46
   3   4   6 43625.5 4140.26  23
   3   4   5 203872. 8327.37  23
   3   4   4 14153.8 1969.69  23
   3   4   3 253727. 6959.46   3
   3   4   3 230912. 7753.99  23
   3   4   2 23895.3 2344.46  18
   3   4   2 24535.2 2112.28   3
   3   4   2 23521.5 2185.24  23
   3   4   1 205090. 7259.69  18
   3   4   1 210813. 7221.58   3
   3   4   1 211988. 6681.70   9
   3   4   1 192082. 6285.33  23
   3   4   0 146440. 6203.19  18
   3   4   0 153663. 5877.46   9
   3   4   0 147420. 5083.63  23
   3   4  -1 3249.92 1054.01  18
   3   4  -1 4722.88 1124.86   9
   3   4  -2 60900.5 4238.53  18
   3   4  -2 63517.7 4133.80   9
   3   4  -3 802.444 890.872  18
   3   4  -3 573.535 743.964   9
   3   4  -4 180317. 8354.69  18
   3   4  -4 170970. 7882.13   9
   3   4  -5 64077.0 5027.28  18
   3   4  -5 56440.0 2068.97  28
   3   4  -6 57443.4 4854.62  18
   3   4  -7 155642. 8179.13  18
   3   4  -8 1280.20 1053.34  18
   3   4  -9 26134.3 1287.20  38
   4   4  14 62087.4 1700.12  46
   4   4  13 30636.3 1325.92  46
   4   4  12 16451.3 1056.19  46
   4   4  11 52477.3 2146.60  36
   4   4  11 56494.7 2071.85  46
   4   4  10 7894.86 888.753  36
   4   4  10 6129.60 862.653  47
   4   4  10 8752.30 843.097  46
   4   4   9 98220.5 3068.57  36
   4   4   9 97212.8 2835.17  46
   4   4   8 9793.12 2490.45  23
   4   4   8 10335.8 944.755  36
   4   4   8 9848.98 1705.19  47
   4   4   8 9359.85 847.365  46
   4   4   7 93089.5 2796.65  36
   4   4   7 89944.6 4337.68  47
   4   4   7 86972.7 2599.79  46
   4   4   7 88388.4 6779.54  23
   4   4   6 117797. 3149.31  36
   4   4   6 115218. 4196.86  50
   4   4   6 123558. 4637.62  47
   4   4   6 118322. 3002.95  46
   4   4   6 126029. 7545.86  23
   4   4   5 3747.18 1431.20  23
   4   4   5 3785.39 518.792  36
   4   4   5 3465.32 697.704  50
   4   4   5 4895.92 897.088  47
   4   4   4 87485.9 2401.58  36
   4   4   4 89396.6 3223.60  50
   4   4   4 87784.5 3337.53  47
   4   4   4 77296.8 3126.97  28
   4   4   4 89214.6 5492.00  23
   4   4   3 18913.5 1384.74  50
   4   4   3 17351.6 1352.83  47
   4   4   3 19129.9 1441.57  28
   4   4   3 15804.5 2231.81  23
   4   4   2 156187. 4140.89  50
   4   4   2 144330. 6384.84   3
   4   4   2 153237. 4118.26  47
   4   4   2 134828. 3960.42  28
   4   4   2 136180. 6215.28  23
   4   4   1 17608.1 2033.35  23
   4   4   1 20814.3 2548.64  18
   4   4   1 19168.2 1327.37  50
   4   4   1 19086.9 2426.14   3
   4   4   1 17756.1 1247.86  47
   4   4   0 37352.5 2836.78  23
   4   4   0 37823.9 3422.51  18
   4   4   0 38269.0 3703.72   3
   4   4   0 44657.1 2028.86  50
   4   4   0 42568.7 1873.17  47
   4   4  -1 84221.7 5323.93  18
   4   4  -1 87167.6 2943.48  50
   4   4  -1 83171.7 2642.29  47
   4   4  -1 85427.9 6123.84   3
   4   4  -1 82557.1 4834.09   9
   4   4  -2 904.041 923.260  18
   4   4  -2 1527.87 491.917  50
   4   4  -2 604.873 897.886   3
   4   4  -2 705.827 745.934   9
   4   4  -3 145914. 7613.11  18
   4   4  -3 157781. 10258.1   3
   4   4  -3 152669. 4088.65  50
   4   4  -3 147444. 7263.88   9
   4   4  -4 8343.59 2000.06  18
   4   4  -4 7757.55 840.150  50
   4   4  -4 9838.62 1991.60   9
   4   4  -5 62013.1 5127.71  18
   4   4  -5 58485.3 2333.20  28
   4   4  -6 130648. 7452.01  18
   4   4  -6 119976. 3365.74  28
   4   4  -7 2664.76 1268.78  18
   4   4  -7 3484.19 600.241  44
   4   4  -9 7182.37 686.264  38
   4   4 -10 51589.9 1250.34  38
   5   4  12 18905.6 854.463  46
   5   4  11 21469.0 1054.53  46
   5   4  10 53894.4 2037.94  36
   5   4  10 52586.9 1826.06  46
   5   4   9-127.455 412.369  36
   5   4   9-271.641 546.026  47
   5   4   9 142.553 269.983  46
   5   4   8 100773. 3007.70  36
   5   4   8 100342. 4687.94  47
   5   4   8 100993. 7161.43  23
   5   4   7 24439.9 1377.76  36
   5   4   7 26412.6 2480.36  47
   5   4   7 25035.4 3690.67  23
   5   4   6 95976.8 4070.96  50
   5   4   6 92468.7 2801.69  36
   5   4   6 100723. 4421.22  47
   5   4   6 93505.1 6703.76  23
   5   4   5 92388.3 2718.10  36
   5   4   5 94756.9 3852.83  50
   5   4   5 100769. 4167.58  47
   5   4   5 90773.6 6323.14  23
   5   4   4 20441.7 1147.59  36
   5   4   4 21164.2 1736.66  50
   5   4   4 22938.8 1882.12  47
   5   4   4 19323.9 1675.03  28
   5   4   4 18715.6 2751.61  23
   5   4   3 206065. 5615.33  50
   5   4   3 207627. 5679.26  47
   5   4   3 188460. 5531.02  28
   5   4   3 195506. 8626.64  23
   5   4   2 2268.94 1062.11  23
   5   4   2 2720.38 765.836  50
   5   4   2 1016.59 572.819  47
   5   4   1 83664.5 3261.51  50
   5   4   1 87097.4 3212.07  47
   5   4   1 91506.3 3382.03  28
   5   4   1 79852.1 4807.82  23
   5   4   0 80460.0 3135.73  50
   5   4   0 85805.7 3203.66  28
   5   4  -1 34589.2 3634.09  18
   5   4  -1 33374.6 1985.52  50
   5   4  -1 31655.3 1755.47  47
   5   4  -1 41106.8 2245.92  28
   5   4  -2 163417. 7973.16  18
   5   4  -2 164736. 4669.41  50
   5   4  -2 166516. 4223.86  47
   5   4  -2 157701. 4497.71  28
   5   4  -3 11051.2 2240.68  18
   5   4  -3 7370.83 941.996  50
   5   4  -4 56161.8 4800.42  18
   5   4  -4 55577.3 2339.64  50
   5   4  -4 61012.8 2532.96  28
   5   4  -5 37552.6 1884.04  28
   5   4  -6 17116.7 1145.24  28
   5   4  -7 56921.5 1954.23  44
   5   4  -8 7028.27 679.971  38
   6   4   8 21820.9 1368.53  47
   6   4   7 54591.2 2933.68  47
   6   4   6 30686.7 2413.96  47
   6   4   5 9570.63 1218.69  50
   6   4   5 11739.9 1498.51  47
   6   4   4 59765.7 2914.62  50
   6   4   4 67341.1 3233.13  47
   6   4   3 443.250 560.631  50
   6   4   3 1457.42 780.832  47
   6   4   3 903.649 477.889  28
   6   4   2 50424.4 2578.18  50
   6   4   2 54280.2 2630.10  47
   6   4   2 45043.2 2395.46  28
   6   4   1 15489.2 1465.96  50
   6   4   1 17026.2 1429.91  47
   6   4   1 20171.8 1643.88  28
   6   4   0 34797.3 2067.41  50
   6   4   0 33622.9 1911.25  47
   6   4  -1 61942.2 2706.87  50
   6   4  -1 62011.5 2464.70  47
   6   4  -1 69554.2 2778.06  28
   6   4  -2 838.384 499.860  50
   6   4  -2 1114.25 405.960  47
   6   4  -3 42105.8 1941.07  50
   6   4  -3 46775.9 2112.29  28
   6   4  -4 5616.47 658.029  50
   6   4  -4 9893.06 941.974  28
   6   4  -5 26743.7 1266.13  28
   6   4  -5 27344.2 1355.08  44
   6   4  -6 21700.8 959.064  38
   6   4  -6 13200.9 718.057  44
   7   4   5 43111.8 1679.03  47
   7   4   4 318.876 340.709  47
   7   4   3 38680.5 1951.56  47
   7   4   2 9362.36 938.467  47
   7   4   1 21517.3 1303.88  47
   7   4   1 19506.0 874.006  28
   7   4   1 23030.0 1376.40  50
   7   4   0 26905.4 1445.05  50
   7   4   0 25991.3 1302.37  47
   7   4   0 28108.4 1115.45  28
   7   4  -1 18938.1 892.915  28
  -6   5   9 20455.5 903.915  33
  -6   5   8 83243.9 2238.54  33
  -6   5   7 4372.58 545.903  33
  -6   5   6 42779.9 1730.52  33
  -6   5   5 24550.7 1359.30  33
  -6   5   5 21090.4 1102.12  49
  -6   5   4 50713.4 2016.58  33
  -6   5   4 42026.0 1667.34  49
  -6   5   3 55540.5 2169.48  33
  -6   5   3 45477.6 1805.05  49
  -6   5   2 1925.88 518.762  33
  -6   5   2 2025.76 495.266  49
  -6   5   1 31974.6 1708.50  33
  -6   5   1 27874.0 1450.05  49
  -6   5   0 2545.87 532.943  49
  -6   5  -1 25285.0 1363.48  49
  -6   5  -2 21388.7 1209.01  49
  -6   5  -3 19077.5 1077.09  49
  -6   5  -4 56387.1 1770.74  49
  -6   5  -5-38.2357 168.863  49
  -5   5  11 2867.37 429.547  33
  -5   5  11 13856.4 807.888  51
  -5   5  10 50289.6 1781.68  33
  -5   5  10 49283.8 1692.56  51
  -5   5   9 86258.9 2563.17  33
  -5   5   9 80168.9 2393.04  51
  -5   5   8 7031.54 815.650  33
  -5   5   8 6445.53 693.300  51
  -5   5   7 96922.3 2933.45  33
  -5   5   7 92473.5 2723.56  51
  -5   5   6 3446.22 664.283  33
  -5   5   6 3080.48 524.100  49
  -5   5   5 75971.8 2663.07  33
  -5   5   5 59824.6 2280.53  49
  -5   5   4 11964.4 1038.49  49
  -5   5   4 15941.3 1295.47  43
  -5   5   3 60373.7 2407.54  49
  -5   5   3 71263.7 2759.92  43
  -5   5   2 135197. 3926.21  49
  -5   5   2 155578. 4403.80  43
  -5   5   1 674.864 471.569  49
  -5   5   1 506.760 568.696  43
  -5   5   0 95753.9 3343.32  49
  -5   5   0 105797. 3837.10  43
  -5   5  -1 39883.9 2111.15  49
  -5   5  -1 42540.2 2501.16  43
  -5   5  -2 70857.7 2850.19  49
  -5   5  -2 70587.7 3471.66  43
  -5   5  -3 70926.1 2807.85  49
  -5   5  -3 64098.1 3111.13  43
  -5   5  -4 4383.18 781.900  49
  -5   5  -4 3123.68 633.669  43
  -5   5  -5 77023.7 2692.40  49
  -5   5  -6 5352.28 681.423  49
  -5   5  -7 39884.5 1417.17  49
  -5   5  -8 32669.2 1002.60  49
  -4   5  13 74737.6 2034.24  51
  -4   5  12 2135.99 413.707  33
  -4   5  12 5831.36 722.237  51
  -4   5  11 67851.7 2217.04  33
  -4   5  11 71439.4 2318.41  51
  -4   5  10 40130.6 1746.33  33
  -4   5  10 41864.1 1815.33  51
  -4   5   9 37926.3 1739.10  33
  -4   5   9 37056.0 1757.05  51
  -4   5   8 77141.1 2596.84  33
  -4   5   8 79253.9 2625.52  51
  -4   5   7 2076.08 530.936  33
  -4   5   7 2399.59 556.281  51
  -4   5   6 214032. 4750.28  51
  -4   5   5 9910.55 858.803  51
  -4   5   5 8379.82 797.592  49
  -4   5   5 9092.00 893.879  43
  -4   5   4 13221.3 985.221  51
  -4   5   4 10461.0 903.072  49
  -4   5   4 12266.3 1039.07  43
  -4   5   4 14390.6 2157.21   5
  -4   5   3 138587. 3796.64  43
  -4   5   3 145489. 6878.62   5
  -4   5   2 2279.79 533.934  49
  -4   5   2 2546.25 620.475  43
  -4   5   2 2706.67 984.588   5
  -4   5   1 107168. 3438.07  49
  -4   5   1 130426. 3909.82  43
  -4   5   0 7959.78 1670.31   4
  -4   5   0 9805.44 1017.15  49
  -4   5   0 10199.5 1153.54  43
  -4   5  -1 148437. 4710.96  43
  -4   5  -1 155051. 7743.21   4
  -4   5  -2 126013. 4028.07  49
  -4   5  -2 138263. 4865.17  43
  -4   5  -3 3830.42 768.192  49
  -4   5  -3 3855.39 1001.64  43
  -4   5  -4 50206.8 2460.96  49
  -4   5  -4 49063.0 2933.14  43
  -4   5  -5 4684.89 846.621  49
  -4   5  -5 3384.60 709.116  43
  -4   5  -6 91207.4 3196.79  49
  -4   5  -6 79663.5 2686.85  43
  -4   5  -7 22834.9 1415.35  49
  -4   5  -8 36089.8 1525.70  49
  -4   5  -9 35081.4 1249.76  49
  -3   5  14 93202.9 2356.47  51
  -3   5  13 13725.6 1026.28  51
  -3   5  12 115073. 2991.82  33
  -3   5  12 121199. 3231.19  51
  -3   5  11 99710.6 2860.38  33
  -3   5  11 104867. 3068.02  51
  -3   5  10 52480.6 2016.52  33
  -3   5  10 56880.2 2181.49  51
  -3   5   9 30803.0 2299.50  34
  -3   5   9 31166.7 1514.66  33
  -3   5   9 35308.1 1669.90  51
  -3   5   8 48119.1 3087.94  34
  -3   5   8 49824.0 1905.92  33
  -3   5   8 48920.7 1964.76  51
  -3   5   7 229353. 7491.18  34
  -3   5   7 229767. 4886.16  51
  -3   5   7 245447. 9632.94   5
  -3   5   6 9457.07 1174.44  34
  -3   5   6 10106.0 834.737  51
  -3   5   6 9113.97 745.113  43
  -3   5   6 9181.29 1771.54   5
  -3   5   5 130424. 3206.81  51
  -3   5   5 124728. 3116.51  43
  -3   5   4 124216. 6077.81   5
  -3   5   3 18212.9 2258.18   5
  -3   5   3 16820.2 2037.52   4
  -3   5   2 276238. 9319.19   4
  -3   5   1 56893.4 4219.73   4
  -3   5  -1 34906.0 3382.41   2
  -3   5  -1 34563.7 1728.05  49
  -3   5  -1 37279.9 2115.72  43
  -3   5  -2 50742.9 4199.48   2
  -3   5  -2 47505.3 2154.88  49
  -3   5  -2 45253.1 2468.85  43
  -3   5  -3 131291. 3913.07  49
  -3   5  -3 119022. 4240.66  43
  -3   5  -4 432.941 431.938  49
  -3   5  -4 726.811 732.445   2
  -3   5  -4 212.572 468.220  43
  -3   5  -5 178234. 4837.38  49
  -3   5  -5 174324. 4998.92  43
  -3   5  -6 10453.3 1112.22  49
  -3   5  -6 9841.42 993.679  43
  -3   5  -6 10613.3 890.339  41
  -3   5  -7 45757.3 2163.00  49
  -3   5  -7 41725.4 1822.12  43
  -3   5  -7 44137.2 1816.23  41
  -3   5  -8 41444.8 1892.97  49
  -3   5  -8 40742.3 1635.69  41
  -3   5  -9 6370.19 722.137  49
  -3   5  -9 5228.55 524.047  41
  -3   5 -10 54160.7 1649.33  49
  -3   5 -10 50608.2 1396.69  41
  -3   5 -11 351.009 151.374  49
  -2   5  14 15309.5 1004.35  51
  -2   5  14 14470.0 1033.75  30
  -2   5  13 77669.3 2885.68  34
  -2   5  13 70567.6 2324.56  51
  -2   5  13 76807.8 2323.44  30
  -2   5  12 3899.03 833.052  34
  -2   5  12 3841.45 628.713  51
  -2   5  11 138274. 4323.29  34
  -2   5  11 124754. 3416.41  51
  -2   5  11 134758. 3315.97  30
  -2   5  10 39571.7 2254.93  34
  -2   5  10 40728.4 1741.72  51
  -2   5  10 39173.9 1593.84  30
  -2   5   9 61343.7 5416.99   7
  -2   5   9 68532.8 2993.78  34
  -2   5   9 68245.3 2074.24  33
  -2   5   9 67410.1 2272.92  51
  -2   5   9 68744.8 2090.90  30
  -2   5   8 128414. 7783.29   7
  -2   5   8 143025. 4471.02  34
  -2   5   8 138620. 3140.45  33
  -2   5   8 139450. 3345.34  51
  -2   5   8 133543. 3059.17  30
  -2   5   7 23744.7 3058.75   7
  -2   5   5 54165.0 3395.47   4
  -2   5   4 91416.7 4557.58   4
  -2   5   3 97769.7 4858.68   4
  -2   5   2 69639.8 4214.12   4
  -2   5   1 146537. 6498.05   4
  -2   5   0 6848.72 1494.36   4
  -2   5  -1 244678. 8744.69   2
  -2   5  -2 89032.9 5276.20   2
  -2   5  -3 76868.9 4959.77   2
  -2   5  -4 91242.7 5525.09   2
  -2   5  -4 83483.5 2816.36  49
  -2   5  -4 83939.6 3094.32  45
  -2   5  -4 84827.3 2908.10  43
  -2   5  -5 2228.28 608.961  49
  -2   5  -5 1303.13 772.282   2
  -2   5  -5 1465.46 516.570  45
  -2   5  -5 2091.64 550.849  43
  -2   5  -6 263556. 5896.33  49
  -2   5  -6 255139. 5993.35  45
  -2   5  -6 248367. 5535.37  43
  -2   5  -7 39432.4 1972.40  49
  -2   5  -7 36761.3 1925.19  45
  -2   5  -7 37247.1 1722.67  43
  -2   5  -8 13224.1 1146.18  49
  -2   5  -8 11582.3 1066.63  45
  -2   5  -8 12276.1 914.298  43
  -2   5  -9 76659.9 2510.09  49
  -2   5  -9 75958.5 2526.37  45
  -2   5  -9 75933.7 2324.58  41
  -2   5 -10 1337.97 431.631  49
  -2   5 -10 3277.01 474.598  41
  -2   5 -11 90296.2 2161.39  49
  -2   5 -11 83495.1 1934.66  41
  -1   5  15 24801.2 1248.05  30
  -1   5  14 52462.7 2117.07  34
  -1   5  14 52805.4 1801.07  51
  -1   5  13 198.897 447.742  34
  -1   5  13 367.146 351.610  51
  -1   5  12 142232. 4132.78  34
  -1   5  12 133195. 3415.23  51
  -1   5  12 138308. 3508.32  30
  -1   5  11 34516.6 1937.37  34
  -1   5  11 31216.1 1465.35  51
  -1   5  11 30739.1 1474.67  30
  -1   5  10 76678.2 5869.53   7
  -1   5  10 82912.6 3045.56  34
  -1   5  10 77187.9 2349.01  51
  -1   5  10 75947.4 2338.38  30
  -1   5   9 99797.8 6510.69   7
  -1   5   9 114815. 3551.56  34
  -1   5   9 105036. 2723.70  51
  -1   5   9 108435. 2741.53  30
  -1   5   8 58428.0 4720.28   7
  -1   5   8 66451.5 3476.18   4
  -1   5   7 178592. 7956.88   7
  -1   5   7 191515. 6334.12   4
  -1   5   6 76133.7 4666.85   7
  -1   5   6 80044.0 3982.87   4
  -1   5   5 245252. 7877.28   7
  -1   5   5 261212. 7980.41   4
  -1   5   4 89248.1 4554.05   4
  -1   5   4 95818.0 4126.35   7
  -1   5   3 144447. 5803.78   4
  -1   5   3 150294. 4620.52   7
  -1   5   2 513200. 12366.8   4
  -1   5   1 23688.2 2358.49   4
  -1   5   0 189996. 7168.62   4
  -1   5  -1 131647. 5720.70   2
  -1   5  -1 127686. 5966.15   4
  -1   5  -2 263557. 8666.30   2
  -1   5  -2 248509. 4607.44  14
  -1   5  -3 268078. 8955.46   2
  -1   5  -3 253751. 4855.32  14
  -1   5  -4 13658.5 1973.92   2
  -1   5  -4 11374.8 838.060  14
  -1   5  -5 77727.2 4813.42   2
  -1   5  -5 74673.4 2395.05  14
  -1   5  -5 79994.9 2668.38  45
  -1   5  -5 80825.0 2587.02  43
  -1   5  -6 32018.2 3098.94   2
  -1   5  -6 30844.6 1523.93  14
  -1   5  -6 33199.6 1681.35  45
  -1   5  -6 29849.0 1508.29  43
  -1   5  -7 21537.7 1300.21  14
  -1   5  -7 23705.4 1427.54  45
  -1   5  -7 21546.0 1254.83  43
  -1   5  -8 62453.5 2273.38  14
  -1   5  -8 63192.1 2362.44  45
  -1   5  -8 59323.1 2091.18  43
  -1   5  -9 12751.1 1021.71  45
  -1   5  -9 11985.1 835.910  43
  -1   5 -10 79823.2 2429.45  49
  -1   5 -10 76207.9 2346.08  45
  -1   5 -10 74585.3 2003.88  43
  -1   5 -11 5109.31 563.141  49
  -1   5 -11 4619.07 490.304  45
  -1   5 -12 41049.3 1198.07  49
  -1   5 -12 37303.9 1059.30  41
   0   5  15 44176.1 1635.97  34
   0   5  15 54495.2 1855.64  30
   0   5  14 2577.88 543.192  34
   0   5  14 9109.01 965.876  30
   0   5  13 149054. 3972.45  34
   0   5  13 143180. 3655.94  30
   0   5  12 18100.4 1362.49  34
   0   5  12 19792.7 1246.14  30
   0   5  11 157329. 4274.45  34
   0   5  11 152462. 3709.27  30
   0   5  11 155464. 3626.40  46
   0   5  10 173782. 8851.94   7
   0   5  10 184222. 4649.36  34
   0   5  10 179658. 3863.97  46
   0   5  10 176393. 3949.15  30
   0   5   9 26218.1 3232.68   7
   0   5   9 30331.8 1637.58  34
   0   5   9 28165.0 1268.71  30
   0   5   8 162904. 7747.76   7
   0   5   8 183114. 6584.18   4
   0   5   7 11941.7 1927.27   7
   0   5   7 12926.1 1669.47   4
   0   5   6 172088. 7009.03   7
   0   5   6 199372. 6809.51   4
   0   5   5 108983. 4953.85   4
   0   5   5 96695.2 4683.73   7
   0   5   4 406542. 10918.4   4
   0   5   4 407017. 9627.42   7
   0   5   3 396841. 10982.9   4
   0   5   3 465889. 8950.71   7
   0   5   2 34807.3 2756.46   4
   0   5   1 375435. 9934.29   4
   0   5   0 54153.7 3383.76   4
   0   5  -1 226227. 7358.50   4
   0   5  -2 28290.6 1321.38  14
   0   5  -2 30234.8 2560.52   4
   0   5  -3 107246. 4878.41   2
   0   5  -3 106538. 2910.80  14
   0   5  -3 112089. 4289.96  11
   0   5  -3 103822. 5001.13   4
   0   5  -4 176922. 6535.17   2
   0   5  -4 161212. 3925.00  14
   0   5  -4 171626. 5784.29  11
   0   5  -4 170017. 6536.08   4
   0   5  -5 671.192 498.573   4
   0   5  -5 546.137 335.042  14
   0   5  -5 450.945 396.834   2
   0   5  -5 647.247 494.100  11
   0   5  -6 87359.2 2878.59  14
   0   5  -7 41978.2 1986.05  14
   0   5  -7 41578.6 1742.96  43
   0   5  -8 54594.6 2306.60  14
   0   5  -8 56587.5 2020.71  43
   0   5  -9 122561. 3464.33  14
   0   5  -9 117110. 3207.64  45
   0   5  -9 113260. 2931.92  43
   0   5 -10 7899.24 744.956  45
   0   5 -10 6868.48 590.728  43
   0   5 -11 57747.1 1782.96  45
   0   5 -11 56552.5 1521.58  43
   0   5 -12 15482.7 748.817  49
   0   5 -12 14939.8 665.395  45
   1   5  15 12883.4 762.331  34
   1   5  15 19060.9 1149.25  30
   1   5  14 73455.5 2340.02  34
   1   5  14 73907.0 2296.21  46
   1   5  13 6198.97 748.530  34
   1   5  13 5842.89 675.013  46
   1   5  12 59332.8 2364.23  34
   1   5  12 61226.8 2174.12  30
   1   5  12 61116.8 2170.45  46
   1   5  11 3592.43 665.386  34
   1   5  11 3963.03 619.203  30
   1   5  11 4247.21 594.207  46
   1   5  10 19282.1 3003.85   7
   1   5  10 20622.9 1159.46  30
   1   5  10 19685.3 1400.13  47
   1   5  10 20128.0 1145.88  46
   1   5   9 91853.5 6411.93   7
   1   5   9 95421.1 2570.17  30
   1   5   9 92984.8 3163.68  47
   1   5   9 96756.9 2579.29  46
   1   5   8 11418.2 2246.19   7
   1   5   7 174561. 8317.18   7
   1   5   7 176714. 6875.12   4
   1   5   6 5075.54 1416.94   7
   1   5   6 5464.82 1246.65   4
   1   5   5 85274.6 5198.38   7
   1   5   5 95835.8 4854.19   4
   1   5   4 101945. 5044.98   4
   1   5   4 90790.3 5016.48   7
   1   5   3 67562.6 4222.63   4
   1   5   3 68212.0 3855.00   7
   1   5   2 294182. 9648.76   4
   1   5   1 2551.65 905.600   4
   1   5   0 216184. 7318.98   4
   1   5  -1 18527.8 1972.81   4
   1   5  -1 20182.4 2406.28  18
   1   5  -2 100655. 4555.18   4
   1   5  -2 110212. 5769.95  18
   1   5  -2 105945. 2953.38  14
   1   5  -3 183329. 6224.35   4
   1   5  -3 185556. 4339.82  14
   1   5  -4 10547.3 1929.76  18
   1   5  -4 9857.02 948.772  14
   1   5  -5 59402.7 2048.31  38
   1   5  -5 63355.8 2463.97  14
   1   5  -6 2411.05 432.193  38
   1   5  -6 2882.09 630.773  14
   1   5  -7 208408. 5129.24  14
   1   5  -7 192287. 7200.85  11
   1   5  -9 8064.96 864.229  14
   1   5  -9 11960.1 955.461  43
   1   5 -10 50395.9 1690.91  43
   1   5 -11 373.824 254.460  45
   1   5 -11 229.192 192.823  43
   1   5 -12 43337.0 1253.89  49
   1   5 -12 40437.8 1118.07  45
   2   5  15 46821.4 1568.18  46
   2   5  14 20126.0 1001.65  34
   2   5  14 19540.5 1127.17  46
   2   5  13 68401.2 2258.45  34
   2   5  13 69958.2 2355.27  46
   2   5  12 3079.14 586.092  34
   2   5  12 4237.39 643.939  30
   2   5  12 3829.64 623.212  46
   2   5  11 84306.0 2880.33  34
   2   5  11 83231.5 2515.55  30
   2   5  11 84848.3 2987.26  47
   2   5  11 86962.2 2683.90  46
   2   5  10 56900.1 1979.01  30
   2   5  10 54837.7 2466.44  47
   2   5  10 59619.5 2121.07  46
   2   5   9 27962.7 3901.49   7
   2   5   9 24972.7 1229.43  30
   2   5   9 25160.8 1725.34  47
   2   5   9 26098.1 1326.55  46
   2   5   8 104433. 2940.51  36
   2   5   8 106887. 7807.31   7
   2   5   8 93303.6 2522.33  30
   2   5   8 104590. 3767.89  47
   2   5   8 106754. 2761.85  46
   2   5   7 7142.32 2203.49   7
   2   5   6 436676. 12253.9   4
   2   5   5 217257. 8193.97   4
   2   5   4 54620.0 3904.21   4
   2   5   4 48237.6 3831.43  23
   2   5   3 50854.1 3786.78   4
   2   5   3 45991.8 3542.76  23
   2   5   2 1078.32 555.040  23
   2   5   2 2386.79 1069.73  18
   2   5   2 1084.48 679.331   4
   2   5   1 461017. 13292.8   4
   2   5   1 429967. 12334.7  18
   2   5   0 5522.88 1490.73  18
   2   5   0 5856.59 1491.11   4
   2   5  -1 85132.0 5297.35  18
   2   5  -2 152141. 7416.51  18
   2   5  -3 38841.1 3862.11  18
   2   5  -4 269452. 10853.9  18
   2   5  -4 273855. 5963.54  14
   2   5  -4 280661. 6150.81  44
   2   5  -5 21423.8 3043.89  18
   2   5  -5 23287.5 1501.58  14
   2   5  -5 18431.8 1229.74  44
   2   5  -6 141380. 7484.03  18
   2   5  -6 146467. 4110.27  14
   2   5  -7 66568.0 2323.68  38
   2   5  -7 77325.1 2822.69  14
   2   5  -8 33464.1 1423.36  38
   2   5  -8 33549.7 1781.84  14
   2   5 -10 11424.5 841.364  43
   2   5 -11 96507.2 2194.71  45
   2   5 -11 92263.4 2051.87  43
   2   5 -12 16587.9 644.138  49
   3   5  15 32036.3 1163.12  46
   3   5  14 53935.2 1807.99  46
   3   5  13 547.369 414.223  46
   3   5  12 58573.3 2045.87  34
   3   5  12 61482.4 2240.16  46
   3   5  11 13803.4 1159.76  47
   3   5  11 14421.2 1107.43  46
   3   5  10 60920.5 2748.53  47
   3   5  10 64127.7 2287.39  46
   3   5   9 112610. 3294.64  36
   3   5   9 104396. 4014.93  47
   3   5   9 107692. 3043.85  46
   3   5   8 54102.3 2114.40  36
   3   5   8 48941.9 6232.07   7
   3   5   8 57739.6 3319.39  47
   3   5   8 53890.9 2011.89  46
   3   5   7 114276. 3151.77  36
   3   5   7 124943. 5486.59  47
   3   5   7 119332. 3108.37  46
   3   5   7 115195. 7631.03  23
   3   5   6 20677.1 1167.50  36
   3   5   6 20248.7 1733.56  50
   3   5   6 24588.4 2101.22  47
   3   5   6 21595.3 1141.72  46
   3   5   6 20570.6 3126.54  23
   3   5   5 154160. 4915.80  47
   3   5   5 151663. 7754.79  23
   3   5   4 32575.0 3232.39  23
   3   5   3 90075.6 5110.85  23
   3   5   2 181840. 7684.27  18
   3   5   2 190613. 6889.16   3
   3   5   2 194711. 7234.69  23
   3   5   1 162.790 453.475  23
   3   5   1 1084.04 1143.28  18
   3   5   0 99057.4 5821.23  18
   3   5  -1 40163.4 3786.09  18
   3   5  -1 39173.3 1825.88  28
   3   5  -2 39300.8 3882.79  18
   3   5  -2 45249.1 2086.31  50
   3   5  -2 39320.4 1851.72  28
   3   5  -3 97865.8 6387.28  18
   3   5  -3 90849.0 2998.50  28
   3   5  -4-337.492 1352.54  18
   3   5  -4 1270.83 431.770  28
   3   5  -5 123899. 7482.99  18
   3   5  -5 118087. 3867.92  44
   3   5  -6 27393.5 3516.60  18
   3   5  -6 26527.4 1546.13  44
   3   5  -7 67738.2 5028.61  18
   3   5  -8 23947.8 1255.06  38
   3   5  -9 3327.50 406.270  38
   3   5 -11 8871.86 450.113  43
   4   5  14 3750.10 393.513  46
   4   5  13 50338.0 1693.46  46
   4   5  12 18367.9 1101.93  46
   4   5  11 69162.3 2416.76  47
   4   5  11 72593.0 2361.94  46
   4   5  10 65602.4 2762.29  47
   4   5  10 69860.8 2359.19  46
   4   5   9 15139.1 1171.45  36
   4   5   9 14528.5 1494.63  47
   4   5   9 16556.9 1128.74  46
   4   5   8 109532. 3224.97  36
   4   5   8 109349. 4997.04  47
   4   5   8 109200. 3095.91  46
   4   5   7 1825.65 1310.63  23
   4   5   7 2156.87 537.767  36
   4   5   7 911.354 840.055  47
   4   5   7 1267.75 390.531  46
   4   5   6 112883. 3150.15  36
   4   5   6 112429. 4581.99  50
   4   5   6 119112. 4895.45  47
   4   5   6 112112. 3035.76  46
   4   5   6 126913. 7926.47  23
   4   5   5 48600.7 1877.49  36
   4   5   5 49490.2 2759.68  50
   4   5   5 52494.2 2927.29  47
   4   5   5 47236.1 2288.45  28
   4   5   5 50252.1 4672.35  23
   4   5   4 31831.4 1438.99  36
   4   5   4 32097.6 2104.97  50
   4   5   4 33197.0 2150.00  47
   4   5   4 27480.8 1943.80  28
   4   5   4 26498.1 3166.11  23
   4   5   3 65183.3 2885.71  50
   4   5   3 62673.5 2815.67  47
   4   5   3 58037.3 2768.86  28
   4   5   3 64247.3 4666.03  23
   4   5   2 34495.1 2067.67  50
   4   5   2 35437.1 1981.10  47
   4   5   2 31500.4 2011.88  28
   4   5   2 31605.4 3075.73  23
   4   5   1 83648.6 5614.02  18
   4   5   1 92834.0 3406.46  50
   4   5   1 81885.4 5457.02   3
   4   5   1 89193.8 3113.22  47
   4   5   1 82113.2 3164.50  28
   4   5   0 19041.5 2908.10  18
   4   5   0 17415.2 2771.61   3
   4   5   0 16062.7 1394.62  50
   4   5   0 16806.2 1255.93  47
   4   5   0 19906.0 1526.49  28
   4   5  -1 31552.8 3699.63  18
   4   5  -1 30239.6 4044.15   3
   4   5  -1 41766.8 2232.63  50
   4   5  -1 36240.8 1999.34  28
   4   5  -2 49789.0 4677.97  18
   4   5  -2 56222.0 2595.86  50
   4   5  -2 54194.5 2462.93  28
   4   5  -3 21752.0 3248.39  18
   4   5  -3 25812.5 1685.80  50
   4   5  -3 24637.1 1641.69  28
   4   5  -4 65406.5 5626.74  18
   4   5  -4 63052.1 2609.29  28
   4   5  -5 930.179 419.490  28
   4   5  -5 220.283 577.045  44
   4   5  -6 70242.1 2591.84  44
   4   5  -7 21617.8 1371.31  38
   4   5  -7 13241.4 891.471  44
   4   5  -8 48899.9 1678.03  38
   4   5  -9 50548.1 1326.11  38
   5   5  11 11418.9 731.639  46
   5   5  10 34076.8 1575.76  47
   5   5  10 36085.7 1432.60  46
   5   5   9 41222.9 2147.12  47
   5   5   9 45317.5 1698.20  46
   5   5   8 5005.08 1084.72  47
   5   5   7 65437.3 2310.21  36
   5   5   7 70537.0 4116.50  47
   5   5   6 3421.21 1485.87  23
   5   5   6 3493.08 568.012  36
   5   5   6 2846.09 1054.11  47
   5   5   5 131163. 4958.12  50
   5   5   5 143259. 5224.72  47
   5   5   5 126616. 3761.90  28
   5   5   5 133657. 7855.05  23
   5   5   4 81454.9 3670.41  50
   5   5   4 86400.6 3786.31  47
   5   5   4 86752.1 3299.22  28
   5   5   4 84362.9 5871.80  23
   5   5   3 53032.6 2842.29  50
   5   5   3 55563.7 2848.61  47
   5   5   3 47700.2 2647.82  28
   5   5   3 47515.3 4160.35  23
   5   5   2 84467.5 3512.51  50
   5   5   2 82735.7 3363.66  47
   5   5   2 73472.3 3251.48  28
   5   5   2 81834.5 5174.84  23
   5   5   1 808.904 648.359  50
   5   5   1 1239.55 588.364  47
   5   5   0 108279. 3919.39  50
   5   5   0 104721. 3560.06  47
   5   5   0 99327.2 3732.00  28
   5   5  -1 29090.0 3470.62  18
   5   5  -1 29135.1 1962.50  50
   5   5  -1 30994.1 1755.07  47
   5   5  -1 35819.7 2145.48  28
   5   5  -2 65933.5 2897.24  50
   5   5  -2 69414.2 2910.31  28
   5   5  -3 99339.2 3449.57  50
   5   5  -3 105911. 3561.76  28
   5   5  -4 7161.79 837.075  50
   5   5  -4 7614.33 929.217  28
   5   5  -5 76722.9 2539.27  28
   5   5  -5 78673.7 2762.27  44
   5   5  -6 10205.8 677.295  28
   5   5  -6 9679.99 759.495  44
   5   5  -7 40556.1 1355.88  38
   5   5  -7 33741.7 1082.63  44
   5   5  -8 26323.9 832.035  38
   6   5   8 64566.2 2202.20  47
   6   5   7-522.443 563.204  47
   6   5   6 37713.7 2449.16  47
   6   5   5 16208.9 1729.07  47
   6   5   4 22931.1 1828.29  50
   6   5   4 23589.3 1948.79  47
   6   5   4 21998.4 1187.97  28
   6   5   3 44511.7 2543.20  50
   6   5   3 48917.7 2596.34  47
   6   5   3 48622.4 2019.21  28
   6   5   2 1013.10 615.098  50
   6   5   2 1607.75 642.033  47
   6   5   2 407.500 434.096  28
   6   5   2 781.390 381.637  44
   6   5   1 54101.3 2670.50  50
   6   5   1 54582.8 2509.66  47
   6   5   1 57167.8 2426.26  28
   6   5   1 49041.4 2237.38  44
   6   5   0 15410.2 1384.53  50
   6   5   0 18284.4 1361.74  47
   6   5   0 19709.6 1463.51  28
   6   5   0 13883.9 1194.51  44
   6   5  -1 37515.0 1472.15  38
   6   5  -1 33215.2 1962.33  50
   6   5  -1 33320.1 1661.69  47
   6   5  -1 35151.7 1868.71  28
   6   5  -1 31242.0 1764.52  44
   6   5  -2 32675.7 1396.09  38
   6   5  -2 22073.9 1471.88  50
   6   5  -2 28865.1 1611.57  28
   6   5  -2 24880.1 1543.59  44
   6   5  -3 15230.7 1047.08  28
   6   5  -3 14461.9 1069.30  44
   6   5  -4 55298.1 1641.13  38
   6   5  -4 50854.8 1633.86  28
   6   5  -4 52001.7 1736.41  44
   6   5  -5 2014.24 323.488  38
   6   5  -5 258.600 175.294  44
  -6   6   8 16272.7 768.937  33
  -6   6   7 32942.9 1262.20  33
  -6   6   6 1218.62 345.249  33
  -6   6   5 57709.5 1970.25  33
  -6   6   4 1114.53 368.944  33
  -6   6   4 1638.28 289.758  49
  -6   6   3 49745.6 1905.84  33
  -6   6   3 49241.9 1534.37  49
  -6   6   2 42382.8 1751.89  33
  -6   6   2 47222.5 1526.63  49
  -6   6   1 3016.29 485.254  33
  -6   6   1 3186.17 427.548  49
  -6   6   0 35344.7 1383.64  33
  -6   6   0 35276.3 1314.61  49
  -6   6  -1 569.865 257.862  49
  -6   6  -2 37807.4 1260.04  49
  -6   6  -3 11844.9 610.652  49
  -5   6  11 36882.5 1175.67  33
  -5   6  11 40626.2 1241.81  51
  -5   6  10 646.678 286.893  33
  -5   6  10 3045.35 456.950  51
  -5   6   9 46062.0 1751.26  33
  -5   6   9 43498.1 1665.84  51
  -5   6   8 20876.6 1237.95  33
  -5   6   8 20485.4 1182.98  51
  -5   6   7 21391.7 1338.26  33
  -5   6   7 19622.0 1207.80  51
  -5   6   6 52889.7 2225.74  33
  -5   6   5 3949.72 721.354  33
  -5   6   5 3367.08 476.643  49
  -5   6   4 79548.8 2425.28  49
  -5   6   4 87563.7 3084.96  43
  -5   6   3 10850.6 888.266  49
  -5   6   3 12055.9 1236.03  43
  -5   6   2 67797.6 2359.37  49
  -5   6   2 68955.8 2946.48  43
  -5   6   1 72692.1 2475.87  49
  -5   6   1 70855.2 3062.71  43
  -5   6   0 1856.71 496.729  49
  -5   6   0 1107.65 567.976  43
  -5   6  -1 106281. 3071.73  49
  -5   6  -1 90336.4 3465.58  43
  -5   6  -2 536.926 388.861  49
  -5   6  -2 427.968 469.550  43
  -5   6  -3 60040.1 2140.74  49
  -5   6  -3 57049.7 2264.74  43
  -5   6  -4 24814.3 1266.44  49
  -5   6  -4 23022.6 1149.56  43
  -5   6  -5 31875.6 1322.70  49
  -5   6  -6 58025.4 1607.67  49
  -4   6  13 28891.0 1149.68  51
  -4   6  12 37390.0 1297.51  33
  -4   6  12 44579.3 1625.94  51
  -4   6  11 3707.90 498.339  33
  -4   6  11 3625.32 599.990  51
  -4   6  10 48036.3 1861.39  33
  -4   6  10 49761.1 1999.47  51
  -4   6   9 3342.96 604.834  33
  -4   6   9 3776.50 666.810  51
  -4   6   8 53214.1 2141.71  33
  -4   6   8 54896.8 2208.10  51
  -4   6   7 113790. 3343.76  33
  -4   6   7 117097. 3404.87  51
  -4   6   6 22949.6 1434.51  51
  -4   6   6 23352.5 1430.09  43
  -4   6   5 62923.0 2419.79  51
  -4   6   5 61564.2 2420.43  43
  -4   6   4 19126.7 1320.58  51
  -4   6   4 16447.1 1290.64  43
  -4   6   3 66863.7 2504.94  51
  -4   6   3 57559.9 2106.65  49
  -4   6   3 62907.5 2634.68  43
  -4   6   2 61356.6 2258.73  49
  -4   6   2 65975.7 2837.12  43
  -4   6   1 40708.3 1883.55  49
  -4   6   1 41521.6 2319.71  43
  -4   6   0 105049. 3226.70  49
  -4   6   0 98722.2 3689.24  43
  -4   6  -1 160.723 387.033  49
  -4   6  -1 18.8287 520.158  43
  -4   6  -2 85735.3 2941.66  49
  -4   6  -2 80116.1 3288.58  43
  -4   6  -3 22242.0 1439.79  49
  -4   6  -3 18766.5 1552.62  43
  -4   6  -4 40895.4 1915.89  49
  -4   6  -4 39570.0 2046.93  43
  -4   6  -5 33151.9 1655.10  49
  -4   6  -5 31596.3 1562.88  43
  -4   6  -6 1900.27 490.308  49
  -4   6  -6 1557.97 347.213  43
  -4   6  -7 94530.6 2458.66  49
  -4   6  -8 5890.29 480.080  49
  -3   6  14 66470.7 1837.69  51
  -3   6  13 45012.3 1685.87  51
  -3   6  12 8983.20 846.835  51
  -3   6  11 92419.6 2659.17  33
  -3   6  11 100513. 3007.27  51
  -3   6  10 955.220 365.266  33
  -3   6  10 742.272 505.774  51
  -3   6   9 106267. 3001.99  33
  -3   6   9 109426. 3215.58  51
  -3   6   8 45191.0 1859.45  33
  -3   6   8 49262.5 2045.37  51
  -3   6   7 51492.6 2415.73  34
  -3   6   7 53779.5 2175.31  51
  -3   6   7 51870.9 1897.22  43
  -3   6   6 217997. 4917.26  51
  -3   6   6 208329. 4547.26  43
  -3   6   5 2925.27 565.244  51
  -3   6   5 2692.65 478.131  43
  -3   6   4 84498.7 2733.58  51
  -3   6   4 81617.0 2671.61  43
  -3   6   3 44325.2 3415.38   4
  -3   6   3 43368.2 1921.36  51
  -3   6   3 43563.2 1970.49  43
  -3   6   2 94600.6 3024.37  51
  -3   6   2 94283.5 3142.97  43
  -3   6   2 93231.8 5277.01   4
  -3   6   1 142248. 3508.94  49
  -3   6   1 141935. 4132.82  43
  -3   6   0 66574.6 2323.06  49
  -3   6   0 64855.8 2687.43  43
  -3   6  -1 187744. 4477.42  49
  -3   6  -1 179848. 4947.91  43
  -3   6  -2 34622.9 1765.07  49
  -3   6  -2 32400.9 1895.20  43
  -3   6  -3 34607.3 1775.04  49
  -3   6  -3 32221.1 1895.75  43
  -3   6  -4 75914.0 2724.82  49
  -3   6  -4 73278.2 2911.27  43
  -3   6  -5 18590.9 1332.20  49
  -3   6  -5 17591.0 1294.96  43
  -3   6  -6 91729.4 2948.32  49
  -3   6  -6 83274.6 2668.70  43
  -3   6  -7 4304.60 671.403  49
  -3   6  -7 3281.13 482.039  43
  -3   6  -8 34579.4 1445.44  49
  -3   6  -9 25377.8 1046.93  49
  -3   6 -10 23844.0 800.660  49
  -2   6  15 58414.5 1564.31  51
  -2   6  14 19602.7 1056.13  51
  -2   6  13 53513.1 2391.38  34
  -2   6  13 46980.6 1838.48  51
  -2   6  12 113271. 3826.51  34
  -2   6  12 108784. 3101.68  51
  -2   6  12 118482. 3002.79  30
  -2   6  11 5973.39 985.865  34
  -2   6  11 6949.38 808.416  51
  -2   6  10 86781.4 2729.01  51
  -2   6  10 87478.5 2536.57  30
  -2   6   9 10377.3 1153.90  34
  -2   6   9 12314.9 1001.38  51
  -2   6   8 73981.1 2454.74  51
  -2   6   8 75082.5 2190.84  30
  -2   6   7 97645.3 2779.64  51
  -2   6   7 99799.6 3141.55  28
  -2   6   6 3607.67 956.085   4
  -2   6   6 4627.82 590.014  51
  -2   6   6 4874.10 714.502  28
  -2   6   5 130528. 5768.52   4
  -2   6   4 22066.3 2343.99   4
  -2   6   3 166706. 6829.82   4
  -2   6   2 30788.0 2871.55   4
  -2   6   1 117219. 5894.76   4
  -2   6   0 102739. 5643.21   4
  -2   6  -1 3172.04 1136.70   4
  -2   6  -1 3737.24 594.047  43
  -2   6  -2 118627. 3487.97  38
  -2   6  -2 124443. 3236.12  49
  -2   6  -2 117460. 3435.72  45
  -2   6  -2 117830. 3428.68  43
  -2   6  -3 5934.47 1517.87   4
  -2   6  -3 4363.05 606.091  49
  -2   6  -3 4806.38 1298.31   2
  -2   6  -3 4534.34 674.263  45
  -2   6  -3 4534.70 679.366  43
  -2   6  -4 24956.6 2860.79   2
  -2   6  -4 24521.0 1423.21  49
  -2   6  -4 25299.5 1581.89  45
  -2   6  -4 24606.7 1493.92  43
  -2   6  -4 24999.7 3015.03   4
  -2   6  -5 107877. 3259.56  49
  -2   6  -5 116078. 3604.53  45
  -2   6  -5 116526. 3400.67  43
  -2   6  -6 43716.4 1983.78  49
  -2   6  -6 45550.1 2087.25  45
  -2   6  -6 44676.1 1911.27  43
  -2   6  -7 57388.9 2191.71  49
  -2   6  -7 57429.0 2261.93  45
  -2   6  -7 55571.7 2010.30  43
  -2   6  -8 5078.49 665.972  49
  -2   6  -8 4443.69 643.858  45
  -2   6  -8 4515.25 514.296  43
  -2   6  -9 70246.2 2078.60  49
  -2   6  -9 68607.5 1778.21  43
  -2   6 -10 54984.9 1569.72  49
  -2   6 -11 12233.5 529.709  49
  -1   6  14 33429.7 1719.54  34
  -1   6  14 30862.3 1293.85  51
  -1   6  13 48165.7 2275.46  34
  -1   6  13 42629.7 1699.21  51
  -1   6  12 3451.01 795.213  34
  -1   6  12 3320.81 524.303  51
  -1   6  11 135167. 4240.31  34
  -1   6  11 128687. 3355.01  51
  -1   6  11 134051. 3388.32  30
  -1   6  10 16306.6 2526.80   7
  -1   6  10 16806.2 1413.88  34
  -1   6  10 19042.4 1145.07  51
  -1   6   9 53510.3 4404.03   7
  -1   6   9 53658.6 2469.13  34
  -1   6   9 60637.9 2070.78  51
  -1   6   9 63005.5 2065.56  30
  -1   6   9 60492.1 2118.66  28
  -1   6   8 45765.8 3872.70   7
  -1   6   8 50213.3 3432.63   4
  -1   6   8 43916.9 2053.30  34
  -1   6   8 51795.4 1832.94  51
  -1   6   8 52654.8 1794.98  30
  -1   6   8 51390.3 1987.72  28
  -1   6   7 8889.25 1484.94   4
  -1   6   7 7434.00 1470.29   7
  -1   6   6 142478. 5893.72   7
  -1   6   6 146111. 6380.24   4
  -1   6   5 14664.1 1943.95   4
  -1   6   4 377307. 10637.8   4
  -1   6   3 137757. 5942.26   4
  -1   6   2 205025. 7462.77   4
  -1   6   1 103219. 5204.73   4
  -1   6   0 1995.13 860.203   4
  -1   6  -1 207098. 7858.83   4
  -1   6  -2 3699.54 1078.08   4
  -1   6  -3 188040. 4092.23  49
  -1   6  -3 197555. 4418.37  45
  -1   6  -3 195871. 4358.20  43
  -1   6  -3 194808. 7887.30   4
  -1   6  -4 144568. 6563.86   2
  -1   6  -4 145397. 3435.98  14
  -1   6  -4 148957. 3850.32  45
  -1   6  -4 148099. 3738.89  43
  -1   6  -4 145797. 6798.31   4
  -1   6  -5 11860.2 1830.01   2
  -1   6  -5 17338.8 1208.61  49
  -1   6  -5 12557.0 1035.05  45
  -1   6  -5 12539.8 999.846  43
  -1   6  -5 11647.3 1870.33   4
  -1   6  -6 71620.5 2550.51  45
  -1   6  -6 72825.4 2427.43  43
  -1   6  -7 1654.32 505.641  45
  -1   6  -7 1132.06 345.024  43
  -1   6  -8 99495.1 2828.96  49
  -1   6  -8 95231.8 2830.66  45
  -1   6  -8 93506.9 2583.22  43
  -1   6  -9 30504.8 1411.25  49
  -1   6  -9 29621.2 1389.39  45
  -1   6  -9 29796.6 1211.31  43
  -1   6 -10 19651.6 969.834  49
  -1   6 -10 19873.0 981.698  45
  -1   6 -10 19444.2 797.838  43
  -1   6 -10 19994.0 824.804  41
  -1   6 -11 49997.8 1350.84  49
   0   6  15 45963.7 1708.58  34
   0   6  14 29414.0 1580.53  34
   0   6  14 45060.4 1875.16  30
   0   6  13 46019.1 2171.30  34
   0   6  13 55426.3 2115.09  30
   0   6  12 48641.1 2299.42  34
   0   6  12 49490.7 2071.81  30
   0   6  11 22572.5 1601.70  34
   0   6  11 26392.8 1438.11  30
   0   6  11 22711.3 1274.36  46
   0   6  10 172441. 8333.43   7
   0   6  10 178497. 4811.35  34
   0   6  10 186471. 4139.48  30
   0   6  10 181563. 4126.15  46
   0   6   9 73245.7 5135.94   7
   0   6   9 73954.7 2766.77  34
   0   6   9 74189.2 4469.01   4
   0   6   9 82801.6 2428.34  30
   0   6   9 80274.1 2364.97  28
   0   6   9 77720.8 2399.21  46
   0   6   8 99245.2 5646.31   7
   0   6   8 96938.8 5240.92   4
   0   6   8 107345. 2737.71  30
   0   6   7 106247. 5457.64   7
   0   6   7 115480. 5708.81   4
   0   6   6 8960.93 1430.28   7
   0   6   6 9190.55 1650.62   4
   0   6   5 447984. 10313.0   7
   0   6   5 405360. 11991.9   4
   0   6   4 21958.8 2424.30   4
   0   6   3 240320. 8190.20   4
   0   6   2 155636. 6279.26   4
   0   6   1 10878.0 1613.52   4
   0   6   0 159129. 6226.35   4
   0   6  -1 10076.2 1548.65   4
   0   6  -2 238060. 7976.59   4
   0   6  -3 65514.2 2225.34  14
   0   6  -3 61942.0 2073.12  43
   0   6  -3 66003.6 3973.31   4
   0   6  -4 95478.3 2583.79  38
   0   6  -4 94366.6 2851.19  14
   0   6  -4 103303. 2857.54  43
   0   6  -4 97418.6 4835.47   4
   0   6  -5 108613. 2708.25  38
   0   6  -5 105348. 3150.76  14
   0   6  -5 115094. 3150.06  43
   0   6  -6 6021.33 779.179  14
   0   6  -6 7899.77 837.276  43
   0   6  -7 129270. 3565.72  14
   0   6  -7 129674. 3313.81  43
   0   6  -8 14095.4 1055.36  45
   0   6  -8 15150.5 985.989  43
   0   6  -9 69380.4 2199.43  45
   0   6  -9 70075.9 2014.83  43
   0   6 -10 15734.2 888.787  45
   0   6 -10 13503.3 725.247  43
   0   6 -11 22184.2 880.801  49
   0   6 -11 22279.6 865.531  45
   1   6  15 11778.5 776.668  34
   1   6  14 18524.4 1169.22  34
   1   6  14 17181.1 1048.22  46
   1   6  13 78071.1 2743.41  34
   1   6  13 75405.4 2493.99  46
   1   6  12 32616.4 1819.97  34
   1   6  12 31144.9 1578.89  46
   1   6  11 63902.3 2638.95  34
   1   6  11 68878.9 2365.09  30
   1   6  11 64182.4 2279.57  46
   1   6  10 22271.8 3036.31   7
   1   6  10 23640.9 1337.47  30
   1   6  10 20981.4 1469.11  47
   1   6  10 20238.8 1228.64  46
   1   6   9 55306.7 4625.92   7
   1   6   9 59520.0 2063.47  30
   1   6   9 61276.7 2541.11  47
   1   6   9 60984.5 2137.14  46
   1   6   8 88539.2 5651.59   7
   1   6   8 87799.4 5293.17   4
   1   6   8 85687.5 2469.91  30
   1   6   8 93166.3 3118.49  47
   1   6   8 91901.7 2624.35  46
   1   6   7 49271.6 3949.37   7
   1   6   7 55526.7 4180.10   4
   1   6   6 130849. 6126.46   7
   1   6   6 138873. 6706.85   4
   1   6   5 4223.52 1032.33   7
   1   6   5 3837.10 1192.66   4
   1   6   4 52868.3 4229.72   4
   1   6   3 8963.33 1716.06   4
   1   6   2 62791.2 4154.70   4
   1   6   1 114920. 5472.82   4
   1   6   0 1775.73 767.382   4
   1   6  -1 108490. 5018.45   4
   1   6  -2 44659.4 3081.49   4
   1   6  -3 118832. 3124.39  38
   1   6  -3 119001. 3049.83  44
   1   6  -4 46589.6 1839.30  38
   1   6  -4 48325.8 2067.60  14
   1   6  -4 46978.0 1718.76  44
   1   6  -5 12280.4 914.925  38
   1   6  -5 12927.3 1129.05  14
   1   6  -6 166846. 3713.30  38
   1   6  -6 166546. 4326.87  14
   1   6  -7 1974.74 570.197  14
   1   6  -7 7884.80 954.921  43
   1   6  -8 80087.6 2411.88  43
   1   6  -9 10682.0 817.219  43
   1   6 -10 44384.9 1485.86  45
   1   6 -10 41941.6 1340.73  43
   1   6 -11 23439.5 865.272  49
   1   6 -11 22682.4 831.590  45
   2   6  15 52677.1 1634.54  46
   2   6  14 34225.0 1410.28  34
   2   6  14 34581.5 1487.40  46
   2   6  13 28568.9 1485.43  34
   2   6  13 30947.5 1517.87  46
   2   6  12 70458.1 2608.31  34
   2   6  12 68851.4 2426.15  46
   2   6  11 2025.46 575.052  47
   2   6  11 2526.58 552.630  46
   2   6  10 143984. 4276.96  47
   2   6  10 149071. 3766.41  46
   2   6   9 23852.8 3338.78   7
   2   6   9 22859.3 1620.77  47
   2   6   9 23125.2 1321.43  46
   2   6   8 135897. 7925.00   7
   2   6   8 144097. 4438.35  47
   2   6   8 146581. 3633.12  46
   2   6   7 191647. 9320.49   7
   2   6   7 193228. 8594.50   4
   2   6   7 195011. 5353.24  47
   2   6   7 177108. 4060.42  28
   2   6   7 192851. 4240.97  46
   2   6   6 11048.2 2173.12   7
   2   6   6 12574.4 2146.91   4
   2   6   6 15175.9 1381.54  47
   2   6   5 133298. 7466.67   7
   2   6   5 128942. 6995.92   4
   2   6   4 26080.0 3208.39   4
   2   6   3 49640.1 4482.02   4
   2   6   2 173606. 8888.20   4
   2   6   1 104230. 6578.25   4
   2   6   0 112110. 6352.28   4
   2   6  -1 25976.2 3205.42  18
   2   6  -2 87055.3 2838.21  38
   2   6  -2 96608.7 6066.64  18
   2   6  -2 86155.5 2729.01  28
   2   6  -2 95334.1 3136.07  44
   2   6  -3 76853.6 2717.44  38
   2   6  -3 78867.8 2782.01  44
   2   6  -4 46127.2 2068.80  38
   2   6  -4 48122.0 2019.58  44
   2   6  -5 92393.3 2916.88  38
   2   6  -5 95192.9 2756.43  44
   2   6  -6 14252.3 1037.14  38
   2   6  -6 14298.7 905.884  44
   2   6  -7 151642. 3490.92  38
   2   6  -8 16169.3 852.801  38
   2   6  -9 62824.5 1904.37  43
   2   6 -10 32661.1 1165.71  45
   2   6 -10 33425.3 1107.49  43
   3   6  15 5539.96 456.661  46
   3   6  14 32675.0 1341.68  46
   3   6  13 42293.2 1565.40  34
   3   6  13 43201.3 1734.08  46
   3   6  12 2130.89 484.781  34
   3   6  12 2853.24 513.305  47
   3   6  12 2868.73 612.434  46
   3   6  11 66891.9 2575.70  47
   3   6  11 70002.9 2436.66  46
   3   6  10 2560.14 675.641  47
   3   6  10 2704.00 588.613  46
   3   6   9 125503. 4324.38  47
   3   6   9 140257. 3644.51  46
   3   6   8 14233.3 1499.38  47
   3   6   8 15776.9 1125.77  46
   3   6   7 101487. 7880.04   7
   3   6   7 106769. 4517.72  47
   3   6   7 96182.5 2842.38  28
   3   6   7 103990. 3017.83  46
   3   6   6 169449. 4151.77  28
   3   6   6 160816. 3942.10  46
   3   6   5 3286.34 840.716  47
   3   6   5 2795.71 480.007  46
   3   6   5 1541.01 421.907  28
   3   6   4 110538. 4335.52  50
   3   6   4 116727. 4454.01  47
   3   6   4 115872. 3119.33  46
   3   6   4 110456. 3489.01  28
   3   6   3 5580.40 1730.45   4
   3   6   3 5517.00 948.764  50
   3   6   3 5885.59 919.973  47
   3   6   3 5525.91 773.577  28
   3   6   3 5360.94 715.807  44
   3   6   2 109405. 3050.18  38
   3   6   2 121529. 4250.44  50
   3   6   2 118021. 3917.87  47
   3   6   2 114535. 3767.06  28
   3   6   2 117118. 3787.04  44
   3   6   1 146528. 7182.39  18
   3   6   1 149340. 4692.27  50
   3   6   1 146214. 4260.63  47
   3   6   1 138770. 4242.43  28
   3   6   1 137762. 4272.17  44
   3   6   0 11927.0 2604.25  18
   3   6   0 12618.6 1299.82  50
   3   6   0 9571.46 1050.92  28
   3   6   0 11119.0 1168.60  44
   3   6  -1 121193. 7209.72  18
   3   6  -1 119936. 4148.12  50
   3   6  -1 105001. 3591.17  28
   3   6  -1 112494. 3899.09  44
   3   6  -2 21745.1 1523.68  28
   3   6  -2 20776.6 1651.02  44
   3   6  -3 48702.9 2267.69  28
   3   6  -3 51580.9 2534.97  44
   3   6  -4 71063.2 5744.93  18
   3   6  -4 65977.2 2382.34  28
   3   6  -4 62488.2 2604.64  44
   3   6  -5 32551.7 1856.00  38
   3   6  -5 29245.8 1595.60  44
   3   6  -6 87515.0 2772.43  38
   3   6  -6 87808.0 2557.42  44
   3   6  -7 1006.08 435.201  38
   3   6  -8 31048.6 1186.44  38
   3   6  -9 27480.3 1084.56  43
   3   6 -10 14190.5 585.085  43
   4   6  13 10022.8 714.943  46
   4   6  12 84348.5 2168.83  34
   4   6  12 91243.2 2507.48  46
   4   6  11 2331.71 508.416  47
   4   6  11 1312.89 420.207  46
   4   6  10 79111.9 2899.43  47
   4   6  10 79667.0 2549.17  46
   4   6   9 20235.3 1629.83  47
   4   6   9 20444.2 1259.44  46
   4   6   8 47883.0 2797.26  47
   4   6   8 48157.4 2000.32  46
   4   6   7 77360.1 4092.33  47
   4   6   7 74674.8 2545.56  46
   4   6   6 6300.13 1353.92  47
   4   6   6 6091.86 694.739  46
   4   6   6 6706.99 769.270  28
   4   6   5 138816. 5393.85  47
   4   6   5 133563. 3904.60  28
   4   6   4 33960.4 2444.25  50
   4   6   4 39475.5 2582.96  47
   4   6   4 40654.5 2142.74  28
   4   6   4 40807.3 4075.08  23
   4   6   3 59422.5 3132.36  50
   4   6   3 60361.9 3045.10  47
   4   6   3 57290.4 2666.26  28
   4   6   3 60091.4 2746.44  44
   4   6   3 63055.6 4818.04  23
   4   6   2 56040.6 2946.73  50
   4   6   2 57007.1 2795.56  47
   4   6   2 54972.2 2734.94  28
   4   6   2 49616.1 2547.36  44
   4   6   1 8358.05 2028.35  18
   4   6   1 7758.62 1136.80  50
   4   6   1 8943.55 1061.48  47
   4   6   1 7023.62 1064.33  28
   4   6   0 61139.4 5066.11  18
   4   6   0 63258.4 3102.15  50
   4   6   0 59216.6 2796.03  28
   4   6  -1-583.388 693.510  50
   4   6  -1 624.102 595.187  28
   4   6  -2 111119. 7084.33  18
   4   6  -2 106236. 3969.75  50
   4   6  -2 105157. 3708.69  28
   4   6  -2 113452. 4096.03  44
   4   6  -3 16934.5 1397.96  28
   4   6  -3 15652.9 1487.26  44
   4   6  -4 37265.5 1813.71  28
   4   6  -4 38227.6 2030.96  44
   4   6  -5 42766.9 1656.16  28
   4   6  -5 43736.9 1909.91  44
   4   6  -6 9550.74 949.710  38
   4   6  -6 4096.01 518.844  44
   4   6  -7 49765.7 1615.37  38
   4   6  -7 49505.4 1378.84  44
   4   6  -8 961.710 203.403  38
   5   6  11 40058.0 1240.22  46
   5   6  10 1353.14 373.678  47
   5   6  10 986.663 274.353  46
   5   6   9 35436.5 1805.37  47
   5   6   8 15549.7 1400.92  47
   5   6   7 16899.9 1769.55  47
   5   6   6 40121.3 2900.90  47
   5   6   5 2036.84 924.114  47
   5   6   5 1192.01 417.779  28
   5   6   4 114342. 4670.33  50
   5   6   4 124691. 4833.80  47
   5   6   4 110440. 3498.42  28
   5   6   3 14779.5 1678.18  50
   5   6   3 17590.9 1700.01  47
   5   6   3 18127.6 1393.05  28
   5   6   3 16156.1 1264.33  44
   5   6   2 36615.4 2511.83  50
   5   6   2 37690.8 2346.57  47
   5   6   2 34483.8 2026.56  28
   5   6   2 34068.7 2034.91  44
   5   6   1 57819.6 3071.88  50
   5   6   1 60536.6 2865.77  47
   5   6   1 60465.7 2772.40  28
   5   6   1 55922.5 2700.60  44
   5   6   0 13014.5 1463.29  50
   5   6   0 13893.0 1316.88  47
   5   6   0 14494.6 1435.80  28
   5   6   0 13582.6 1353.58  44
   5   6  -1 115384. 3246.64  38
   5   6  -1 103494. 3992.04  50
   5   6  -1 112221. 3775.90  28
   5   6  -1 105694. 3817.27  44
   5   6  -2 3101.18 724.224  28
   5   6  -2 1982.92 665.749  44
   5   6  -3 135460. 3525.70  38
   5   6  -3 129219. 3580.27  28
   5   6  -3 130287. 3807.03  44
   5   6  -4 47428.3 1757.50  28
   5   6  -4 47438.6 1909.50  44
   5   6  -5 3886.51 391.954  28
   5   6  -5 5302.56 547.064  44
   5   6  -6 37437.1 1211.28  38
   5   6  -6 33527.8 1058.29  44
   6   6   8 17056.0 928.362  47
   6   6   7 15159.6 1032.42  47
   6   6   6 5847.25 773.575  47
   6   6   5 54701.8 2532.55  47
   6   6   4 11081.9 1236.32  47
   6   6   4 12623.4 776.232  28
   6   6   3 32313.4 1989.17  47
   6   6   3 28485.4 1297.39  28
   6   6   2 15718.3 1345.69  47
   6   6   2 17100.5 1056.05  28
   6   6   2 17247.2 950.045  44
   6   6   1 8540.96 919.455  47
   6   6   1 8578.06 776.043  28
   6   6   1 8666.66 733.040  44
   6   6   0 67284.6 2162.79  28
   6   6   0 64080.8 2095.14  44
   6   6  -1 643.826 302.963  28
   6   6  -1 587.821 333.644  44
   6   6  -2 38854.8 1176.21  38
   6   6  -2 42523.5 1468.68  28
   6   6  -2 43169.6 1530.12  44
   6   6  -3 8503.56 492.541  38
   6   6  -3 9543.79 568.907  28
   6   6  -3 9463.97 608.276  44
  -6   7   6 25528.7 943.623  33
  -6   7   5 7696.29 544.879  33
  -6   7   4 59751.7 1651.99  33
  -6   7   3 1200.91 262.834  33
  -6   7   2 50311.2 1434.78  33
  -6   7   1 32767.7 1032.19  33
  -5   7  10 38410.9 1188.63  33
  -5   7  10 33695.1 1098.15  51
  -5   7   9 651.645 267.409  33
  -5   7   9 180.742 222.852  51
  -5   7   8 46796.0 1657.17  33
  -5   7   8 44456.3 1615.15  51
  -5   7   7 9123.42 801.483  33
  -5   7   7 7997.04 718.956  51
  -5   7   6 26635.0 1412.52  33
  -5   7   5 55617.4 2148.07  33
  -5   7   4 7081.70 806.937  43
  -5   7   3 41879.4 1900.57  43
  -5   7   2 456.994 257.272  49
  -5   7   2 315.229 456.918  43
  -5   7   1 51969.1 1710.44  49
  -5   7   1 46432.7 2044.43  43
  -5   7   0 20117.3 1042.34  49
  -5   7   0 18247.0 1252.30  43
  -5   7  -1 33906.9 1354.79  49
  -5   7  -1 32145.8 1555.72  43
  -5   7  -2 66307.4 1912.54  49
  -5   7  -2 67451.4 2186.71  43
  -5   7  -3 484.360 246.561  49
  -5   7  -3 565.485 260.710  43
  -5   7  -4 44672.7 1320.52  49
  -5   7  -4 42048.5 1185.43  43
  -5   7  -5 6786.50 412.925  49
  -4   7  13 6158.67 485.412  51
  -4   7  12 52583.4 1679.76  51
  -4   7  11 28559.3 1126.39  33
  -4   7  11 33011.7 1457.63  51
  -4   7  10 2270.64 409.757  33
  -4   7  10 2415.95 537.076  51
  -4   7   9 50020.9 1878.30  33
  -4   7   9 56748.2 2194.84  51
  -4   7   8 2978.46 565.687  33
  -4   7   8 3970.00 692.878  51
  -4   7   7 76871.4 2624.65  33
  -4   7   7 79535.7 2798.00  51
  -4   7   6 33117.7 1797.84  51
  -4   7   6 29907.9 1552.86  43
  -4   7   5 32218.3 1802.96  51
  -4   7   5 29753.6 1618.94  43
  -4   7   4 55292.8 2437.76  51
  -4   7   4 48521.0 2174.70  43
  -4   7   3 535.642 392.283  51
  -4   7   3 722.165 475.408  43
  -4   7   2 92705.4 3192.35  43
  -4   7   1 12139.4 902.864  49
  -4   7   1 11208.4 1144.78  43
  -4   7   0 39088.0 1676.23  49
  -4   7   0 35933.2 1957.14  43
  -4   7  -1 46997.6 1884.13  49
  -4   7  -1 44325.9 2135.35  43
  -4   7  -2 4694.72 621.524  49
  -4   7  -2 4379.55 747.829  43
  -4   7  -3 48554.7 1840.75  49
  -4   7  -3 49551.0 2081.24  43
  -4   7  -4 903.470 346.193  49
  -4   7  -4 1218.84 399.580  43
  -4   7  -5 35054.8 1376.69  49
  -4   7  -5 33437.8 1304.77  43
  -4   7  -6 33690.2 1212.90  49
  -4   7  -6 31505.5 1025.75  43
  -4   7  -7 11567.7 575.604  49
  -3   7  14 3581.89 479.027  51
  -3   7  13 62835.8 1962.55  51
  -3   7  12 24503.0 1311.97  51
  -3   7  11 32338.2 1623.01  51
  -3   7  10 88393.7 2561.12  33
  -3   7  10 105419. 3106.25  51
  -3   7   9 2807.78 493.746  33
  -3   7   9 3640.84 704.117  51
  -3   7   8 118140. 3298.51  33
  -3   7   8 132897. 3731.89  51
  -3   7   7 52347.1 2267.90  51
  -3   7   7 47720.3 1830.94  43
  -3   7   6 166581. 4378.33  51
  -3   7   6 152274. 3786.46  43
  -3   7   5 60097.4 2500.50  51
  -3   7   5 55394.5 2159.92  43
  -3   7   4 7332.08 885.023  51
  -3   7   4 7070.25 803.804  43
  -3   7   3 132940. 3861.72  51
  -3   7   3 137527. 3790.95  43
  -3   7   2 4533.62 1192.35   4
  -3   7   2 2767.84 562.084  43
  -3   7   1 217126. 5248.00  43
  -3   7   1 244091. 8937.09   4
  -3   7   0 125979. 3206.87  49
  -3   7   0 121569. 3696.80  43
  -3   7  -1 8193.88 774.677  49
  -3   7  -1 7153.51 863.550  43
  -3   7  -2 47858.6 1934.83  49
  -3   7  -2 44448.1 2088.57  43
  -3   7  -3 772.577 394.994  49
  -3   7  -3 441.440 442.147  43
  -3   7  -4 71290.3 2389.45  49
  -3   7  -4 75697.6 2650.71  43
  -3   7  -5 25075.2 1320.56  49
  -3   7  -5 25651.5 1358.85  43
  -3   7  -6 42758.5 1648.43  49
  -3   7  -6 42189.5 1568.44  43
  -3   7  -7 60567.8 1804.62  49
  -3   7  -7 59742.4 1643.27  43
  -3   7  -8 911.452 230.525  49
  -2   7  14 78698.4 2102.67  51
  -2   7  13 13516.9 1066.73  34
  -2   7  13 12354.0 898.394  51
  -2   7  12 12159.4 1094.18  34
  -2   7  12 13780.0 1028.44  51
  -2   7  11 60161.9 2500.30  34
  -2   7  11 65998.0 2364.94  51
  -2   7  10 28633.1 1699.46  34
  -2   7  10 31758.9 1650.30  51
  -2   7   9 99117.9 3250.98  34
  -2   7   9 112367. 3247.67  51
  -2   7   8 7861.13 834.705  34
  -2   7   8 7988.97 860.580  51
  -2   7   7 196796. 4622.48  51
  -2   7   7 180637. 5068.53  28
  -2   7   6 67636.7 4201.53   4
  -2   7   6 69690.3 2518.56  51
  -2   7   6 61733.4 2716.31  28
  -2   7   5 43012.4 3384.31   4
  -2   7   5 48308.4 2043.47  51
  -2   7   5 45890.1 1704.56  43
  -2   7   4 181430. 7195.34   4
  -2   7   4 169570. 3821.32  43
  -2   7   3 2010.55 509.622  38
  -2   7   3 2610.90 919.447   4
  -2   7   3 2163.50 511.034  28
  -2   7   3 1795.92 401.595  43
  -2   7   2 96725.9 3165.24  38
  -2   7   2 93945.5 3052.48  28
  -2   7   2 98752.7 2905.21  43
  -2   7   1 6508.46 797.226  38
  -2   7   1 7870.27 1587.94   4
  -2   7   1 7258.92 767.789  43
  -2   7   0 54747.9 2237.30  38
  -2   7   0 56154.0 2028.03  45
  -2   7   0 57330.6 2199.93  43
  -2   7   0 57796.2 4253.40   4
  -2   7  -1 34379.8 1720.18  38
  -2   7  -1 34911.8 1660.58  45
  -2   7  -1 35764.6 1740.80  43
  -2   7  -1 38268.1 3469.17   4
  -2   7  -2 30633.5 1536.22  38
  -2   7  -2 27732.5 1356.94  49
  -2   7  -2 28416.8 1542.94  45
  -2   7  -2 28193.5 1556.09  43
  -2   7  -2 33169.7 3263.11   4
  -2   7  -3 87823.3 2658.51  49
  -2   7  -3 87560.6 2878.06  45
  -2   7  -3 92108.9 2905.81  43
  -2   7  -4 27645.7 1436.51  49
  -2   7  -4 29196.6 1605.77  45
  -2   7  -4 29768.1 1587.26  43
  -2   7  -5 64907.8 2271.78  49
  -2   7  -5 68835.6 2524.99  45
  -2   7  -5 69778.6 2384.84  43
  -2   7  -6 7632.66 755.339  49
  -2   7  -6 7270.93 796.162  45
  -2   7  -6 8511.61 774.353  43
  -2   7  -7 39717.4 1569.30  49
  -2   7  -7 41259.5 1691.01  45
  -2   7  -7 40515.6 1497.93  43
  -2   7  -8 56620.0 1710.37  49
  -2   7  -8 55708.5 1584.44  43
  -2   7  -9 131.688 176.527  49
  -2   7  -9 121.899 112.835  43
  -1   7  15 41523.6 1539.75  34
  -1   7  14 1866.00 499.167  34
  -1   7  13 28163.2 1611.36  34
  -1   7  13 28012.9 1311.00  51
  -1   7  12 41110.0 2035.65  34
  -1   7  12 39656.1 1689.21  51
  -1   7  11 34764.8 1904.31  34
  -1   7  11 37330.4 1670.24  51
  -1   7  10 141090. 4038.53  34
  -1   7  10 143882. 3650.45  51
  -1   7   9 7125.22 841.565  34
  -1   7   9 7788.11 781.259  51
  -1   7   9 7875.01 873.971  28
  -1   7   8 60730.1 4185.35   4
  -1   7   8 55552.1 2218.95  34
  -1   7   8 64567.2 2251.51  51
  -1   7   8 62390.6 2456.97  28
  -1   7   7 5311.69 622.903  34
  -1   7   7 6034.27 1376.54   4
  -1   7   7 6743.04 714.208  51
  -1   7   7 6557.62 792.939  28
  -1   7   6 83217.9 4994.50   4
  -1   7   6 87981.4 2886.56  28
  -1   7   5 171757. 7142.58   4
  -1   7   4 23984.5 2551.36   4
  -1   7   3 182773. 7233.49   4
  -1   7   2 2059.46 853.270   4
  -1   7   1 77955.8 4593.02   4
  -1   7   0 58315.5 2053.08  38
  -1   7   0 60784.7 2054.73  43
  -1   7   0 56963.3 3993.87   4
  -1   7  -1 72299.8 2318.15  38
  -1   7  -1 74225.5 2252.18  45
  -1   7  -1 75549.5 2376.49  43
  -1   7  -1 71285.4 4561.88   4
  -1   7  -2 160684. 3761.63  38
  -1   7  -2 162783. 3811.08  45
  -1   7  -2 159833. 3870.46  43
  -1   7  -2 167267. 7065.59   4
  -1   7  -3 105.527 215.642  38
  -1   7  -3 39.4730 450.148   4
  -1   7  -3 571.675 326.843  49
  -1   7  -3 34.7592 261.283  45
  -1   7  -3-298.397 385.193  43
  -1   7  -4 191889. 3968.97  38
  -1   7  -4 179949. 4109.00  49
  -1   7  -4 192022. 4476.75  45
  -1   7  -4 194358. 4401.23  43
  -1   7  -5 76146.2 2426.40  49
  -1   7  -5 79591.1 2619.48  45
  -1   7  -5 81555.9 2593.89  43
  -1   7  -6 39442.1 1693.52  49
  -1   7  -6 39650.0 1749.99  45
  -1   7  -6 37887.2 1631.14  43
  -1   7  -7 39069.0 1595.51  49
  -1   7  -7 40254.3 1697.88  45
  -1   7  -7 39373.4 1557.82  43
  -1   7  -8 6570.47 636.392  49
  -1   7  -8 6365.99 657.960  45
  -1   7  -8 6423.71 580.564  43
  -1   7  -9 57535.7 1615.72  49
  -1   7  -9 59406.8 1716.48  45
  -1   7  -9 56409.0 1498.95  43
  -1   7 -10 4244.57 342.290  49
   0   7  15 6079.57 619.583  34
   0   7  14 46734.1 1927.40  34
   0   7  13 4243.90 740.485  34
   0   7  12 79365.4 2891.20  34
   0   7  12 78084.0 2514.17  46
   0   7  11 29398.8 1724.60  34
   0   7  11 30054.6 1547.43  46
   0   7  10 45828.1 2128.70  34
   0   7  10 50115.2 1912.80  28
   0   7  10 47673.6 1998.35  46
   0   7   9 203516. 8061.09   7
   0   7   9 213027. 4985.22  34
   0   7   9 209551. 8437.37   4
   0   7   9 208808. 4376.06  51
   0   7   9 212351. 4773.02  28
   0   7   9 216846. 4858.54  46
   0   7   8 131.866 604.770   4
   0   7   8 234.658 222.112  51
   0   7   8 588.438 307.612  46
   0   7   8 680.607 314.628  28
   0   7   7 95742.7 5777.19   4
   0   7   7 94173.7 2573.63  51
   0   7   7 92412.1 2793.90  28
   0   7   7 90493.5 2754.48  46
   0   7   6 52948.6 4187.67   4
   0   7   5 101323. 5606.68   4
   0   7   4 169323. 7175.59   4
   0   7   3 16464.4 2137.55   4
   0   7   2 165458. 6784.63   4
   0   7   1 42619.4 3268.91   4
   0   7   0 61056.6 3940.05   4
   0   7  -1 249583. 8359.65   4
   0   7  -1 258625. 5050.73  38
   0   7  -1 251572. 4913.90  43
   0   7  -2 9016.12 756.987  38
   0   7  -2 10653.5 840.011  43
   0   7  -3 180016. 6825.62   4
   0   7  -3 190833. 4122.03  38
   0   7  -3 183684. 4160.51  43
   0   7  -4 18333.4 1045.56  38
   0   7  -4 20474.1 1226.29  43
   0   7  -5 73732.1 2135.76  38
   0   7  -5 79297.3 2513.20  43
   0   7  -6 33055.8 1555.88  45
   0   7  -6 32563.0 1527.56  43
   0   7  -7 31445.0 1489.95  45
   0   7  -7 32070.4 1440.38  43
   0   7  -8 88071.0 2329.38  49
   0   7  -8 87815.1 2432.93  45
   0   7  -8 85757.9 2272.55  43
   0   7  -9 3325.26 462.440  49
   0   7  -9 2519.31 396.210  45
   0   7  -9 2252.86 334.483  43
   0   7 -10 49194.9 1296.77  49
   0   7 -10 52619.8 1377.71  45
   0   7 -10 50392.7 1200.51  43
   1   7  15 44662.9 1525.41  34
   1   7  14 12030.6 934.162  34
   1   7  14 11147.6 820.332  46
   1   7  13 117445. 3394.61  34
   1   7  13 120959. 3234.85  46
   1   7  12 26548.1 1582.90  34
   1   7  12 26310.6 1455.93  46
   1   7  11 12737.6 1144.08  34
   1   7  11 13934.7 1095.35  46
   1   7  10 107286. 3473.60  47
   1   7  10 103035. 3111.53  46
   1   7   9 2409.21 966.549   7
   1   7   9 933.268 698.926   4
   1   7   9 1514.05 536.485  47
   1   7   9 995.231 400.075  46
   1   7   9 1145.97 333.237  28
   1   7   8 86656.4 5795.11   4
   1   7   8 92880.3 3149.32  47
   1   7   8 86289.5 2669.58  28
   1   7   8 97012.8 2963.89  46
   1   7   7 11685.3 2194.64   4
   1   7   7 12593.7 1083.25  47
   1   7   7 11956.6 917.083  28
   1   7   7 10357.5 904.525  46
   1   7   6 112099. 6647.86   4
   1   7   6 114138. 3360.51  47
   1   7   6 115672. 3096.30  28
   1   7   6 113399. 3207.24  46
   1   7   5 53601.4 4400.88   4
   1   7   4 12882.0 2106.27   4
   1   7   3 75125.2 4794.46   4
   1   7   2 10207.1 1728.40   4
   1   7   1 59106.8 3963.72   4
   1   7   0 85961.7 2498.12  38
   1   7   0 85734.7 2558.96  44
   1   7  -1 12838.5 930.182  38
   1   7  -1 11727.1 1655.27   4
   1   7  -1 12417.8 799.465  28
   1   7  -1 13244.7 956.157  44
   1   7  -2 121251. 3210.98  38
   1   7  -2 122285. 3088.59  43
   1   7  -3 2369.17 466.825  38
   1   7  -3 8094.74 882.912  43
   1   7  -4 86766.3 2620.25  38
   1   7  -4 94971.1 2784.05  43
   1   7  -5 30603.9 1400.18  38
   1   7  -5 38088.6 1725.76  43
   1   7  -6 33982.9 1373.05  38
   1   7  -6 39842.3 1759.59  43
   1   7  -7 58405.3 1990.18  43
   1   7  -8 3100.75 506.799  45
   1   7  -8 4113.21 537.775  43
   1   7  -9 55040.3 1541.09  49
   1   7  -9 53057.6 1594.22  45
   1   7  -9 52892.0 1512.90  43
   1   7 -10 1371.60 227.713  49
   1   7 -10 908.526 194.797  45
   1   7 -10 791.900 167.345  43
   2   7  15 250.431 165.195  34
   2   7  15 45.2702 169.219  46
   2   7  14 64413.3 1996.46  34
   2   7  14 68855.7 2114.58  46
   2   7  13 15537.3 1067.77  34
   2   7  13 14972.3 1060.79  46
   2   7  12 58529.5 2282.14  34
   2   7  12 63717.7 2307.66  46
   2   7  11 49883.8 2193.11  47
   2   7  11 51336.9 2127.57  46
   2   7  10 15655.7 1328.44  47
   2   7  10 14470.0 1147.55  46
   2   7   9 157787. 4504.86  47
   2   7   9 156847. 4065.12  46
   2   7   8 3270.08 515.568  28
   2   7   8 2945.16 672.206  47
   2   7   8 2709.70 545.709  46
   2   7   7 133635. 4091.17  47
   2   7   7 123821. 3322.41  28
   2   7   7 132041. 3630.19  46
   2   7   6 38095.9 4196.39   4
   2   7   6 35448.7 1997.76  47
   2   7   6 40366.8 1745.15  28
   2   7   6 37206.3 1781.24  46
   2   7   5 59989.7 5411.42   4
   2   7   5 66116.4 2719.41  47
   2   7   5 67239.7 2405.53  46
   2   7   5 66542.1 2327.23  28
   2   7   4 80218.7 2925.84  47
   2   7   4 73815.0 2474.01  46
   2   7   4 83444.7 2642.98  28
   2   7   4 82205.5 2445.51  44
   2   7   3-402.795 295.836  38
   2   7   3 123.637 576.051   4
   2   7   3-181.254 300.643  47
   2   7   3 89.2043 256.412  28
   2   7   3 190.481 246.846  44
   2   7   2 192752. 4207.78  38
   2   7   2 203448. 4567.96  28
   2   7   2 198788. 4521.52  44
   2   7   1 45052.0 1798.34  38
   2   7   1 45153.5 1900.77  28
   2   7   1 45841.5 1950.25  44
   2   7   0 76778.4 2505.75  38
   2   7   0 75320.3 2498.46  28
   2   7   0 78784.4 2682.49  44
   2   7  -1 72593.0 2509.29  38
   2   7  -1 74445.6 2432.55  28
   2   7  -1 78875.2 2712.98  44
   2   7  -2 4980.95 751.789  38
   2   7  -2 3774.74 513.712  28
   2   7  -2 5625.97 720.007  44
   2   7  -3 70648.2 2498.73  38
   2   7  -3 71090.2 2462.40  44
   2   7  -4 14660.1 1095.24  38
   2   7  -4 14436.5 1013.78  44
   2   7  -5 141487. 3488.97  38
   2   7  -6 88072.4 2458.95  38
   2   7  -7 6149.87 544.828  38
   2   7  -7 14269.1 1087.02  43
   2   7  -8 55118.5 1697.67  43
   2   7  -9 139.365 190.842  45
   2   7  -9 323.060 217.107  43
   3   7  14 527.001 180.917  34
   3   7  14 381.312 232.098  46
   3   7  13 28706.8 1244.29  34
   3   7  13 31308.0 1410.14  46
   3   7  12 25096.4 1312.23  34
   3   7  12 27366.1 1441.01  46
   3   7  11 14970.7 1146.69  47
   3   7  11 14875.1 1123.05  46
   3   7  10 33496.6 1859.12  47
   3   7  10 31661.7 1678.34  46
   3   7   9 23594.2 1658.17  47
   3   7   9 23576.0 1439.96  46
   3   7   8 132610. 4336.09  47
   3   7   8 125875. 3204.23  28
   3   7   8 134273. 3723.23  46
   3   7   7 29000.7 2008.29  47
   3   7   7 32294.5 1547.30  28
   3   7   7 28970.8 1605.11  46
   3   7   6 50032.9 2685.59  47
   3   7   6 44131.0 1926.22  28
   3   7   6 48899.2 2109.58  46
   3   7   5 41419.6 2527.00  47
   3   7   5 38055.8 1803.47  46
   3   7   5 39306.6 1877.13  28
   3   7   4 17442.2 1658.23  47
   3   7   4 15952.6 1219.52  28
   3   7   4 17336.4 1157.51  44
   3   7   3 74371.7 3359.77  47
   3   7   3 73127.6 2752.36  28
   3   7   3 71053.9 2597.66  44
   3   7   2 1918.95 549.665  47
   3   7   2 1685.54 499.865  28
   3   7   2 1702.34 517.078  44
   3   7   1 240383. 5201.09  38
   3   7   1 246639. 5711.08  28
   3   7   1 254451. 5845.81  44
   3   7   0 42211.5 1902.05  38
   3   7   0 40101.8 1986.65  28
   3   7   0 37623.0 2026.99  44
   3   7  -1 55544.4 2250.75  38
   3   7  -1 49618.7 2200.06  28
   3   7  -1 52914.3 2386.56  44
   3   7  -2 106017. 3263.11  38
   3   7  -2 104308. 3198.30  28
   3   7  -2 106861. 3457.53  44
   3   7  -3 502.169 279.759  28
   3   7  -3 1179.77 492.274  44
   3   7  -4 101574. 3051.35  38
   3   7  -4 94514.2 2879.74  44
   3   7  -5 17582.8 1190.54  38
   3   7  -5 15139.1 984.976  44
   3   7  -6 34671.3 1427.26  38
   3   7  -7 23494.6 1006.83  38
   3   7  -7 33821.5 1307.47  43
   3   7  -8 1985.12 230.472  38
   3   7  -8 5121.64 478.740  43
   3   7  -9 42416.1 1057.34  45
   3   7  -9 41437.9 1022.48  43
   4   7  13 5640.11 478.762  46
   4   7  12 25588.8 1045.66  34
   4   7  12 30929.4 1290.23  46
   4   7  11 43615.1 1727.26  47
   4   7  11 43751.3 1706.11  46
   4   7  10 8496.25 896.462  47
   4   7  10 7946.05 771.963  46
   4   7   9 81216.3 2988.11  47
   4   7   9 77572.1 2552.17  46
   4   7   8 2029.81 656.076  47
   4   7   8 2375.27 514.986  46
   4   7   7 36199.4 2292.63  47
   4   7   7 35341.9 1542.84  28
   4   7   7 33549.5 1646.74  46
   4   7   6 55694.0 3030.37  47
   4   7   6 50152.1 1971.27  46
   4   7   6 55250.2 2119.13  28
   4   7   5 29028.8 2278.43  47
   4   7   5 26764.2 1540.22  28
   4   7   4 150661. 5408.11  47
   4   7   4 154333. 4176.87  28
   4   7   4 151524. 3833.31  44
   4   7   3 22477.2 1979.12  47
   4   7   3 24698.7 1596.88  28
   4   7   3 22995.1 1470.73  44
   4   7   2 59126.9 2042.02  38
   4   7   2 57904.0 3038.44  47
   4   7   2 58751.0 2543.29  28
   4   7   2 57082.1 2455.32  44
   4   7   1 15929.4 1128.42  38
   4   7   1 14046.3 1258.48  28
   4   7   1 12978.0 1224.64  44
   4   7   0 59407.3 2246.57  38
   4   7   0 54675.8 2428.89  28
   4   7   0 56804.0 2586.66  44
   4   7  -1 84907.6 2805.46  38
   4   7  -1 84142.8 2977.44  28
   4   7  -1 82153.2 3103.87  44
   4   7  -2 4364.80 680.820  28
   4   7  -2 5740.25 877.136  44
   4   7  -3 80781.1 2683.50  38
   4   7  -3 73669.8 2420.04  28
   4   7  -3 78143.1 2706.98  44
   4   7  -4 8074.10 646.357  28
   4   7  -4 8061.68 791.604  44
   4   7  -5 24823.0 1211.48  38
   4   7  -5 22056.9 1064.71  44
   4   7  -6 12339.5 721.298  38
   4   7  -7 22373.8 795.816  38
   4   7  -7 25415.3 846.426  43
   5   7  10 33107.8 1303.02  47
   5   7   9 274.908 339.905  47
   5   7   8 25871.0 1521.40  47
   5   7   7 2622.28 653.277  47
   5   7   6 22684.7 1694.10  47
   5   7   6 21496.0 1091.69  28
   5   7   5 38538.9 2303.89  47
   5   7   5 40242.4 1648.99  28
   5   7   4 10754.9 1284.85  47
   5   7   4 9995.74 890.792  28
   5   7   3 70025.4 3181.72  47
   5   7   3 73514.4 2526.31  28
   5   7   3 70560.4 2284.86  44
   5   7   2 968.311 551.758  47
   5   7   2 456.671 466.800  28
   5   7   2 1371.70 446.181  44
   5   7   1 48782.0 2079.38  28
   5   7   1 49473.7 2076.99  44
   5   7   0 25726.9 1194.46  38
   5   7   0 27218.4 1490.66  28
   5   7   0 23929.0 1450.38  44
   5   7  -1 23717.7 1163.88  38
   5   7  -1 20307.9 1237.89  28
   5   7  -1 24116.0 1402.55  44
   5   7  -2 70266.2 2058.82  38
   5   7  -2 73488.5 2234.01  28
   5   7  -2 74010.2 2377.00  44
   5   7  -3 4094.35 533.129  38
   5   7  -3 3124.35 488.934  44
   5   7  -4 41504.0 1319.02  38
   5   7  -4 37685.0 1090.59  28
   5   7  -4 40330.8 1320.70  44
   5   7  -5 8979.72 504.438  38
   6   7   7 30760.3 1151.81  47
   6   7   6 12662.3 807.288  47
   6   7   5 10716.0 778.500  47
   6   7   4 42824.7 1607.32  47
   6   7   4 45537.7 1293.28  28
   6   7   3 260.831 234.652  47
   6   7   3 589.657 224.456  28
   6   7   2 22299.1 958.070  47
   6   7   2 24794.6 1017.68  28
   6   7   1 8199.26 581.628  28
   6   7   1 7591.10 505.656  44
   6   7   0 19618.3 868.821  28
   6   7   0 20941.3 846.736  44
   6   7  -1 24508.8 892.889  28
   6   7  -1 24000.1 879.096  44
  -5   8   9 19182.2 749.162  33
  -5   8   8 11515.8 659.613  33
  -5   8   8 8760.31 520.767  51
  -5   8   7 52673.8 1575.61  33
  -5   8   7 42197.8 1312.02  51
  -5   8   6 2979.29 450.104  33
  -5   8   5 68597.3 2046.85  33
  -5   8   3 18693.7 1043.91  43
  -5   8   2 33291.7 1398.06  43
  -5   8   1 4983.43 558.816  43
  -5   8   0 47681.6 1606.64  43
  -5   8  -1 12937.7 754.969  43
  -5   8  -2 23054.0 906.498  43
  -4   8  12 556.121 206.380  51
  -4   8  11 22627.3 1037.44  51
  -4   8  10 21211.3 916.777  33
  -4   8  10 22588.2 1142.37  51
  -4   8   9 14701.5 850.107  33
  -4   8   9 14653.5 1010.88  51
  -4   8   8 36348.4 1473.83  33
  -4   8   8 34394.0 1616.36  51
  -4   8   7 7994.90 764.754  33
  -4   8   7 8045.44 831.616  51
  -4   8   6 97592.7 2964.48  51
  -4   8   6 94295.7 2656.79  43
  -4   8   5 11376.2 987.477  51
  -4   8   5 10976.5 883.049  43
  -4   8   4 37996.3 1780.23  51
  -4   8   4 40328.1 1756.72  43
  -4   8   3 32832.0 1593.51  51
  -4   8   3 36476.0 1721.02  43
  -4   8   2 12177.6 924.951  51
  -4   8   2 13152.2 1053.15  43
  -4   8   1 48238.8 2013.54  43
  -4   8   0 5740.18 763.062  43
  -4   8  -1 40782.5 1419.48  49
  -4   8  -1 39605.8 1736.43  43
  -4   8  -2 8868.49 630.121  49
  -4   8  -2 8336.89 792.721  43
  -4   8  -3 19263.5 886.089  49
  -4   8  -3 20955.1 1080.95  43
  -4   8  -4 44271.3 1301.95  49
  -4   8  -4 45487.0 1421.01  43
  -4   8  -5 155.041 137.879  49
  -4   8  -5 61.2787 128.968  43
  -3   8  13 785.954 262.647  51
  -3   8  12 44065.3 1636.76  51
  -3   8  11 3408.49 602.471  51
  -3   8  10 65025.6 2350.54  51
  -3   8   9 46239.9 1675.42  33
  -3   8   9 52954.1 2165.92  51
  -3   8   8 5021.69 602.541  33
  -3   8   8 5054.15 795.889  51
  -3   8   7 158256. 4236.84  51
  -3   8   6 8343.16 953.274  51
  -3   8   6 9343.55 773.752  43
  -3   8   5 58327.1 2382.59  51
  -3   8   5 59145.1 2136.06  43
  -3   8   4 40849.3 1976.08  51
  -3   8   4 41453.3 1805.65  43
  -3   8   3 60337.7 2371.36  51
  -3   8   3 63453.1 2325.98  43
  -3   8   2 99695.4 3091.31  51
  -3   8   2 105520. 3148.67  43
  -3   8   1 3004.60 605.516  43
  -3   8   0 92142.0 2951.45  43
  -3   8  -1 14584.5 1132.79  43
  -3   8  -2 66298.9 2034.26  49
  -3   8  -2 68451.4 2413.77  43
  -3   8  -3 67616.6 2052.73  49
  -3   8  -3 74977.5 2436.60  43
  -3   8  -4 8698.34 674.044  49
  -3   8  -4 10762.0 855.434  43
  -3   8  -5 71488.2 1924.69  49
  -3   8  -5 76116.4 2067.72  43
  -3   8  -6 6156.79 474.310  49
  -3   8  -6 6871.03 500.153  43
  -3   8  -7 46818.5 1132.13  49
  -3   8  -7 41991.2 1021.51  43
  -2   8  14 11352.0 619.557  51
  -2   8  13 19533.5 1024.29  51
  -2   8  12 64.7696 320.143  34
  -2   8  12 2.64076 340.191  51
  -2   8  11 104520. 3005.86  34
  -2   8  11 104653. 3046.12  51
  -2   8  10 27797.7 1466.45  34
  -2   8  10 29800.4 1599.03  51
  -2   8   9 31744.9 1522.10  34
  -2   8   9 32970.4 1724.45  51
  -2   8   8 76504.6 2745.83  51
  -2   8   7 3503.63 664.819  51
  -2   8   7 2744.74 603.670  28
  -2   8   6 106591. 3223.38  51
  -2   8   6 100672. 3317.19  28
  -2   8   5 11778.1 1786.53   4
  -2   8   5 10618.0 980.920  51
  -2   8   5 10224.6 997.375  28
  -2   8   4 33769.1 3056.09   4
  -2   8   4 31073.3 1678.31  28
  -2   8   4 33624.0 1500.93  43
  -2   8   3 51757.7 3805.23   4
  -2   8   3 46882.5 2041.78  28
  -2   8   3 50933.9 1950.93  43
  -2   8   2 11379.0 1815.46   4
  -2   8   2 10531.5 981.529  38
  -2   8   2 11005.8 895.042  28
  -2   8   2 11196.4 915.557  43
  -2   8   1 157513. 4074.45  38
  -2   8   1 158116. 3954.61  43
  -2   8   0 3641.93 592.759  38
  -2   8   0 3104.06 554.017  43
  -2   8  -1 62308.8 2280.44  38
  -2   8  -1 63700.4 2307.60  43
  -2   8  -2 40804.9 1702.32  38
  -2   8  -2 40004.4 1732.59  45
  -2   8  -2 41336.5 1814.55  43
  -2   8  -3 18769.4 1035.48  38
  -2   8  -3 19975.7 1068.15  49
  -2   8  -3 20048.3 1210.52  45
  -2   8  -3 20847.9 1263.75  43
  -2   8  -4 101063. 2876.22  45
  -2   8  -4 104627. 2901.43  43
  -2   8  -5 1880.14 392.057  49
  -2   8  -5 1056.25 391.953  45
  -2   8  -5 1751.76 446.734  43
  -2   8  -6 32963.7 1267.86  49
  -2   8  -6 35650.7 1340.30  43
  -2   8  -7 2453.27 323.374  49
  -2   8  -7 2376.90 325.801  43
  -2   8  -8 30259.8 887.575  49
  -2   8  -8 29752.0 837.438  43
  -1   8  14 68432.7 2090.45  34
  -1   8  13 2153.85 502.916  34
  -1   8  13 1352.86 308.361  51
  -1   8  12 67342.8 2381.91  34
  -1   8  12 60937.3 2067.00  51
  -1   8  11 11613.1 1015.79  34
  -1   8  11 11918.6 960.751  51
  -1   8  10 69549.0 2497.70  34
  -1   8  10 69645.0 2434.00  51
  -1   8   9 90317.9 2807.48  34
  -1   8   9 91042.4 2871.71  51
  -1   8   9 86012.1 2892.97  28
  -1   8   8 5257.98 616.936  34
  -1   8   8 5160.71 698.078  51
  -1   8   8 5176.84 711.029  28
  -1   8   7 26951.7 2845.93   4
  -1   8   7 30744.1 1563.80  51
  -1   8   7 28949.3 1605.90  28
  -1   8   6 952.362 599.406   4
  -1   8   6 1190.76 398.694  51
  -1   8   6 1146.97 405.987  28
  -1   8   5 57751.8 2180.15  38
  -1   8   5 53202.7 3974.73   4
  -1   8   5 56337.2 2151.23  28
  -1   8   4 40181.7 1772.42  38
  -1   8   4 38723.9 3356.84   4
  -1   8   4 36897.2 1682.88  28
  -1   8   3 35699.8 1662.61  38
  -1   8   3 34607.4 3153.70   4
  -1   8   3 33823.6 1542.55  28
  -1   8   3 35291.4 1428.48  43
  -1   8   2 82824.2 4871.30   4
  -1   8   2 80830.9 2594.19  38
  -1   8   2 76245.7 2352.46  28
  -1   8   2 79885.3 2363.97  43
  -1   8   1 8202.68 1573.45   4
  -1   8   1 7357.12 756.815  38
  -1   8   1 7991.48 669.657  28
  -1   8   1 7544.16 713.199  43
  -1   8   0 98387.8 5308.65   4
  -1   8   0 95050.9 2787.54  38
  -1   8   0 94499.0 2724.35  43
  -1   8  -1 23539.5 2541.94   4
  -1   8  -1 22349.8 1251.75  38
  -1   8  -1 24226.2 1216.61  45
  -1   8  -1 22699.6 1271.50  43
  -1   8  -2 108694. 2937.24  38
  -1   8  -2 107135. 2909.78  45
  -1   8  -2 109429. 3018.71  43
  -1   8  -3 73168.0 2230.15  38
  -1   8  -3 74014.0 2374.50  45
  -1   8  -3 75841.5 2443.39  43
  -1   8  -4 2159.99 363.386  38
  -1   8  -4 2021.55 370.912  49
  -1   8  -4 2656.09 495.384  45
  -1   8  -4 3124.18 576.120  43
  -1   8  -5 122476. 3155.78  45
  -1   8  -5 128583. 3179.41  43
  -1   8  -6 2652.77 412.531  49
  -1   8  -6 2689.45 474.575  45
  -1   8  -6 3574.04 526.908  43
  -1   8  -7 45478.5 1442.20  49
  -1   8  -7 49052.3 1617.48  45
  -1   8  -7 49115.3 1526.48  43
  -1   8  -8 28165.8 960.097  49
  -1   8  -8 29672.9 990.073  43
   0   8  15 21784.9 978.414  34
   0   8  14 9563.54 786.949  34
   0   8  13 65624.9 2286.12  34
   0   8  12 127.774 423.378  34
   0   8  11 92867.3 2950.75  34
   0   8  11 88959.1 2584.18  28
   0   8  10 12804.2 1073.43  34
   0   8  10 12343.8 967.615  28
   0   8   9 79642.6 2669.57  34
   0   8   9 82325.8 2501.19  51
   0   8   9 77423.4 2610.77  28
   0   8   8 31363.3 3330.10   4
   0   8   8 33174.7 1582.69  34
   0   8   8 33611.3 1526.27  51
   0   8   8 32543.2 1627.16  28
   0   8   7 21578.2 2735.48   4
   0   8   7 22059.2 1229.02  51
   0   8   7 24658.5 1392.59  28
   0   8   6 156453. 3621.92  38
   0   8   6 150440. 7249.49   4
   0   8   6 162666. 3937.59  28
   0   8   5 8922.12 763.421  38
   0   8   5 7768.19 1591.57   4
   0   8   5 8815.40 804.984  28
   0   8   4 64959.5 2149.22  38
   0   8   4 58116.7 4217.86   4
   0   8   4 62774.9 2171.99  28
   0   8   3 92198.1 2636.99  38
   0   8   3 84460.3 5026.89   4
   0   8   3 91219.8 2609.89  28
   0   8   2 44840.6 1755.85  38
   0   8   2 41191.2 3407.70   4
   0   8   2 41657.3 1630.26  28
   0   8   1 98555.3 2759.22  38
   0   8   1 90271.5 5018.90   4
   0   8   1 93346.5 2513.63  28
   0   8   1 97961.7 2529.93  43
   0   8   0 27512.3 2664.43   4
   0   8   0 26057.8 1330.20  38
   0   8   0 26431.0 1164.43  28
   0   8   0 24208.6 1203.92  43
   0   8  -1 123260. 3146.84  38
   0   8  -1 118135. 3036.75  43
   0   8  -2 46442.0 1807.25  38
   0   8  -2 46412.6 1716.56  45
   0   8  -2 47128.9 1809.89  43
   0   8  -3 32371.2 1442.47  38
   0   8  -3 32101.5 1447.11  45
   0   8  -3 32077.8 1483.16  43
   0   8  -4 74417.1 2201.59  38
   0   8  -4 76579.8 2384.95  45
   0   8  -4 80785.0 2439.38  43
   0   8  -5 4091.62 459.590  38
   0   8  -5 4366.34 576.338  45
   0   8  -5 4032.36 605.174  43
   0   8  -6 73471.2 2061.00  49
   0   8  -6 75592.4 2233.86  45
   0   8  -6 77054.2 2228.84  43
   0   8  -7 18706.1 895.201  49
   0   8  -7 18510.1 985.460  45
   0   8  -7 20061.5 976.233  43
   0   8  -8 34830.8 1095.17  49
   0   8  -8 35961.7 1231.56  45
   0   8  -8 36653.3 1169.86  43
   0   8  -9 44911.6 1161.22  45
   0   8  -9 42351.7 1055.41  43
   1   8  15 14529.8 746.359  34
   1   8  14 92664.8 2474.49  34
   1   8  13 5462.28 694.310  34
   1   8  13 4639.79 574.931  46
   1   8  12 68655.5 2420.87  34
   1   8  12 59915.7 2222.63  46
   1   8  11 16570.0 1226.08  34
   1   8  11 14829.5 1142.13  46
   1   8  10 60516.4 2342.54  34
   1   8  10 59391.7 2024.85  28
   1   8  10 58303.9 2337.19  46
   1   8   9 52602.8 2294.33  47
   1   8   9 47995.4 1889.83  28
   1   8   9 49426.5 2137.15  46
   1   8   8 29026.0 1654.86  47
   1   8   8 24938.5 1370.16  28
   1   8   8 25085.2 1533.84  46
   1   8   7 79510.1 5628.01   4
   1   8   7 94964.4 3035.12  47
   1   8   7 94284.6 2797.89  28
   1   8   7 77282.3 2760.59  46
   1   8   6 12077.9 2137.26   4
   1   8   6 13051.3 1052.10  47
   1   8   6 14585.1 1041.09  28
   1   8   5 109519. 2774.79  38
   1   8   5 111059. 3154.10  47
   1   8   5 114011. 3097.66  28
   1   8   4 60700.1 1981.49  38
   1   8   4 58406.5 2073.06  47
   1   8   4 60668.4 2133.43  28
   1   8   3 14041.3 935.183  38
   1   8   3 10652.1 1811.72   4
   1   8   2 42186.7 1678.83  38
   1   8   2 39548.4 1620.31  28
   1   8   1 3179.15 511.899  38
   1   8   1 2711.53 951.106   4
   1   8   1 2594.56 448.748  28
   1   8   0 134597. 3374.26  38
   1   8   0 133467. 3137.36  28
   1   8   0 131714. 3050.01  43
   1   8  -1 18067.8 1128.08  38
   1   8  -1 20594.8 1019.81  28
   1   8  -1 19830.9 1090.40  43
   1   8  -2 42474.7 1758.85  38
   1   8  -2 45043.3 1717.72  43
   1   8  -3 41104.0 1688.91  38
   1   8  -3 44053.0 1721.93  43
   1   8  -4 15072.6 962.109  38
   1   8  -4 17456.8 1115.46  43
   1   8  -5 61378.4 1907.64  38
   1   8  -5 68958.0 2177.33  43
   1   8  -6 13885.3 751.850  38
   1   8  -6 12934.5 868.326  45
   1   8  -6 14991.1 943.797  43
   1   8  -7 16981.6 913.158  45
   1   8  -7 16902.7 896.314  43
   1   8  -8 18724.2 721.299  49
   1   8  -8 19504.6 849.750  45
   1   8  -8 19175.5 814.542  43
   1   8  -9 12350.6 537.512  45
   1   8  -9 12163.2 505.085  43
   2   8  14 10346.9 677.230  34
   2   8  14 8514.41 637.674  46
   2   8  13 102424. 2686.80  34
   2   8  13 98161.3 2721.91  46
   2   8  12 66.8690 362.983  34
   2   8  12 19.4223 374.247  46
   2   8  11 38757.1 1802.70  34
   2   8  11 42397.5 1929.86  46
   2   8  10 28817.7 1672.70  47
   2   8  10 25685.0 1571.99  46
   2   8   9 44350.1 2123.42  47
   2   8   9 38582.2 1606.14  28
   2   8   9 40909.4 1986.10  46
   2   8   8 150389. 4201.50  47
   2   8   8 143478. 3598.98  28
   2   8   8 145402. 4060.78  46
   2   8   7 655.990 467.763  47
   2   8   7 984.553 450.903  46
   2   8   7 486.917 320.428  28
   2   8   6 95662.4 3168.70  47
   2   8   6 97159.8 2871.49  28
   2   8   5 19426.1 2791.53   4
   2   8   5 21951.2 1424.08  47
   2   8   5 23665.4 1363.41  28
   2   8   4 62053.9 1974.12  38
   2   8   4 63644.7 2351.06  47
   2   8   4 61118.3 2253.51  28
   2   8   3 103172. 2755.10  38
   2   8   3 100351. 2922.11  47
   2   8   3 103662. 3005.81  28
   2   8   2 20140.1 1167.00  38
   2   8   2 20262.0 1237.79  28
   2   8   2 21752.3 1310.35  44
   2   8   1 150542. 3651.55  38
   2   8   1 148756. 3697.99  28
   2   8   1 148348. 3816.48  44
   2   8   0 3450.26 574.752  38
   2   8   0 5146.57 630.541  28
   2   8   0 3992.86 637.007  44
   2   8  -1 52259.0 2030.80  38
   2   8  -1 51006.5 1873.03  28
   2   8  -1 55768.1 2132.24  44
   2   8  -1 57053.7 1846.09  43
   2   8  -2 20212.5 1229.62  38
   2   8  -2 19448.3 1022.18  28
   2   8  -2 22299.9 1234.95  43
   2   8  -3 69068.8 2314.56  38
   2   8  -3 70789.0 2236.89  43
   2   8  -4 54976.3 1964.66  38
   2   8  -4 60234.9 1997.05  43
   2   8  -5 1148.21 343.586  38
   2   8  -5 5440.42 731.737  43
   2   8  -6 35556.5 1264.45  38
   2   8  -6 39904.8 1468.24  43
   2   8  -7 6184.47 413.895  38
   2   8  -7 6576.61 539.983  43
   2   8  -8 24545.0 855.730  45
   2   8  -8 24482.1 843.387  43
   3   8  13 1142.94 282.319  34
   3   8  13 812.711 280.939  46
   3   8  12 30457.2 1321.38  34
   3   8  12 31507.0 1439.83  46
   3   8  11 3176.31 593.927  47
   3   8  11 2602.66 554.063  46
   3   8  10 38147.9 1855.85  47
   3   8  10 35076.3 1749.97  46
   3   8   9 40350.6 2001.31  47
   3   8   9 38529.4 1867.00  46
   3   8   8 2367.19 663.649  47
   3   8   8 1591.43 520.455  46
   3   8   8 1738.71 395.834  28
   3   8   7 42141.5 2148.76  47
   3   8   7 39226.8 1696.44  28
   3   8   6 361.638 435.109  47
   3   8   6 1612.33 435.006  28
   3   8   5 96418.1 3373.96  47
   3   8   5 99387.2 2988.72  28
   3   8   4 19645.0 1421.10  47
   3   8   4 22964.6 1377.72  28
   3   8   4 22491.8 1262.34  44
   3   8   3 13130.1 877.153  38
   3   8   3 12678.5 1072.20  47
   3   8   3 12766.6 1067.05  28
   3   8   3 14413.1 1075.03  44
   3   8   2 123655. 3189.71  38
   3   8   2 129391. 3587.64  28
   3   8   2 125232. 3509.81  44
   3   8   1 36879.8 1645.00  38
   3   8   1 36266.7 1748.14  28
   3   8   1 37716.5 1832.97  44
   3   8   0 105063. 2999.03  38
   3   8   0 105537. 3107.45  28
   3   8   0 110202. 3295.25  44
   3   8  -1 18666.3 1224.82  38
   3   8  -1 17761.2 1155.62  28
   3   8  -1 18027.0 1268.80  44
   3   8  -2 48958.5 1944.15  38
   3   8  -2 45339.0 1728.26  28
   3   8  -2 50360.9 2058.30  44
   3   8  -2 50228.6 1705.25  43
   3   8  -3 37280.6 1653.17  38
   3   8  -3 35798.8 1337.39  28
   3   8  -3 36099.0 1599.18  44
   3   8  -3 40711.7 1516.48  43
   3   8  -4 17095.0 1045.13  38
   3   8  -4 23560.6 1139.14  43
   3   8  -5 61790.9 1839.14  38
   3   8  -5 61936.0 1794.23  43
   3   8  -6 1060.14 257.059  38
   3   8  -6 2817.91 396.490  43
   3   8  -7 37434.2 972.662  38
   3   8  -7 41916.8 1115.09  43
   4   8  12 53.9342 142.658  34
   4   8  11 32548.1 1237.02  34
   4   8  11 35165.0 1372.71  47
   4   8  10 19259.9 1155.79  47
   4   8   9 32225.2 1641.02  47
   4   8   8 41149.4 1982.10  47
   4   8   7 573.484 481.974  47
   4   8   7 1185.40 353.018  28
   4   8   6 80108.7 2987.26  47
   4   8   6 78768.1 2423.75  28
   4   8   5 16368.3 1333.39  47
   4   8   5 19829.0 1214.09  28
   4   8   4 48441.8 2285.72  47
   4   8   4 51340.6 2057.32  28
   4   8   4 52044.0 1858.58  44
   4   8   3 83107.0 2932.34  47
   4   8   3 92440.2 2859.59  28
   4   8   3 85225.0 2640.76  44
   4   8   2 1306.97 311.715  38
   4   8   2 1216.27 483.056  28
   4   8   2 2062.08 496.646  44
   4   8   1 71512.7 2198.74  38
   4   8   1 75682.3 2561.02  28
   4   8   1 75723.6 2565.06  44
   4   8   0 5473.55 627.511  38
   4   8   0 4814.93 664.720  28
   4   8   0 5276.60 734.211  44
   4   8  -1 41680.3 1642.78  38
   4   8  -1 41054.2 1685.86  28
   4   8  -1 43476.6 1863.81  44
   4   8  -2 32786.6 1417.26  38
   4   8  -2 31192.0 1339.56  28
   4   8  -2 32138.1 1519.47  44
   4   8  -3 7891.04 681.520  38
   4   8  -3 6488.24 514.905  28
   4   8  -3 8366.66 714.787  44
   4   8  -4 48924.5 1528.38  38
   4   8  -4 45592.4 1248.31  43
   4   8  -5 2332.26 310.116  38
   4   8  -5 2612.27 267.308  43
   4   8  -6 32027.3 862.822  38
   5   8  10 27350.2 971.678  47
   5   8   9 24852.5 1078.12  47
   5   8   8 5464.84 598.744  47
   5   8   7 34191.1 1526.50  47
   5   8   6 632.902 377.318  47
   5   8   6 819.418 253.480  28
   5   8   5 43112.0 1823.94  47
   5   8   5 43366.3 1514.54  28
   5   8   4 18451.8 1155.47  47
   5   8   4 22943.3 1124.23  28
   5   8   3 18532.0 1077.19  47
   5   8   3 17824.0 1034.58  28
   5   8   2 24350.6 1208.23  28
   5   8   2 23327.6 1092.66  44
   5   8   1 4184.41 513.545  44
   5   8   1 3190.96 483.389  28
   5   8   0 36031.0 1171.79  38
   5   8   0 39805.4 1451.73  28
   5   8   0 40494.6 1473.47  44
   5   8  -1 8282.72 543.925  38
   5   8  -1 10650.1 677.925  28
   5   8  -1 9571.25 686.470  44
   5   8  -2 23073.7 879.017  38
   5   8  -2 23603.4 886.748  28
   5   8  -3 19539.3 722.201  38
  -5   9   7 27120.5 860.075  33
  -5   9   6 52357.9 1363.26  33
  -5   9   5 2101.13 293.645  33
  -5   9   4 46116.7 1341.69  33
  -5   9   2 15422.7 708.741  43
  -5   9   1 14052.8 650.537  43
  -5   9   0 9309.11 490.851  43
  -4   9  11 599.432 174.891  51
  -4   9  10 46444.4 1404.30  51
  -4   9   9 7437.92 480.258  33
  -4   9   9 6768.07 584.143  51
  -4   9   8 35572.8 1222.69  33
  -4   9   8 35769.7 1389.91  51
  -4   9   7 32149.3 1245.12  33
  -4   9   7 30034.9 1332.26  51
  -4   9   6 7419.17 686.808  51
  -4   9   5 50699.1 1776.30  51
  -4   9   5 50694.4 1650.60  43
  -4   9   4 1149.18 342.087  51
  -4   9   4 963.795 324.279  43
  -4   9   3 26483.5 1176.63  51
  -4   9   3 28379.7 1275.90  43
  -4   9   2 6224.83 543.396  51
  -4   9   2 6945.65 653.969  43
  -4   9   1 19165.2 1027.61  43
  -4   9   0 61885.2 1889.43  43
  -4   9  -1 655.040 267.841  43
  -4   9  -2 38844.7 1277.97  43
  -4   9  -3 5180.58 399.839  43
  -3   9  12 11659.8 678.866  51
  -3   9  11 51222.4 1690.37  51
  -3   9  10 617.289 377.127  51
  -3   9   9 46153.6 1837.15  51
  -3   9   8 29941.0 1223.06  33
  -3   9   8 29116.9 1508.48  51
  -3   9   7 51313.7 2046.77  51
  -3   9   6 36705.5 1742.36  51
  -3   9   6 35652.5 1366.66  43
  -3   9   5 2850.14 574.991  51
  -3   9   5 3432.19 481.248  43
  -3   9   4 68004.9 2372.21  51
  -3   9   4 66937.8 2156.31  43
  -3   9   3 17867.5 1156.30  51
  -3   9   3 17383.4 1075.84  43
  -3   9   2 56306.0 2034.10  51
  -3   9   2 58455.6 2053.85  43
  -3   9   1 38662.8 1613.01  51
  -3   9   1 41909.7 1722.76  43
  -3   9   0 16843.1 1072.22  43
  -3   9  -1 88345.2 2532.10  43
  -3   9  -2 213.860 373.316  43
  -3   9  -3 87552.4 2279.84  43
  -3   9  -4 20876.5 911.638  43
  -3   9  -5 11384.7 563.187  43
  -2   9  13 22902.7 921.792  51
  -2   9  12 31398.8 1273.04  51
  -2   9  11 11263.1 753.378  34
  -2   9  11 10645.5 823.005  51
  -2   9  10 85639.3 2262.69  34
  -2   9  10 76569.6 2468.36  51
  -2   9   9 6214.08 750.636  51
  -2   9   8 30705.3 1577.66  51
  -2   9   7 26378.7 1498.26  51
  -2   9   6 43505.5 1922.43  51
  -2   9   6 40239.4 1886.25  28
  -2   9   5 59645.7 2257.46  51
  -2   9   5 54689.8 2157.08  28
  -2   9   4 1549.49 503.500  51
  -2   9   4 1077.61 371.668  28
  -2   9   4 1388.07 336.024  43
  -2   9   3 129196. 3363.35  28
  -2   9   3 127235. 3210.72  43
  -2   9   2 115516. 2936.66  28
  -2   9   2 111717. 3040.89  43
  -2   9   1 10825.5 880.797  43
  -2   9   0 41564.0 1730.32  43
  -2   9  -1 2476.66 502.446  43
  -2   9  -2 61449.6 2074.95  43
  -2   9  -3 13883.9 943.564  43
  -2   9  -4 46680.4 1620.55  43
  -2   9  -5 34139.2 1213.25  43
  -2   9  -6 5830.53 419.134  43
  -1   9  14 29713.7 1102.28  34
  -1   9  13 26219.4 1160.59  34
  -1   9  12 13504.8 907.099  34
  -1   9  12 11960.7 762.169  51
  -1   9  11 96884.5 2646.26  34
  -1   9  11 82004.0 2416.28  51
  -1   9  10 527.365 300.895  34
  -1   9  10 250.326 300.923  51
  -1   9   9 86656.4 2463.64  34
  -1   9   9 80124.8 2558.80  51
  -1   9   9 85317.3 2757.97  28
  -1   9   8 52033.9 2029.85  51
  -1   9   8 55601.5 2190.26  28
  -1   9   7 15461.3 1103.86  51
  -1   9   7 17360.5 1209.96  28
  -1   9   6 54138.4 2083.69  51
  -1   9   6 55071.2 2149.97  28
  -1   9   5 1866.24 472.368  38
  -1   9   5 2337.05 508.524  28
  -1   9   4 92605.4 2816.20  38
  -1   9   4 87203.9 2663.53  28
  -1   9   3 21720.9 1287.52  38
  -1   9   3 20597.4 1182.24  28
  -1   9   2 40639.0 1757.72  38
  -1   9   2 39495.5 1589.43  28
  -1   9   2 40318.1 1586.36  43
  -1   9   1 44499.0 1813.06  38
  -1   9   1 42956.4 1541.90  28
  -1   9   1 42341.0 1685.21  43
  -1   9   0 9978.37 862.779  38
  -1   9   0 10230.1 821.006  43
  -1   9  -1 90983.3 2601.46  38
  -1   9  -1 86449.8 2549.09  43
  -1   9  -2 220.962 275.842  38
  -1   9  -2 208.341 204.911  45
  -1   9  -2 278.490 329.524  43
  -1   9  -3 26518.6 1165.12  38
  -1   9  -3 26305.2 1212.83  45
  -1   9  -3 26840.7 1296.73  43
  -1   9  -4 30938.2 1127.52  38
  -1   9  -4 31500.3 1300.38  45
  -1   9  -4 32768.4 1384.16  43
  -1   9  -5 49743.5 1609.86  45
  -1   9  -5 53055.7 1663.29  43
  -1   9  -6 38994.8 1266.61  45
  -1   9  -6 39228.3 1252.86  43
  -1   9  -7 1215.38 213.240  43
   0   9  15 36579.1 1082.35  34
   0   9  14 8766.17 633.879  34
   0   9  13 23757.2 1166.96  34
   0   9  12 53350.5 1908.50  34
   0   9  11 5358.04 655.784  34
   0   9  11 5248.97 576.324  28
   0   9  10 50304.3 1917.96  34
   0   9  10 47203.4 1852.84  28
   0   9   9 5043.50 619.024  34
   0   9   9 4628.59 557.966  51
   0   9   9 5070.75 647.734  28
   0   9   8 90405.9 2557.59  34
   0   9   8 92176.5 2790.81  28
   0   9   7 66182.1 2038.85  34
   0   9   7 68502.9 2346.95  28
   0   9   6 18698.1 1102.86  38
   0   9   6 17013.0 1069.29  51
   0   9   6 17103.3 1137.60  28
   0   9   5 105051. 2916.58  38
   0   9   5 108203. 2998.97  28
   0   9   4 143.597 277.063  38
   0   9   4 1130.86 379.439  28
   0   9   3 113862. 3038.75  38
   0   9   3 110085. 2935.47  28
   0   9   2 6951.69 728.395  38
   0   9   2 7432.88 682.141  28
   0   9   1 72137.5 2303.72  38
   0   9   1 68680.0 2077.26  28
   0   9   1 71921.9 2109.14  43
   0   9   0 126192. 3191.48  38
   0   9   0 120485. 2998.56  43
   0   9  -1 5152.57 632.230  38
   0   9  -1 4960.29 577.192  43
   0   9  -2 75718.7 2261.33  38
   0   9  -2 72893.2 2095.69  45
   0   9  -2 74491.3 2248.32  43
   0   9  -3 7488.14 655.197  38
   0   9  -3 7254.47 629.209  45
   0   9  -3 7343.34 687.554  43
   0   9  -4 35431.2 1306.79  38
   0   9  -4 36785.4 1402.71  45
   0   9  -4 38817.2 1501.06  43
   0   9  -5 31037.9 1064.08  38
   0   9  -5 33417.8 1278.26  45
   0   9  -5 34788.5 1329.72  43
   0   9  -6 3299.74 390.327  45
   0   9  -6 3617.58 419.930  43
   0   9  -7 38491.5 1127.04  45
   0   9  -7 39882.2 1131.82  43
   1   9  14 46917.1 1454.69  34
   1   9  13 31230.5 1322.50  34
   1   9  12 9502.27 821.525  34
   1   9  11 45683.9 1817.05  34
   1   9  11 43252.1 1522.07  28
   1   9  10 1881.19 482.726  34
   1   9  10 2048.17 417.294  28
   1   9   9 76774.0 2416.23  28
   1   9   8 26371.8 1381.64  28
   1   9   7 14332.4 1043.28  28
   1   9   6 110686. 3082.83  28
   1   9   5 1499.97 361.383  38
   1   9   5 1410.64 430.350  28
   1   9   4 109874. 2901.95  38
   1   9   4 111929. 3035.55  28
   1   9   3 3853.32 538.182  38
   1   9   3 3849.68 558.117  28
   1   9   2 88201.9 2583.06  38
   1   9   2 89997.5 2556.17  28
   1   9   1 75828.4 2379.78  38
   1   9   1 76740.4 2272.27  28
   1   9   0 18236.1 1127.53  38
   1   9   0 17579.4 967.500  28
   1   9   0 18404.9 967.350  43
   1   9  -1 82700.5 2466.93  38
   1   9  -1 79221.1 2240.75  43
   1   9  -2 1099.20 405.972  38
   1   9  -2 695.062 292.504  43
   1   9  -3 41470.0 1565.99  38
   1   9  -3 38658.1 1419.11  45
   1   9  -3 38242.9 1483.90  43
   1   9  -4 13881.3 819.682  38
   1   9  -4 12639.8 782.749  45
   1   9  -4 13142.7 844.515  43
   1   9  -5 12973.4 698.667  38
   1   9  -5 12832.0 756.949  45
   1   9  -5 14228.6 817.796  43
   1   9  -6 33872.9 969.407  38
   1   9  -6 34166.5 1150.48  45
   1   9  -6 34796.4 1173.20  43
   1   9  -7 735.072 176.862  45
   1   9  -7 797.351 197.262  43
   2   9  14 19233.6 785.791  34
   2   9  13 38275.4 1350.89  34
   2   9  12 23153.9 1158.16  34
   2   9  11 716.456 391.388  34
   2   9  10 46904.8 1590.30  28
   2   9   9 10366.8 998.615  47
   2   9   9 9810.83 765.476  28
   2   9   8 65054.0 2434.70  47
   2   9   8 61445.7 2119.43  28
   2   9   7 68774.8 2495.96  47
   2   9   7 72617.9 2349.89  28
   2   9   6 15709.9 1146.81  47
   2   9   6 14252.9 1043.06  28
   2   9   5 128190. 3457.73  47
   2   9   5 136840. 3468.79  28
   2   9   4 8175.45 684.956  38
   2   9   4 8011.98 745.569  47
   2   9   4 9149.67 852.263  28
   2   9   3 87299.3 2496.17  38
   2   9   3 88292.4 2660.31  28
   2   9   2 38901.8 1612.61  38
   2   9   2 41297.0 1703.89  28
   2   9   1 46893.0 1802.99  38
   2   9   1 47531.3 1781.05  28
   2   9   0 84187.0 2510.63  38
   2   9   0 84265.1 2399.89  28
   2   9  -1 373.958 384.391  38
   2   9  -1 357.000 238.594  28
   2   9  -1 280.664 234.978  43
   2   9  -2 77478.5 2317.82  38
   2   9  -2 72734.9 2028.45  43
   2   9  -3 6717.56 656.364  38
   2   9  -3 6409.84 592.064  43
   2   9  -4 20085.2 977.550  38
   2   9  -4 20267.5 950.123  43
   2   9  -5 27539.0 1016.47  38
   2   9  -5 27754.6 1023.98  45
   2   9  -5 28818.7 1073.33  43
   2   9  -6 7162.43 409.717  38
   2   9  -6 7529.25 457.828  45
   2   9  -6 7698.54 483.364  43
   2   9  -7 38712.1 955.491  43
   3   9  13 13413.4 629.540  34
   3   9  12 6864.24 545.165  34
   3   9  11 33613.7 1346.99  34
   3   9  10 3400.72 584.121  47
   3   9   9 21840.8 1344.27  47
   3   9   9 19320.3 951.917  28
   3   9   8 10940.5 995.828  47
   3   9   8 10690.4 783.495  28
   3   9   7 25681.2 1479.30  47
   3   9   7 24283.7 1234.64  28
   3   9   6 45042.8 1953.81  47
   3   9   6 48187.6 1831.29  28
   3   9   5 12098.5 991.933  47
   3   9   5 12268.1 961.072  28
   3   9   4 43698.1 1802.04  47
   3   9   4 45770.6 1849.88  28
   3   9   3 28264.4 1237.31  38
   3   9   3 32298.6 1548.40  28
   3   9   2 41714.6 1583.92  38
   3   9   2 44225.0 1800.10  28
   3   9   1 12739.5 878.998  38
   3   9   1 13905.5 975.651  28
   3   9   0 15273.7 972.497  38
   3   9   0 15779.0 973.778  28
   3   9  -1 40950.3 1579.06  38
   3   9  -1 39123.5 1458.94  28
   3   9  -2 813.607 357.677  38
   3   9  -2 1132.34 278.129  28
   3   9  -3 95136.4 2355.73  38
   3   9  -3 85884.1 1973.59  43
   3   9  -4 36046.5 1213.81  38
   3   9  -4 32554.0 1041.22  43
   3   9  -5 11266.6 561.559  38
   3   9  -5 10420.0 501.653  43
   4   9  11 4549.19 387.259  34
   4   9  10 64792.5 1861.05  47
   4   9   9 6348.11 645.778  47
   4   9   8 23480.0 1231.35  47
   4   9   8 20612.0 879.707  28
   4   9   7 22544.0 1252.00  47
   4   9   7 21780.8 1011.31  28
   4   9   6 19409.0 1171.36  47
   4   9   6 18456.7 998.215  28
   4   9   5 52257.8 1942.69  47
   4   9   5 56759.7 1856.75  28
   4   9   4 671.363 302.044  47
   4   9   4 361.102 348.435  28
   4   9   3 56113.0 1909.96  28
   4   9   2 38368.5 1288.72  38
   4   9   2 41401.9 1597.36  28
   4   9   1 14951.9 804.846  38
   4   9   1 15149.6 932.732  28
   4   9   0 29706.2 1162.41  38
   4   9   0 32992.2 1291.63  28
   4   9  -1 254.538 228.169  38
   4   9  -1 610.702 234.438  28
   4   9  -2 43680.7 1334.36  38
   4   9  -2 41253.2 1159.23  28
   4   9  -3 22568.5 853.701  38
   4   9  -4 14566.1 577.869  38
   5   9   8 11403.5 606.084  47
   5   9   7 15709.4 764.318  47
   5   9   6 28738.7 1077.44  47
   5   9   6 31169.0 949.217  28
   5   9   5 1331.35 261.667  47
   5   9   5 994.034 225.472  28
   5   9   4 26420.7 915.677  47
   5   9   4 30154.5 1057.99  28
   5   9   3 1474.61 287.423  28
   5   9   2 26325.5 986.624  28
   5   9   1 16079.1 723.349  28
   5   9   0 4134.45 341.787  28
  -4  10   9 31162.1 931.030  51
  -4  10   8 403.063 179.577  51
  -4  10   7 23385.6 812.364  33
  -4  10   7 23314.7 901.450  51
  -4  10   6 15973.0 712.535  33
  -4  10   6 15186.6 734.674  51
  -4  10   5 20142.5 843.550  51
  -4  10   4 31340.2 1034.56  51
  -4  10   4 30514.1 1022.05  43
  -4  10   3 1024.32 205.863  51
  -4  10   3 1117.67 237.572  43
  -4  10   2 46736.8 1330.71  43
  -4  10   1 10814.5 590.420  43
  -4  10   0 22961.6 821.486  43
  -4  10  -1 29162.1 869.438  43
  -3  10  11 15793.6 725.806  51
  -3  10  10 23046.3 1000.59  51
  -3  10   9 4941.92 527.998  51
  -3  10   8 50736.8 1718.18  51
  -3  10   7 3109.92 519.864  51
  -3  10   6 42990.4 1641.58  51
  -3  10   5 29886.7 1341.42  51
  -3  10   5 27381.6 1051.19  43
  -3  10   4 5704.14 614.053  51
  -3  10   4 5168.55 496.097  43
  -3  10   3 62038.6 1918.59  51
  -3  10   3 61099.1 1792.82  43
  -3  10   2 941.274 302.678  51
  -3  10   2 994.535 297.741  43
  -3  10   1 35647.1 1297.83  51
  -3  10   1 35389.0 1322.91  43
  -3  10   0 9225.94 597.291  51
  -3  10   0 9096.79 646.525  43
  -3  10  -1 44259.6 1234.60  51
  -3  10  -1 45968.0 1412.73  43
  -3  10  -2 46939.2 1341.51  43
  -3  10  -3 3290.88 311.757  43
  -2  10  12 30812.4 1031.01  51
  -2  10  11 10949.1 697.776  51
  -2  10  10 20422.4 1038.43  51
  -2  10   9 31878.7 1381.36  51
  -2  10   8 783.783 403.480  51
  -2  10   7 58755.9 2063.98  51
  -2  10   6 5201.92 680.341  51
  -2  10   5 44115.0 1797.83  51
  -2  10   4 104337. 2873.67  51
  -2  10   4 97481.2 2386.73  43
  -2  10   3 1001.75 439.554  51
  -2  10   3 755.882 272.813  43
  -2  10   2 53174.2 1765.90  43
  -2  10   1 2704.73 440.226  43
  -2  10   0 53837.3 1753.43  43
  -2  10  -1 26693.6 1167.68  43
  -2  10  -2 10842.9 712.355  43
  -2  10  -3 54374.9 1542.82  43
  -2  10  -4 2855.68 319.290  43
  -2  10  -5 28088.5 806.824  43
  -1  10  13 40832.4 1150.90  34
  -1  10  12 27769.6 1025.01  34
  -1  10  11 41067.1 1323.37  34
  -1  10  11 35951.1 1294.99  51
  -1  10  10 39355.8 1460.92  51
  -1  10   9 2230.13 454.013  51
  -1  10   9 2010.28 462.652  28
  -1  10   8 93244.0 2643.48  51
  -1  10   8 101227. 2850.05  28
  -1  10   7 22512.8 1238.02  51
  -1  10   7 25459.5 1372.85  28
  -1  10   6 25534.1 1334.00  51
  -1  10   6 24114.6 1315.01  28
  -1  10   5 27954.7 1412.59  51
  -1  10   5 29112.9 1398.22  28
  -1  10   4 17883.4 1149.49  38
  -1  10   4 17948.5 1061.60  28
  -1  10   3 85198.0 2584.11  38
  -1  10   3 80864.8 2340.80  28
  -1  10   2-199.531 374.340  38
  -1  10   2 69.4909 208.645  28
  -1  10   2 60.6467 207.874  43
  -1  10   1 68869.5 2196.18  38
  -1  10   1 66588.8 1998.85  43
  -1  10   0 21703.7 1140.93  38
  -1  10   0 20156.4 1045.10  43
  -1  10  -1 12654.3 833.976  38
  -1  10  -1 12421.7 804.613  43
  -1  10  -2 20280.4 963.248  38
  -1  10  -2 21004.3 1010.95  43
  -1  10  -3 461.859 185.301  38
  -1  10  -3 382.804 261.485  43
  -1  10  -4 50486.1 1449.30  43
  -1  10  -5 2959.31 309.638  43
   0  10  14 29952.9 910.835  34
   0  10  13 5986.11 477.412  34
   0  10  12 22383.1 1004.08  34
   0  10  11 19525.4 988.777  34
   0  10  10 14215.8 850.982  34
   0  10  10 13632.6 897.602  28
   0  10   9 47373.3 1586.91  34
   0  10   9 51910.7 1847.88  28
   0  10   8 377.241 265.679  51
   0  10   8 572.191 413.476  28
   0  10   7 49084.2 1781.75  51
   0  10   7 54821.3 1997.63  28
   0  10   6 19411.9 1096.11  38
   0  10   6 17979.2 1073.61  51
   0  10   6 21409.2 1210.37  28
   0  10   5 57797.8 1983.46  38
   0  10   5 58017.0 2024.77  28
   0  10   4 67978.3 2202.97  38
   0  10   4 69763.6 2181.29  28
   0  10   3 24789.4 1282.30  38
   0  10   3 21937.1 1155.68  28
   0  10   2 63174.9 2082.43  38
   0  10   2 58156.0 1865.35  28
   0  10   1 1447.77 419.957  38
   0  10   1 1730.96 319.772  28
   0  10   1 1267.41 290.180  43
   0  10   0 78801.6 2292.89  38
   0  10   0 74931.5 2069.70  43
   0  10  -1 40677.7 1521.44  38
   0  10  -1 37107.2 1394.33  43
   0  10  -2 5963.65 569.948  38
   0  10  -2 5796.22 547.693  43
   0  10  -3 24547.1 1009.54  38
   0  10  -3 24830.2 1046.68  43
   0  10  -4 190.856 154.201  38
   0  10  -4 105.231 134.851  45
   0  10  -4 396.809 234.831  43
   0  10  -5 55650.6 1306.21  45
   0  10  -5 57270.7 1430.23  43
   0  10  -6 11547.5 486.963  43
   1  10  14 92.2466 116.260  34
   1  10  13 37831.7 1211.47  34
   1  10  12 14880.1 814.113  34
   1  10  11 8808.52 680.989  34
   1  10  11 7849.60 567.895  28
   1  10  10 30533.4 1298.38  34
   1  10  10 29473.5 1251.49  28
   1  10   9 6668.66 623.501  34
   1  10   9 6988.92 670.296  28
   1  10   8 60396.9 1885.00  34
   1  10   8 63778.9 2088.25  28
   1  10   7 23899.8 1272.54  28
   1  10   6 42545.7 1521.97  38
   1  10   6 43808.8 1745.53  28
   1  10   5 37053.2 1479.65  38
   1  10   5 40832.6 1668.53  28
   1  10   4 22304.9 1142.72  38
   1  10   4 22049.9 1208.42  28
   1  10   3 66243.9 2106.18  38
   1  10   3 69377.8 2141.29  28
   1  10   2 648.157 341.831  38
   1  10   2 204.526 275.299  28
   1  10   1 42646.9 1645.18  38
   1  10   1 42655.2 1507.35  28
   1  10   0 31294.9 1371.83  38
   1  10   0 30182.3 1145.15  28
   1  10  -1 23781.9 1154.03  38
   1  10  -1 21669.9 969.315  43
   1  10  -2 31671.8 1253.71  38
   1  10  -2 29904.4 1140.88  43
   1  10  -3 4917.92 475.734  38
   1  10  -3 4902.80 447.854  43
   1  10  -4 54081.9 1412.42  38
   1  10  -4 55466.5 1477.69  43
   1  10  -5 4056.49 281.060  38
   1  10  -5 4314.43 347.802  43
   2  10  13 449.728 160.771  34
   2  10  12 22114.4 930.936  34
   2  10  11 22594.8 1027.13  34
   2  10  10 13812.6 842.388  34
   2  10  10 13018.2 730.752  28
   2  10   9 54382.7 1730.30  28
   2  10   8 321.323 291.551  28
   2  10   7 85621.1 2436.88  28
   2  10   6 35046.9 1518.60  28
   2  10   5 26354.4 1103.37  38
   2  10   5 27627.4 1357.63  28
   2  10   4 44321.6 1540.52  38
   2  10   4 46471.8 1752.75  28
   2  10   3 2350.23 400.523  38
   2  10   3 2156.06 442.350  28
   2  10   2 56572.6 1835.92  38
   2  10   2 57417.7 1868.07  28
   2  10   1 10908.2 793.044  38
   2  10   1 11598.7 773.488  28
   2  10   0 42816.8 1551.56  38
   2  10   0 41784.6 1398.23  28
   2  10  -1 62130.9 1860.64  38
   2  10  -2 5217.66 524.176  38
   2  10  -2 4534.79 383.571  43
   2  10  -3 50855.0 1454.06  38
   2  10  -3 46241.7 1254.95  43
   2  10  -4 5069.22 383.003  38
   2  10  -4 4361.83 331.543  43
   3  10  12 5146.20 365.985  34
   3  10  11 11588.8 630.973  34
   3  10  10 35826.6 1247.18  34
   3  10   9 654.373 204.789  28
   3  10   8 34764.1 1433.41  47
   3  10   8 34897.1 1269.93  28
   3  10   7 1590.33 397.794  47
   3  10   7 1525.03 358.668  28
   3  10   6 32769.4 1387.36  47
   3  10   6 34914.4 1390.60  28
   3  10   5 11743.2 778.813  47
   3  10   5 12181.8 834.504  28
   3  10   4 4365.63 561.629  28
   3  10   3 37205.3 1275.84  38
   3  10   3 40845.6 1524.91  28
   3  10   2 1430.36 307.092  38
   3  10   2 2076.30 423.423  28
   3  10   1 12982.6 762.304  38
   3  10   1 13271.5 793.938  28
   3  10   0 2882.36 394.827  38
   3  10   0 3150.84 378.164  28
   3  10  -1 32433.6 1163.60  38
   3  10  -1 30927.9 985.606  28
   3  10  -2 66023.3 1668.76  38
   3  10  -3 287.178 164.490  38
   3  10  -4 19733.7 625.629  38
   4  10  10 5228.37 353.736  34
   4  10   8 409.324 137.702  28
   4  10   7 38379.7 1290.05  47
   4  10   7 41130.6 1204.10  28
   4  10   6 4702.21 438.654  47
   4  10   6 5709.34 472.561  28
   4  10   5 29192.4 1014.07  47
   4  10   5 28966.7 1102.67  28
   4  10   4 22620.6 976.324  28
   4  10   3 632.565 259.101  28
   4  10   2 64038.3 1688.76  28
   4  10   1 4347.10 333.627  38
   4  10   1 5176.86 426.208  28
   4  10   0 13081.1 568.528  38
   4  10   0 13279.8 591.046  28
   4  10  -1 20319.6 685.339  38
  -3  11   9 25876.7 875.249  51
  -3  11   8 5088.72 418.675  51
  -3  11   7 35174.6 1166.54  51
  -3  11   6 211.654 225.360  51
  -3  11   5 39031.7 1260.74  51
  -3  11   4 8709.17 573.241  51
  -3  11   3 19976.8 822.547  51
  -3  11   3 18668.6 690.591  43
  -3  11   2 18084.4 729.529  51
  -3  11   2 17277.7 675.645  43
  -3  11   1 1717.31 219.555  51
  -3  11   1 1562.90 215.139  43
  -3  11   0 35582.5 948.677  43
  -2  11  11 19313.6 693.391  51
  -2  11  10 3585.60 361.766  51
  -2  11   9 13479.9 734.328  51
  -2  11   8 49792.9 1561.82  51
  -2  11   7 13095.5 800.728  51
  -2  11   6 25641.3 1154.23  51
  -2  11   5 570.622 329.403  51
  -2  11   4 54271.1 1719.92  51
  -2  11   3 19452.2 976.695  51
  -2  11   2 24277.1 1043.39  51
  -2  11   2 22523.8 879.370  43
  -2  11   1 32862.0 1164.22  51
  -2  11   1 30488.2 1040.93  43
  -2  11   0 303.525 210.746  51
  -2  11   0 287.260 169.190  43
  -2  11  -1 33541.8 1015.28  51
  -2  11  -1 32909.9 1008.09  43
  -2  11  -2 9995.08 449.313  51
  -2  11  -2 10447.1 493.809  43
  -1  11  10 29945.9 1046.08  51
  -1  11   9 27741.0 1083.23  51
  -1  11   8 13367.0 796.752  51
  -1  11   8 15102.7 899.554  28
  -1  11   7 84212.2 2264.34  51
  -1  11   7 91714.4 2408.94  28
  -1  11   6 666.464 346.788  51
  -1  11   6 418.951 287.342  28
  -1  11   5 68327.0 2038.35  51
  -1  11   5 70147.4 2005.14  28
  -1  11   4 36977.0 1451.06  51
  -1  11   4 38296.3 1373.82  28
  -1  11   3 13240.8 744.662  28
  -1  11   1 5665.76 557.101  38
  -1  11   1 5157.58 431.772  43
  -1  11   0 36852.6 1181.34  43
  -1  11  -1 4395.49 391.113  43
  -1  11  -2 11503.4 575.244  43
  -1  11  -3 16867.9 629.610  43
   0  11  12 1067.65 164.414  34
   0  11  11 29038.1 892.313  34
   0  11  10 9835.48 662.451  28
   0  11   9 26507.1 1162.88  28
   0  11   8 30246.6 1137.40  51
   0  11   8 36029.1 1405.01  28
   0  11   7 3809.91 440.527  51
   0  11   7 3711.55 529.136  28
   0  11   6 49921.9 1620.99  51
   0  11   6 53427.6 1778.84  28
   0  11   5 5443.06 560.837  38
   0  11   5 4429.98 505.347  51
   0  11   5 5650.45 587.588  28
   0  11   4 50156.5 1694.04  38
   0  11   4 48376.0 1610.64  28
   0  11   3 16718.4 956.230  38
   0  11   3 15068.5 832.449  28
   0  11   2 16139.0 929.089  38
   0  11   2 14976.9 763.621  28
   0  11   1 56308.0 1747.11  38
   0  11   0 584.159 287.921  38
   0  11   0 147.409 161.519  43
   0  11  -1 41488.6 1311.97  38
   0  11  -1 38423.8 1152.13  43
   0  11  -2 4291.70 375.428  38
   0  11  -2 3687.20 333.395  43
   0  11  -3 15251.9 582.225  38
   0  11  -3 15937.4 610.602  43
   1  11  12 25583.9 805.159  34
   1  11  11 959.565 204.339  34
   1  11  10 34715.2 1098.40  34
   1  11  10 35369.3 1196.21  28
   1  11   9 18500.0 784.947  34
   1  11   9 19801.1 945.126  28
   1  11   8 7670.61 644.760  28
   1  11   7 48352.0 1646.65  28
   1  11   6 752.550 236.923  38
   1  11   6 944.726 372.840  28
   1  11   5 27503.5 1135.55  38
   1  11   5 28605.0 1237.92  28
   1  11   4 10896.4 728.456  38
   1  11   4 11080.2 758.229  28
   1  11   3 28331.1 1185.31  38
   1  11   3 27182.1 1135.31  28
   1  11   2 27054.8 1159.10  38
   1  11   2 27121.8 1071.92  28
   1  11   1 538.603 302.702  38
   1  11   1 744.104 209.564  28
   1  11   0 52100.1 1572.66  38
   1  11  -1 5807.27 487.204  38
   1  11  -2 29035.7 976.607  38
   1  11  -3 23639.2 756.264  38
   2  11  11 36268.3 1024.58  34
   2  11  10 6848.73 458.224  34
   2  11  10 7264.90 449.469  28
   2  11   9 29718.0 1015.57  34
   2  11   9 30375.3 1071.08  28
   2  11   8 17220.5 756.244  34
   2  11   8 18474.5 882.690  28
   2  11   7 4440.48 492.575  28
   2  11   6 52996.5 1654.44  28
   2  11   5 598.616 309.130  28
   2  11   4 46503.1 1399.62  38
   2  11   4 49442.4 1573.76  28
   2  11   3 30664.3 1128.50  38
   2  11   3 32401.6 1212.36  28
   2  11   2 3458.72 401.630  38
   2  11   2 3062.28 373.578  28
   2  11   1 45270.6 1380.75  38
   2  11   1 43564.2 1270.95  28
   2  11   0 803.841 248.461  38
   2  11  -1 52856.7 1404.91  38
   2  11  -2 31639.4 946.901  38
   3  11  10 21655.3 692.882  34
   3  11   9 14299.3 599.570  34
   3  11   9 14192.1 553.540  28
   3  11   8 11004.3 545.455  34
   3  11   8 11725.5 577.706  28
   3  11   7 28216.4 1000.45  28
   3  11   6 240.100 200.563  28
   3  11   5 23508.3 964.583  28
   3  11   4 8737.42 581.714  28
   3  11   3 10871.3 517.629  38
   3  11   3 11244.5 631.372  28
   3  11   2 20524.1 759.616  38
   3  11   2 22513.5 853.200  28
   3  11   1 982.309 203.098  38
   3  11   1 745.464 172.820  28
   3  11   0 20553.9 724.436  38
   3  11  -1 2591.89 237.664  38
   4  11   6 26684.6 764.805  28
   4  11   5 608.429 147.678  28
   4  11   4 15265.9 589.006  28
   4  11   3 28367.0 808.549  28
  -2  12   8 36193.9 997.038  51
  -2  12   7 10025.5 527.703  51
  -2  12   6 8881.69 512.498  51
  -2  12   5 14521.9 662.621  51
  -2  12   4 1721.39 251.919  51
  -2  12   3 33123.3 987.965  51
  -2  12   2 1725.59 222.186  51
  -2  12   1 18782.7 620.336  51
  -1  12   9 29220.4 834.592  51
  -1  12   8 5928.77 405.101  51
  -1  12   7 55453.8 1447.83  51
  -1  12   6 40751.0 1231.06  51
  -1  12   5 1506.06 274.700  51
  -1  12   4 27276.4 985.608  51
  -1  12   3 1232.11 262.292  51
  -1  12   2 34422.4 1070.93  51
  -1  12   1 19110.7 739.483  51
  -1  12   0 9252.53 461.289  51
   0  12   8 27071.3 1002.19  28
   0  12   7 6457.81 414.818  51
   0  12   7 7573.33 538.474  28
   0  12   6 9619.92 538.398  51
   0  12   6 9651.66 597.609  28
   0  12   5 23074.9 884.606  51
   0  12   5 25730.6 956.360  28
   0  12   4 917.097 230.242  51
   0  12   4 948.234 222.735  28
   0  12   3 34873.7 1121.12  51
   0  12   3 37410.2 1046.63  28
   0  12   1 12957.3 632.332  38
   1  12   9 19450.4 750.596  28
   1  12   8 2897.61 332.436  28
   1  12   7 15813.2 752.499  28
   1  12   6 20621.2 865.637  28
   1  12   5 1249.66 262.865  28
   1  12   4 25727.6 919.318  38
   1  12   4 26883.2 941.002  28
   1  12   3 1079.65 235.079  38
   1  12   3 950.963 179.741  51
   1  12   3 1151.36 208.766  28
   1  12   2 15110.5 680.371  38
   1  12   2 13937.5 540.749  28
   1  12   1 22594.0 809.054  38
   1  12   0 5525.52 366.169  38
   1  12  -1 22531.3 674.196  38
   2  12   9 293.739 113.679  28
   2  12   8 18015.3 675.639  28
   2  12   7 8006.78 474.843  28
   2  12   6 19579.2 768.711  28
   2  12   5 36638.2 1084.73  28
   2  12   4 678.242 191.125  28
   2  12   3 31325.6 888.382  38
   2  12   3 32238.5 923.701  28
   2  12   2 8001.22 422.972  38
   2  12   2 7762.53 370.307  28
   2  12   1 12936.0 518.362  38
   3  12   6 16246.1 562.112  28
   3  12   5 2383.00 217.733  28
   0   0   0    0.00    0.00   0
;
_shelx_hkl_checksum              6708
loop_
_space_group_symop_operation_xyz
'x, y, z'
'-x, -y, -z'
loop_
_atom_site_label
_atom_site_type_symbol
_atom_site_fract_x
_atom_site_fract_y
_atom_site_fract_z
_atom_site_U_iso_or_equiv
_atom_site_adp_type
_atom_site_occupancy
_atom_site_site_symmetry_order
_atom_site_calc_flag
_atom_site_refinement_flags_posn
_atom_site_refinement_flags_adp
_atom_site_refinement_flags_occupancy
_atom_site_disorder_assembly
_atom_site_disorder_group
Eu1 Eu 0.25043(3) 0.65949(2) 0.70707(2) 0.01929(11) Uani 1 1 d . . . . .
N1 N 0.0802(5) 0.8850(4) 0.5760(3) 0.0291(7) Uani 1 1 d . . . . .
N2 N 0.4333(6) 0.5560(3) 0.8966(3) 0.0279(7) Uani 1 1 d . . . . .
N3 N 0.0914(5) 0.5730(3) 0.5590(2) 0.0253(7) Uani 1 1 d . . . . .
O1 O 0.4508(5) 0.7687(3) 0.5464(2) 0.0329(6) Uani 1 1 d . . . . .
O3 O 0.0653(5) 0.7019(3) 0.8514(2) 0.0360(7) Uani 1 1 d . . . . .
O5 O -0.1483(4) 0.6417(3) 0.6995(2) 0.0283(6) Uani 1 1 d . . . . .
O2 O 0.5051(6) 0.9143(4) 0.3882(3) 0.0448(8) Uani 1 1 d . . . . .
O4 O -0.0011(6) 0.6820(4) 1.0173(2) 0.0483(9) Uani 1 1 d . . . . .
O6 O -0.4414(4) 0.5276(3) 0.6763(2) 0.0261(6) Uani 1 1 d . . . . .
O1W O 0.1557(5) 0.4213(3) 0.7820(2) 0.0343(6) Uani 1 1 d . . . . .
O2W O 0.4445(6) 0.8369(3) 0.7440(2) 0.0406(7) Uani 1 1 d . . . . .
C1 C 0.3986(7) 0.8691(4) 0.4707(3) 0.0299(8) Uani 1 1 d . . . . .
C2 C 0.1865(7) 0.9393(4) 0.4852(3) 0.0287(8) Uani 1 1 d . . . . .
C3 C -0.1064(7) 0.9461(4) 0.5903(3) 0.0337(9) Uani 1 1 d . . . . .
H3 H -0.1854 0.9113 0.6525 0.040 Uiso 1 1 calc R U . . .
C4 C 0.1100(7) 0.6598(4) 0.9472(3) 0.0294(8) Uani 1 1 d . . . . .
C5 C 0.3174(7) 0.5744(4) 0.9759(3) 0.0264(8) Uani 1 1 d . . . . .
C6 C 0.6156(7) 0.4812(4) 0.9209(3) 0.0298(8) Uani 1 1 d . . . . .
H6 H 0.7005 0.4656 0.8677 0.036 Uiso 1 1 calc R U . . .
C7 C -0.2472(6) 0.5694(4) 0.6571(3) 0.0226(7) Uani 1 1 d . . . . .
C8 C -0.1165(6) 0.5293(4) 0.5746(3) 0.0233(7) Uani 1 1 d . . . . .
O3W O 0.6199(10) 0.8392(6) 0.9302(5) 0.0904(18) Uani 1 1 d . . . . .
O4WA O 0.1537(16) 0.2338(10) 0.6755(8) 0.071(2) Uiso 0.5 1 d . . P A 1
O4WB O 0.320(3) 0.1997(18) 0.7497(13) 0.128(5) Uiso 0.5 1 d . . P B 2
O5W O 0.020(4) 0.0153(19) 0.8454(18) 0.182(9) Uani 0.5 1 d . . P . .
O6W O 0.360(4) 0.853(3) 1.115(3) 0.265(18) Uani 0.5 1 d . . P . .
C9 C 0.2082(6) 0.5437(4) 0.4841(3) 0.0266(8) Uani 1 1 d . . . . .
H9 H 0.3533 0.5727 0.4710 0.032 Uiso 1 1 calc R U . . .
loop_
_atom_site_aniso_label
_atom_site_aniso_U_11
_atom_site_aniso_U_22
_atom_site_aniso_U_33
_atom_site_aniso_U_23
_atom_site_aniso_U_13
_atom_site_aniso_U_12
Eu1 0.01603(14) 0.02600(15) 0.01457(14) -0.00474(8) 0.00116(8) 0.00189(8)
N1 0.0242(16) 0.0339(18) 0.0260(17) -0.0047(13) 0.0031(13) -0.0005(13)
N2 0.0295(17) 0.0319(17) 0.0206(15) -0.0057(13) 0.0020(13) -0.0016(14)
N3 0.0187(15) 0.0368(17) 0.0204(15) -0.0093(13) 0.0031(12) 0.0009(13)
O1 0.0275(14) 0.0375(16) 0.0275(14) -0.0018(12) 0.0035(11) 0.0045(12)
O3 0.0310(15) 0.0549(19) 0.0231(14) -0.0142(13) 0.0000(12) 0.0110(13)
O5 0.0231(13) 0.0384(15) 0.0278(14) -0.0169(12) 0.0036(11) 0.0017(11)
O2 0.0435(19) 0.0453(18) 0.0343(17) 0.0024(14) 0.0163(14) 0.0106(15)
O4 0.050(2) 0.067(2) 0.0243(16) -0.0107(15) 0.0069(14) 0.0201(18)
O6 0.0177(12) 0.0342(14) 0.0259(14) -0.0090(11) 0.0053(10) 0.0017(10)
O1W 0.0370(16) 0.0329(15) 0.0293(15) -0.0046(12) 0.0054(12) -0.0021(12)
O2W 0.0508(19) 0.0376(16) 0.0312(16) -0.0070(13) -0.0008(14) -0.0120(14)
C1 0.029(2) 0.030(2) 0.028(2) -0.0056(16) 0.0008(16) -0.0010(16)
C2 0.0251(19) 0.035(2) 0.026(2) -0.0087(16) 0.0005(15) -0.0006(16)
C3 0.031(2) 0.037(2) 0.027(2) -0.0024(17) 0.0034(16) 0.0017(17)
C4 0.029(2) 0.037(2) 0.0223(19) -0.0089(16) 0.0042(16) -0.0008(16)
C5 0.0265(19) 0.0315(19) 0.0206(18) -0.0070(15) 0.0017(15) -0.0041(15)
C6 0.029(2) 0.039(2) 0.0193(18) -0.0067(16) 0.0031(15) 0.0027(17)
C7 0.0188(17) 0.0289(18) 0.0174(17) -0.0037(14) -0.0002(13) 0.0048(14)
C8 0.0174(17) 0.0335(19) 0.0170(17) -0.0057(14) 0.0019(13) 0.0048(14)
O3W 0.102(4) 0.087(4) 0.093(4) -0.042(3) -0.049(3) 0.033(3)
O5W 0.183(18) 0.112(13) 0.21(2) 0.014(13) 0.075(15) -0.039(12)
O6W 0.20(2) 0.27(3) 0.45(5) -0.29(4) 0.06(3) -0.06(2)
C9 0.0182(17) 0.037(2) 0.0242(19) -0.0098(16) 0.0023(14) -0.0010(15)
loop_
_atom_type_symbol
_atom_type_description
_atom_type_scat_dispersion_real
_atom_type_scat_dispersion_imag
_atom_type_scat_source
C C 0.0181 0.0091 'International Tables Vol C Tables 4.2.6.8 and 6.1.1.4'
H H 0.0000 0.0000 'International Tables Vol C Tables 4.2.6.8 and 6.1.1.4'
N N 0.0311 0.0180 'International Tables Vol C Tables 4.2.6.8 and 6.1.1.4'
Eu Eu -8.9294 11.1857 'International Tables Vol C Tables 4.2.6.8 and 6.1.1.4'
O O 0.0492 0.0322 'International Tables Vol C Tables 4.2.6.8 and 6.1.1.4'
loop_
_geom_angle_atom_site_label_1
_geom_angle_atom_site_label_2
_geom_angle_atom_site_label_3
_geom_angle
_geom_angle_site_symmetry_1
_geom_angle_site_symmetry_3
O3 Eu1 O2W 72.89(12) . .
O3 Eu1 O6 138.65(10) . 1_655
O2W Eu1 O6 100.13(11) . 1_655
O3 Eu1 O1 142.62(11) . .
O2W Eu1 O1 75.77(11) . .
O6 Eu1 O1 66.74(10) 1_655 .
O3 Eu1 O5 67.48(10) . .
O2W Eu1 O5 125.83(11) . .
O6 Eu1 O5 133.99(9) 1_655 .
O1 Eu1 O5 118.52(10) . .
O3 Eu1 O1W 88.95(11) . .
O2W Eu1 O1W 142.52(10) . .
O6 Eu1 O1W 72.04(10) 1_655 .
O1 Eu1 O1W 128.43(11) . .
O5 Eu1 O1W 72.09(10) . .
O3 Eu1 N3 129.70(10) . .
O2W Eu1 N3 145.39(10) . .
O6 Eu1 N3 78.89(10) 1_655 .
O1 Eu1 N3 72.14(10) . .
O5 Eu1 N3 62.61(9) . .
O1W Eu1 N3 70.66(10) . .
O3 Eu1 N1 90.58(11) . .
O2W Eu1 N1 75.17(11) . .
O6 Eu1 N1 127.88(10) 1_655 .
O1 Eu1 N1 61.78(10) . .
O5 Eu1 N1 69.96(10) . .
O1W Eu1 N1 138.99(10) . .
N3 Eu1 N1 78.49(11) . .
O3 Eu1 N2 62.69(10) . .
O2W Eu1 N2 72.59(10) . .
O6 Eu1 N2 76.22(10) 1_655 .
O1 Eu1 N2 125.20(10) . .
O5 Eu1 N2 116.28(10) . .
O1W Eu1 N2 69.95(10) . .
N3 Eu1 N2 138.18(10) . .
N1 Eu1 N2 142.86(11) . .
C3 N1 C2 116.5(4) . .
C3 N1 Eu1 126.2(3) . .
C2 N1 Eu1 117.2(3) . .
C6 N2 C5 116.8(3) . .
C6 N2 Eu1 127.6(3) . .
C5 N2 Eu1 115.4(3) . .
C9 N3 C8 117.2(3) . .
C9 N3 Eu1 126.2(2) . .
C8 N3 Eu1 115.1(2) . .
C1 O1 Eu1 129.9(3) . .
C4 O3 Eu1 129.6(3) . .
C7 O5 Eu1 125.3(2) . .
C7 O6 Eu1 124.6(2) . 1_455
O2 C1 O1 126.0(4) . .
O2 C1 C2 118.9(4) . .
O1 C1 C2 115.1(4) . .
N1 C2 C3 121.7(4) . 2_576
N1 C2 C1 115.7(4) . .
C3 C2 C1 122.6(4) 2_576 .
N1 C3 C2 121.8(4) . 2_576
O4 C4 O3 125.3(4) . .
O4 C4 C5 119.0(4) . .
O3 C4 C5 115.7(4) . .
N2 C5 C6 121.7(4) . 2_667
N2 C5 C4 116.3(3) . .
C6 C5 C4 122.0(4) 2_667 .
N2 C6 C5 121.5(4) . 2_667
O5 C7 O6 126.5(4) . .
O5 C7 C8 115.6(3) . .
O6 C7 C8 117.9(3) . .
N3 C8 C9 121.8(4) . 2_566
N3 C8 C7 115.7(3) . .
C9 C8 C7 122.4(3) 2_566 .
N3 C9 C8 121.0(4) . 2_566
loop_
_geom_bond_atom_site_label_1
_geom_bond_atom_site_label_2
_geom_bond_distance
_geom_bond_site_symmetry_2
Eu1 O3 2.387(3) .
Eu1 O2W 2.401(3) .
Eu1 O6 2.414(3) 1_655
Eu1 O1 2.423(3) .
Eu1 O5 2.429(3) .
Eu1 O1W 2.457(3) .
Eu1 N3 2.634(3) .
Eu1 N1 2.668(3) .
Eu1 N2 2.683(3) .
N1 C3 1.332(6) .
N1 C2 1.335(5) .
N2 C6 1.328(6) .
N2 C5 1.332(5) .
N3 C9 1.334(5) .
N3 C8 1.337(5) .
O1 C1 1.253(5) .
O3 C4 1.256(5) .
O5 C7 1.247(5) .
O2 C1 1.238(5) .
O4 C4 1.230(5) .
O6 C7 1.256(5) .
O6 Eu1 2.414(3) 1_455
C1 C2 1.511(6) .
C2 C3 1.393(6) 2_576
C3 C2 1.393(6) 2_576
C4 C5 1.512(6) .
C5 C6 1.389(5) 2_667
C6 C5 1.389(5) 2_667
C7 C8 1.515(5) .
C8 C9 1.388(6) 2_566
C9 C8 1.388(6) 2_566
