#------------------------------------------------------------------------------
#$Date: 2017-03-04 04:00:45 +0200 (Sat, 04 Mar 2017) $
#$Revision: 192964 $
#$URL: file:///home/coder/svn-repositories/cod/cif/4/34/54/4345406.cif $
#------------------------------------------------------------------------------
#
# This file is available in the Crystallography Open Database (COD),
# http://www.crystallography.net/
#
# All data on this site have been placed in the public domain by the
# contributors.
#
data_4345406
loop_
_publ_author_name
'Hlukhyy, Viktor'
'Trots, Dmytro'
'F\"assler, Thomas F'
_publ_section_title
;
 First-Order Phase Transition in BaNi2Ge2 and the Influence of the Valence
 Electron Count on Distortion of the ThCr2Si2 Structure Type.
;
_journal_issue                   3
_journal_name_full               'Inorganic chemistry'
_journal_page_first              1173
_journal_page_last               1185
_journal_paper_doi               10.1021/acs.inorgchem.6b02190
_journal_volume                  56
_journal_year                    2017
_chemical_formula_moiety         'Ba, Ge2, Ni2'
_chemical_formula_sum            'Ba Ge2 Ni2'
_chemical_formula_weight         399.925
_space_group_IT_number           139
_symmetry_cell_setting           tetragonal
_symmetry_space_group_name_Hall  '-I 4 2'
_symmetry_space_group_name_H-M   'I 4/m m m'
_cell_angle_alpha                90.00000
_cell_angle_beta                 90.00000
_cell_angle_gamma                90.00000
_cell_formula_units_Z            2
_cell_length_a                   4.26654(8)
_cell_length_b                   4.26654(8)
_cell_length_c                   11.2544(2)
_cell_measurement_temperature    783
_cell_volume                     204.868(7)
_computing_structure_refinement  FULLPROF
_diffrn_ambient_temperature      783(2)
_diffrn_detector_type            'image plate OBI-detector'
_diffrn_measurement_device_type
'diffractometer B2 (HASYLAB, Hamburg,Germany)'
_diffrn_radiation_type           synchrotron
_diffrn_radiation_wavelength     0.499966
_diffrn_source                   x-ray
_exptl_crystal_density_diffrn    6.4832
_exptl_crystal_density_method    'not measured'
_pd_char_colour                  'metallic silver'
_pd_proc_2theta_range_inc        0.004000
_pd_proc_2theta_range_max        50.0096
_pd_proc_2theta_range_min        3.0096
_pd_proc_ls_profile_function     Pseudo-Voigt
_pd_proc_ls_prof_R_factor        5.0128
_pd_proc_ls_prof_wR_expected     1.7912
_pd_proc_ls_prof_wR_factor       6.3146
_pd_proc_number_of_points        7999
_pd_proc_wavelength              0.499966
_pd_spec_mounting                quarz
_pd_spec_mount_mode              transmission
_refine_ls_goodness_of_fit_all   12.43
_refine_ls_number_parameters     80
_refine_ls_number_reflns         192
_refine_ls_number_restraints     0
_refine_ls_R_I_factor            5.8855
_refine_ls_shift/su_max          0
_cod_data_source_file            ic6b02190_si_002.cif
_cod_data_source_block           HT-BaNi2Ge2
_cod_database_code               4345406
_publcif_datablock.id            {3800f4a9-f52d-4ff3-9cf0-74e0a0e7d4e1}
_pd_proc_ls_prof_cr_factor       19.4845
_pd_proc_ls_prof_cwr_factor      15.6952
_pd_proc_ls_prof_cwr_expected    4.4522
_pd_proc_ls_prof_chi2            12.4277
_pd_proc_ls_prof_echi2           12.5024
_publcif_info_exptl_table_max_cols 4
_publcif_info_exptl_table_use_headnotes n
loop_
_symmetry_equiv_pos_as_xyz
x,y,z
-y,x,z
-x,-y,z
y,-x,z
-x,y,z
y,x,z
x,-y,z
-y,-x,z
-x,-y,-z
y,-x,-z
x,y,-z
-y,x,-z
x,-y,-z
-y,-x,-z
-x,y,-z
y,x,-z
x+1/2,y+1/2,z+1/2
-y+1/2,x+1/2,z+1/2
-x+1/2,-y+1/2,z+1/2
y+1/2,-x+1/2,z+1/2
-x+1/2,y+1/2,z+1/2
y+1/2,x+1/2,z+1/2
x+1/2,-y+1/2,z+1/2
-y+1/2,-x+1/2,z+1/2
-x+1/2,-y+1/2,-z+1/2
y+1/2,-x+1/2,-z+1/2
x+1/2,y+1/2,-z+1/2
-y+1/2,x+1/2,-z+1/2
x+1/2,-y+1/2,-z+1/2
-y+1/2,-x+1/2,-z+1/2
-x+1/2,y+1/2,-z+1/2
y+1/2,x+1/2,-z+1/2
loop_
_atom_site_label
_atom_site_fract_x
_atom_site_fract_y
_atom_site_fract_z
_atom_site_U_iso_or_equiv
_atom_site_occupancy
_atom_site_adp_type
_atom_site_type_symbol
Ba 0.00000 0.00000 0.00000 0.0207(7) 1.00000 Uani BA
Ni 0.00000 0.50000 0.25000 0.0427(12) 1.00000 Uani Ni
Ge 0.00000 0.00000 0.33842(17) 0.0468(11) 1.00000 Uani Ge
loop_
_atom_site_aniso_label
_atom_site_aniso_U_11
_atom_site_aniso_U_22
_atom_site_aniso_U_33
_atom_site_aniso_U_12
_atom_site_aniso_U_13
_atom_site_aniso_U_23
_atom_site_aniso_type_symbol
Ba 0.0233(6) 0.0233(6) 0.0154(10) 0.00000 0.00000 0.00000 BA
Ni 0.0504(9) 0.0504(9) 0.0271(17) 0.00000 0.00000 0.00000 Ni
Ge 0.0330(7) 0.0330(7) 0.0744(18) 0.00000 0.00000 0.00000 Ge
loop_
_atom_type_symbol
_atom_type_scat_Cromer_Mann_a1
_atom_type_scat_Cromer_Mann_b1
_atom_type_scat_Cromer_Mann_a2
_atom_type_scat_Cromer_Mann_b2
_atom_type_scat_Cromer_Mann_a3
_atom_type_scat_Cromer_Mann_b3
_atom_type_scat_Cromer_Mann_a4
_atom_type_scat_Cromer_Mann_b4
_atom_type_scat_Cromer_Mann_c
_atom_type_scat_dispersion_real
_atom_type_scat_dispersion_imag
_atom_type_scat_source
Ba 20.33610 3.21600 19.29700 0.27560 10.88800 20.20730 2.69590 167.20200
2.77310 -0.98300 1.50000
International_Tables_for_Crystallography_Vol.C(1991)_Tables_6.1.1.4_and_6.1.1.5
Ni 12.83760 3.87850 7.29200 0.25650 4.44380 12.17630 2.38000 66.34210 1.03410
0.26100 0.72400
International_Tables_for_Crystallography_Vol.C(1991)_Tables_6.1.1.4_and_6.1.1.5
Ge 16.08160 2.85090 6.37470 0.25160 3.70680 11.44680 3.68300 54.76250 2.13130
0.22800 1.19000
International_Tables_for_Crystallography_Vol.C(1991)_Tables_6.1.1.4_and_6.1.1.5
loop_
_pd_proc_point_id
_pd_proc_2theta_corrected
_pd_proc_intensity_total
_pd_calc_intensity_total
_pd_proc_intensity_bkg_calc
2 3.0136 860(29) 813.3347 813.3347
3 3.0176 846(29) 813.3347 813.3347
4 3.0216 836(29) 813.3347 813.3347
5 3.0256 872(30) 813.3347 813.3347
6 3.0296 911(30) 813.3347 813.3347
7 3.0336 922(30) 813.3347 813.3347
8 3.0376 877(30) 813.3347 813.3347
9 3.0416 826(29) 813.3347 813.3347
10 3.0456 782(28) 813.3347 813.3347
11 3.0496 846(29) 813.3347 813.3347
12 3.0536 810(28) 813.3347 813.3347
13 3.0576 794(28) 813.3347 813.3347
14 3.0616 863(29) 813.3347 813.3347
15 3.0656 947(31) 813.3347 813.3347
16 3.0696 974(31) 813.3347 813.3347
17 3.0736 903(30) 813.3347 813.3347
18 3.0776 810(28) 813.3347 813.3347
19 3.0816 820(29) 813.3347 813.3347
20 3.0856 862(29) 813.3347 813.3347
21 3.0896 847(29) 813.3347 813.3347
22 3.0936 818(29) 813.3347 813.3347
23 3.0976 752(27) 813.3347 813.3347
24 3.1016 741(27) 813.3347 813.3347
25 3.1056 746(27) 813.3347 813.3347
26 3.1096 781(28) 813.3347 813.3347
27 3.1136 930(30) 813.3347 813.3347
28 3.1176 996(32) 813.3347 813.3347
29 3.1216 930(30) 813.3347 813.3347
30 3.1256 902(30) 813.3347 813.3347
31 3.1296 855(29) 813.3347 813.3347
32 3.1336 926(30) 813.3347 813.3347
33 3.1376 835(29) 813.3347 813.3347
34 3.1416 876(30) 813.3347 813.3347
35 3.1456 937(31) 813.3347 813.3347
36 3.1496 810(28) 813.3347 813.3347
37 3.1536 797(28) 813.3347 813.3347
38 3.1576 722(27) 813.3347 813.3347
39 3.1616 703(27) 813.3347 813.3347
40 3.1656 760(28) 813.3347 813.3347
41 3.1696 831(29) 813.3347 813.3347
42 3.1736 874(30) 813.3347 813.3347
43 3.1776 908(30) 813.3347 813.3347
44 3.1816 900(30) 813.3347 813.3347
45 3.1856 870(29) 815.2589 815.2589
46 3.1896 844(29) 817.1830 817.1830
47 3.1936 905(30) 819.1071 819.1071
48 3.1976 892(30) 821.0311 821.0311
49 3.2016 1013(32) 822.9553 822.9553
50 3.2056 957(31) 824.8795 824.8795
51 3.2096 921(30) 826.8035 826.8035
52 3.2136 942(31) 828.7277 828.7277
53 3.2176 887(30) 830.6517 830.6517
54 3.2216 875(30) 832.5758 832.5758
55 3.2256 875(30) 834.5001 834.5001
56 3.2296 846(29) 836.4241 836.4241
57 3.2336 839(29) 838.3482 838.3482
58 3.2376 898(30) 840.2723 840.2723
59 3.2416 922(30) 842.1965 842.1965
60 3.2456 942(31) 844.1206 844.1206
61 3.2496 906(30) 846.0447 846.0447
62 3.2536 839(29) 847.9688 847.9688
63 3.2576 853(29) 849.8929 849.8929
64 3.2616 792(28) 851.8171 851.8171
65 3.2656 925(30) 853.7412 853.7412
66 3.2696 808(28) 855.6653 855.6653
67 3.2736 842(29) 857.5894 857.5894
68 3.2776 847(29) 859.5136 859.5136
69 3.2816 846(29) 861.4377 861.4377
70 3.2856 992(31) 863.3618 863.3618
71 3.2896 911(30) 865.2859 865.2859
72 3.2936 830(29) 867.2100 867.2100
73 3.2976 864(29) 869.1342 869.1342
74 3.3016 907(30) 871.0583 871.0583
75 3.3056 766(28) 872.9824 872.9824
76 3.3096 797(28) 874.9065 874.9065
77 3.3136 846(29) 876.8306 876.8306
78 3.3176 841(29) 878.7548 878.7548
79 3.3216 924(30) 880.6789 880.6789
80 3.3256 980(31) 882.6030 882.6030
81 3.3296 1013(32) 884.5271 884.5271
82 3.3336 948(31) 886.4512 886.4512
83 3.3376 940(31) 888.3754 888.3754
84 3.3416 903(30) 890.2995 890.2995
85 3.3456 875(30) 892.2236 892.2236
86 3.3496 841(29) 894.1477 894.1477
87 3.3536 926(30) 896.0719 896.0719
88 3.3576 937(31) 897.9960 897.9960
89 3.3616 844(29) 899.9200 899.9200
90 3.3656 797(28) 901.8442 901.8442
91 3.3696 794(28) 903.7684 903.7684
92 3.3736 769(28) 905.6924 905.6924
93 3.3776 811(28) 907.6166 907.6166
94 3.3816 882(30) 909.5406 909.5406
95 3.3856 889(30) 911.4407 911.4647
96 3.3896 1010(32) 913.3647 913.3890
97 3.3936 933(31) 915.2884 915.3130
98 3.3976 843(29) 917.2122 917.2372
99 3.4016 892(30) 919.1359 919.1613
100 3.4056 1004(32) 921.0596 921.0853
101 3.4096 1074(33) 922.9834 923.0095
102 3.4136 1011(32) 924.9072 924.9337
103 3.4176 975(31) 926.8309 926.8577
104 3.4216 859(29) 928.7546 928.7819
105 3.4256 1001(32) 930.6783 930.7059
106 3.4296 987(31) 932.6021 932.6301
107 3.4336 994(32) 934.5258 934.5543
108 3.4376 1093(33) 936.4494 936.4783
109 3.4416 932(31) 938.3730 938.4024
110 3.4456 908(30) 940.2968 940.3267
111 3.4496 859(29) 942.2204 942.2507
112 3.4536 829(29) 944.1440 944.1748
113 3.4576 717(27) 946.0676 946.0989
114 3.4616 792(28) 947.9913 948.0231
115 3.4656 761(28) 949.9149 949.9472
116 3.4696 848(29) 951.8385 951.8713
117 3.4736 832(29) 953.7621 953.7954
118 3.4776 758(28) 955.6856 955.7195
119 3.4816 722(27) 957.6093 957.6437
120 3.4856 761(28) 959.5328 959.5678
121 3.4896 782(28) 961.4563 961.4919
122 3.4936 827(29) 963.3798 963.4160
123 3.4976 747(27) 965.3032 965.3401
124 3.5016 820(29) 967.2268 967.2643
125 3.5056 814(29) 969.1503 969.1884
126 3.5096 842(29) 971.0737 971.1125
127 3.5136 920(30) 972.9971 973.0366
128 3.5176 856(29) 974.9205 974.9607
129 3.5216 900(30) 976.8439 976.8849
130 3.5256 813(29) 978.7673 978.8090
131 3.5296 815(29) 980.6906 980.7331
132 3.5336 965(31) 982.6140 982.6573
133 3.5376 1016(32) 984.5372 984.5813
134 3.5416 859(29) 986.4606 986.5055
135 3.5456 822(29) 988.3838 988.4296
136 3.5496 762(28) 990.3071 990.3537
137 3.5536 858(29) 992.2303 992.2779
138 3.5576 768(28) 994.1534 994.2020
139 3.5616 677(26) 996.0767 996.1261
140 3.5656 781(28) 997.9997 998.0502
141 3.5696 762(28) 999.9227 999.9742
142 3.5736 761(28) 1001.8459 1001.8984
143 3.5776 822(29) 1003.7689 1003.8226
144 3.5816 835(29) 1005.6919 1005.7466
145 3.5856 868(29) 1007.6149 1007.6708
146 3.5896 923(30) 1009.5377 1009.5948
147 3.5936 887(30) 1011.4607 1011.5190
148 3.5976 868(29) 1013.3835 1013.4432
149 3.6016 857(29) 1015.3063 1015.3672
150 3.6056 921(30) 1017.2291 1017.2914
151 3.6096 927(30) 1019.1518 1019.2155
152 3.6136 966(31) 1021.0745 1021.1396
153 3.6176 1022(32) 1022.9971 1023.0637
154 3.6216 993(32) 1024.9196 1024.9878
155 3.6256 968(31) 1026.8423 1026.9121
156 3.6296 1129(34) 1028.7646 1028.8361
157 3.6336 940(31) 1030.6870 1030.7603
158 3.6376 818(29) 1032.6094 1032.6843
159 3.6416 842(29) 1034.5316 1034.6084
160 3.6456 815(29) 1036.4539 1036.5326
161 3.6496 769(28) 1038.3760 1038.4568
162 3.6536 918(30) 1040.2980 1040.3809
163 3.6576 962(31) 1042.2200 1042.3049
164 3.6616 1013(32) 1044.1417 1044.2290
165 3.6656 1014(32) 1046.0636 1046.1532
166 3.6696 959(31) 1047.9854 1048.0774
167 3.6736 1028(32) 1049.9070 1050.0015
168 3.6776 1072(33) 1051.8284 1051.9255
169 3.6816 1160(34) 1053.7498 1053.8496
170 3.6856 1061(33) 1055.6710 1055.7738
171 3.6896 1014(32) 1057.5922 1057.6979
172 3.6936 988(31) 1059.5132 1059.6221
173 3.6976 969(31) 1061.4340 1061.5461
174 3.7016 1102(33) 1063.3546 1063.4702
175 3.7056 1008(32) 1065.2751 1065.3944
176 3.7096 1061(33) 1067.1954 1067.3185
177 3.7136 1142(34) 1069.2291 1069.3562
178 3.7176 1106(33) 1071.6038 1071.7350
179 3.7216 1127(34) 1073.9779 1074.1136
180 3.7256 1113(33) 1076.3521 1076.4924
181 3.7296 1203(35) 1078.7258 1078.8712
182 3.7336 1182(34) 1081.0991 1081.2499
183 3.7376 1189(34) 1083.4724 1083.6288
184 3.7416 1256(35) 1085.8451 1086.0074
185 3.7456 1198(35) 1088.2173 1088.3861
186 3.7496 1233(35) 1090.5892 1090.7649
187 3.7536 1272(36) 1092.9606 1093.1436
188 3.7576 1202(35) 1095.3315 1095.5225
189 3.7616 1112(33) 1097.7018 1097.9011
190 3.7656 1290(36) 1100.0713 1100.2798
191 3.7696 1212(35) 1102.4403 1102.6586
192 3.7736 1248(35) 1104.8086 1105.0372
193 3.7776 1221(35) 1107.1761 1107.4160
194 3.7816 1223(35) 1109.5430 1109.7948
195 3.7856 1279(36) 1111.9089 1112.1735
196 3.7896 1367(37) 1114.2742 1114.5522
197 3.7936 1304(36) 1116.6385 1116.9309
198 3.7976 1277(36) 1119.0024 1119.3097
199 3.8016 1289(36) 1121.3657 1121.6885
200 3.8056 1295(36) 1123.7285 1124.0671
201 3.8096 1224(35) 1126.0911 1126.4458
202 3.8136 1296(36) 1128.4540 1128.8246
203 3.8176 1275(36) 1130.8175 1131.2034
204 3.8216 1239(35) 1133.1821 1133.5822
205 3.8256 1326(36) 1135.5485 1135.9608
206 3.8296 1293(36) 1137.9176 1138.3396
207 3.8336 1254(35) 1140.2905 1140.7184
208 3.8376 1324(36) 1142.6682 1143.0970
209 3.8416 1303(36) 1145.0524 1145.4758
210 3.8456 1261(36) 1147.4440 1147.8545
211 3.8496 1406(37) 1149.8446 1150.2333
212 3.8536 1343(37) 1152.2551 1152.6121
213 3.8576 1446(38) 1154.6755 1154.9907
214 3.8616 1423(38) 1157.1056 1157.3694
215 3.8656 1450(38) 1159.5433 1159.7482
216 3.8696 1286(36) 1161.9851 1162.1270
217 3.8736 1257(35) 1164.4250 1164.5057
218 3.8776 1295(36) 1166.8555 1166.8844
219 3.8816 1194(35) 1169.2666 1169.2631
220 3.8856 1197(35) 1171.6477 1171.6418
221 3.8896 1156(34) 1174.0206 1174.0206
222 3.8936 1166(34) 1176.3995 1176.3994
223 3.8976 1249(35) 1178.7782 1178.7781
224 3.9016 1354(37) 1181.1569 1181.1567
225 3.9056 1318(36) 1183.5358 1183.5355
226 3.9096 1341(37) 1185.9146 1185.9143
227 3.9136 1292(36) 1188.2933 1188.2930
228 3.9176 1337(37) 1190.6721 1190.6718
229 3.9216 1273(36) 1193.0510 1193.0505
230 3.9256 1341(37) 1195.4298 1195.4293
231 3.9296 1390(37) 1197.8086 1197.8080
232 3.9336 1362(37) 1200.1873 1200.1866
233 3.9376 1484(39) 1202.6356 1202.5654
234 3.9416 1578(40) 1206.0597 1204.9442
235 3.9456 1394(37) 1209.7284 1207.3230
236 3.9496 1401(37) 1213.5973 1209.7017
237 3.9536 1386(37) 1217.6061 1212.0803
238 3.9576 1395(37) 1221.6841 1214.4591
239 3.9616 1436(38) 1225.7545 1216.8379
240 3.9656 1352(37) 1229.7358 1219.2166
241 3.9696 1336(37) 1233.5448 1221.5953
242 3.9736 1352(37) 1237.0984 1223.9740
243 3.9776 1380(37) 1240.3220 1226.3528
244 3.9816 1237(35) 1243.1580 1228.7316
245 3.9856 1323(36) 1245.5754 1231.1102
246 3.9896 1270(36) 1247.5760 1233.4890
247 3.9936 1281(36) 1249.1941 1235.8677
248 3.9976 1283(36) 1250.4921 1238.2463
249 4.0016 1267(36) 1251.5522 1240.6252
250 4.0056 1203(35) 1252.4657 1243.0039
251 4.0096 1164(34) 1253.3235 1245.3827
252 4.0136 1205(35) 1254.2069 1247.7615
253 4.0176 1245(35) 1255.1824 1250.1400
254 4.0216 1139(34) 1256.2982 1252.5189
255 4.0256 1156(34) 1257.5834 1254.8975
256 4.0296 1170(34) 1259.0504 1257.2764
257 4.0336 1134(34) 1260.6969 1259.6552
258 4.0376 1188(34) 1262.5099 1262.0337
259 4.0416 1168(34) 1264.4701 1264.4126
260 4.0456 1177(34) 1266.5540 1266.7914
261 4.0496 1235(35) 1268.7375 1269.1699
262 4.0536 1183(34) 1270.9988 1271.5488
263 4.0576 1116(33) 1273.3173 1273.9276
264 4.0616 1233(35) 1275.6761 1276.3063
265 4.0656 1307(36) 1278.0619 1278.6848
266 4.0696 1203(35) 1280.4648 1281.0636
267 4.0736 1224(35) 1282.8771 1283.4425
268 4.0776 1405(37) 1285.2928 1285.8210
269 4.0816 1373(37) 1287.7096 1288.2000
270 4.0856 1263(36) 1290.1245 1290.5787
271 4.0896 1392(37) 1292.5364 1292.9573
272 4.0936 1456(38) 1294.9453 1295.3362
273 4.0976 1376(37) 1297.3506 1297.7150
274 4.1016 1421(38) 1299.7524 1300.0935
275 4.1056 1306(36) 1302.1516 1302.4724
276 4.1096 1437(38) 1304.5477 1304.8510
277 4.1136 1542(39) 1306.9420 1307.2297
278 4.1176 1491(39) 1309.3342 1309.6084
279 4.1216 1363(37) 1311.7250 1311.9872
280 4.1256 1389(37) 1314.1145 1314.3661
281 4.1296 1591(40) 1316.5028 1316.7446
282 4.1336 1384(37) 1318.8905 1319.1235
283 4.1376 1324(36) 1321.2775 1321.5023
284 4.1416 1252(35) 1323.6637 1323.8809
285 4.1456 1412(38) 1326.0498 1326.2598
286 4.1496 1532(39) 1328.4354 1328.6385
287 4.1536 1546(39) 1330.8206 1331.0171
288 4.1576 1466(38) 1333.2056 1333.3958
289 4.1616 1567(40) 1335.5903 1335.7745
290 4.1656 1517(39) 1337.9750 1338.1533
291 4.1696 1532(39) 1340.3593 1340.5320
292 4.1736 1583(40) 1342.7435 1342.9108
293 4.1776 1476(38) 1345.1277 1345.2897
294 4.1816 1516(39) 1347.5114 1347.6682
295 4.1856 1463(38) 1349.8951 1350.0471
296 4.1896 1500(39) 1352.2787 1352.4259
297 4.1936 1437(38) 1354.6617 1354.8044
298 4.1976 1347(37) 1357.0450 1357.1833
299 4.2016 1221(35) 1359.4279 1359.5619
300 4.2056 1344(37) 1361.8107 1361.9407
301 4.2096 1384(37) 1364.1932 1364.3193
302 4.2136 1482(38) 1366.5758 1366.6981
303 4.2176 1485(39) 1368.9583 1369.0769
304 4.2216 1401(37) 1371.3403 1371.4556
305 4.2256 1490(39) 1373.7225 1373.8344
306 4.2296 1443(38) 1376.1046 1376.2133
307 4.2336 1452(38) 1378.4862 1378.5918
308 4.2376 1518(39) 1380.8680 1380.9707
309 4.2416 1482(38) 1383.2496 1383.3495
310 4.2456 1472(38) 1385.6310 1385.7280
311 4.2496 1522(39) 1388.0121 1388.1066
312 4.2536 1512(39) 1390.3936 1390.4855
313 4.2576 1382(37) 1392.6354 1392.8643
314 4.2616 1377(37) 1395.0143 1395.2429
315 4.2656 1547(39) 1397.3933 1397.6217
316 4.2696 1505(39) 1399.7722 1400.0005
317 4.2736 1599(40) 1402.1509 1402.3792
318 4.2776 1578(40) 1404.5295 1404.7579
319 4.2816 1487(39) 1406.9081 1407.1368
320 4.2856 1554(39) 1409.2863 1409.5154
321 4.2896 1504(39) 1411.6647 1411.8943
322 4.2936 1487(39) 1414.0426 1414.2728
323 4.2976 1331(36) 1416.4207 1416.6516
324 4.3016 1471(38) 1418.7983 1419.0302
325 4.3056 1483(39) 1421.1764 1421.4091
326 4.3096 1497(39) 1423.5487 1423.7878
327 4.3136 1343(37) 1425.9260 1426.1665
328 4.3176 1437(38) 1428.3035 1428.5453
329 4.3216 1612(40) 1430.6808 1430.9241
330 4.3256 1502(39) 1433.0579 1433.3027
331 4.3296 1592(40) 1435.4349 1435.6815
332 4.3336 1589(40) 1437.8121 1438.0604
333 4.3376 1508(39) 1440.1887 1440.4390
334 4.3416 1538(39) 1442.5652 1442.8175
335 4.3456 1478(38) 1444.9420 1445.1964
336 4.3496 1489(39) 1447.3185 1447.5752
337 4.3536 1411(38) 1449.6947 1449.9537
338 4.3576 1398(37) 1452.0712 1452.3326
339 4.3616 1507(39) 1454.4473 1454.7114
340 4.3656 1475(38) 1456.8232 1457.0901
341 4.3696 1609(40) 1459.1991 1459.4689
342 4.3736 1601(40) 1461.5750 1461.8477
343 4.3776 1522(39) 1463.9506 1464.2263
344 4.3816 1506(39) 1466.3260 1466.6051
345 4.3856 1399(37) 1468.7012 1468.9836
346 4.3896 1433(38) 1471.0767 1471.3625
347 4.3936 1607(40) 1473.4515 1473.7411
348 4.3976 1588(40) 1475.8265 1476.1200
349 4.4016 1578(40) 1478.2014 1478.4988
350 4.4056 1416(38) 1480.5759 1480.8773
351 4.4096 1389(37) 1482.9506 1483.2562
352 4.4136 1449(38) 1485.3248 1485.6350
353 4.4176 1439(38) 1487.6990 1488.0137
354 4.4216 1442(38) 1490.0730 1490.3925
355 4.4256 1412(38) 1492.4467 1492.7710
356 4.4296 1409(38) 1494.8204 1495.1499
357 4.4336 1533(39) 1497.1936 1497.5284
358 4.4376 1402(37) 1499.5669 1499.9072
359 4.4416 1415(38) 1501.9402 1502.2861
360 4.4456 1323(36) 1504.3127 1504.6647
361 4.4496 1467(38) 1506.6855 1507.0436
362 4.4536 1473(38) 1509.0580 1509.4224
363 4.4576 1494(39) 1511.4299 1511.8009
364 4.4616 1505(39) 1513.8020 1514.1798
365 4.4656 1636(40) 1516.1737 1516.5586
366 4.4696 1603(40) 1518.5450 1518.9373
367 4.4736 1647(41) 1519.3914 1519.7911
368 4.4776 1573(40) 1518.7128 1519.1205
369 4.4816 1552(39) 1518.0339 1518.4498
370 4.4856 1384(37) 1517.3547 1517.7792
371 4.4896 1397(37) 1516.6753 1517.1085
372 4.4936 1604(40) 1515.9955 1516.4379
373 4.4976 1502(39) 1515.3153 1515.7672
374 4.5016 1497(39) 1514.6348 1515.0966
375 4.5056 1438(38) 1513.9539 1514.4259
376 4.5096 1471(38) 1513.2727 1513.7554
377 4.5136 1446(38) 1512.5908 1513.0846
378 4.5176 1404(37) 1511.9087 1512.4141
379 4.5216 1429(38) 1511.2261 1511.7434
380 4.5256 1369(37) 1510.5428 1511.0728
381 4.5296 1341(37) 1509.8593 1510.4021
382 4.5336 1429(38) 1509.1749 1509.7314
383 4.5376 1363(37) 1508.4901 1509.0608
384 4.5416 1346(37) 1507.8284 1508.3901
385 4.5456 1337(37) 1507.1421 1507.7195
386 4.5496 1383(37) 1506.4550 1507.0488
387 4.5536 1366(37) 1505.7672 1506.3782
388 4.5576 1438(38) 1505.0786 1505.7075
389 4.5616 1421(38) 1504.3893 1505.0369
390 4.5656 1422(38) 1503.6991 1504.3662
391 4.5696 1385(37) 1503.0079 1503.6957
392 4.5736 1424(38) 1502.3157 1503.0249
393 4.5776 1539(39) 1501.6226 1502.3544
394 4.5816 1539(39) 1500.9281 1501.6837
395 4.5856 1382(37) 1500.2323 1501.0131
396 4.5896 1569(40) 1499.5353 1500.3424
397 4.5936 1482(38) 1498.8367 1499.6718
398 4.5976 1470(38) 1498.1364 1499.0011
399 4.6016 1572(40) 1497.4343 1498.3304
400 4.6056 1455(38) 1496.7303 1497.6598
401 4.6096 1311(36) 1496.0242 1496.9891
402 4.6136 1358(37) 1495.3158 1496.3185
403 4.6176 1525(39) 1494.6049 1495.6479
404 4.6216 1373(37) 1493.8910 1494.9772
405 4.6256 1414(38) 1493.1741 1494.3065
406 4.6296 1286(36) 1492.4541 1493.6360
407 4.6336 1424(38) 1491.7305 1492.9653
408 4.6376 1457(38) 1491.0029 1492.2946
409 4.6416 1309(36) 1490.2716 1491.6240
410 4.6456 1254(35) 1489.5360 1490.9534
411 4.6496 1463(38) 1488.7958 1490.2826
412 4.6536 1437(38) 1488.0513 1489.6121
413 4.6576 1558(39) 1487.3022 1488.9414
414 4.6616 1454(38) 1486.5487 1488.2708
415 4.6656 1422(38) 1485.7911 1487.6001
416 4.6696 1646(41) 1485.0300 1486.9294
417 4.6736 1387(37) 1484.2661 1486.2588
418 4.6776 1305(36) 1483.5007 1485.5881
419 4.6816 1376(37) 1482.7356 1484.9176
420 4.6856 1326(36) 1481.9727 1484.2468
421 4.6896 1332(36) 1481.2152 1483.5762
422 4.6936 1364(37) 1493.2312 1482.9056
423 4.6976 1281(36) 1492.7559 1482.2349
424 4.7016 1396(37) 1492.3087 1481.5643
425 4.7056 1379(37) 1491.8966 1480.8937
426 4.7096 1222(35) 1491.5277 1480.2230
427 4.7136 1287(36) 1491.2104 1479.5524
428 4.7176 1413(38) 1490.9529 1478.8817
429 4.7216 1481(38) 1490.7620 1478.2111
430 4.7256 1379(37) 1490.6416 1477.5404
431 4.7296 1381(37) 1490.5912 1476.8698
432 4.7336 1393(37) 1490.6035 1476.1991
433 4.7376 1437(38) 1490.6631 1475.5284
434 4.7416 1372(37) 1490.7448 1474.8578
435 4.7456 1383(37) 1490.8136 1474.1873
436 4.7496 1378(37) 1490.8267 1473.5165
437 4.7536 1410(38) 1490.7372 1472.8459
438 4.7576 1606(40) 1490.5011 1472.1753
439 4.7616 1576(40) 1490.0862 1471.5046
440 4.7656 1593(40) 1489.7017 1470.8340
441 4.7696 1562(40) 1489.5044 1470.1633
442 4.7736 1387(37) 1489.3268 1469.4927
443 4.7776 1491(39) 1489.1700 1468.8220
444 4.7816 1580(40) 1489.0352 1468.1514
445 4.7856 1592(40) 1488.9230 1467.4807
446 4.7896 1504(39) 1488.8340 1466.8101
447 4.7936 1490(39) 1488.7684 1466.1395
448 4.7976 1327(36) 1490.8079 1465.4688
449 4.8016 1439(38) 1494.5967 1464.7982
450 4.8056 1411(38) 1499.6548 1464.1276
451 4.8096 1412(38) 1505.8994 1463.4568
452 4.8136 1522(39) 1513.1423 1462.7863
453 4.8176 1556(39) 1521.1139 1462.1156
454 4.8216 1487(39) 1529.5033 1461.4448
455 4.8256 1588(40) 1537.9366 1460.7743
456 4.8296 1491(39) 1546.0275 1460.1036
457 4.8336 1517(39) 1553.3690 1459.4330
458 4.8376 1477(38) 1559.5486 1458.7623
459 4.8416 1488(39) 1564.1814 1458.0917
460 4.8456 1601(40) 1566.9529 1457.4210
461 4.8496 1502(39) 1567.7316 1456.7504
462 4.8536 1512(39) 1566.5089 1456.0798
463 4.8576 1515(39) 1563.3999 1455.4091
464 4.8616 1452(38) 1558.6997 1454.7384
465 4.8656 1653(41) 1552.8119 1454.0679
466 4.8696 1513(39) 1546.1952 1453.3972
467 4.8736 1503(39) 1539.3149 1452.7264
468 4.8776 1414(38) 1532.5963 1452.0559
469 4.8816 1506(39) 1526.3879 1451.3853
470 4.8856 1517(39) 1520.9485 1450.7146
471 4.8896 1458(38) 1516.4369 1450.0439
472 4.8936 1481(38) 1512.9235 1449.3733
473 4.8976 1518(39) 1510.4023 1448.7026
474 4.9016 1703(41) 1508.8154 1448.0320
475 4.9056 1550(39) 1508.0720 1447.3613
476 4.9096 1572(40) 1508.0679 1446.6907
477 4.9136 1656(41) 1508.7007 1446.0200
478 4.9176 1598(40) 1509.8793 1445.3495
479 4.9216 1462(38) 1511.5294 1444.6787
480 4.9256 1620(40) 1513.5956 1444.0081
481 4.9296 1511(39) 1516.0393 1443.3375
482 4.9336 1494(39) 1518.8385 1442.6667
483 4.9376 1374(37) 1521.9824 1441.9962
484 4.9416 1440(38) 1525.4711 1441.3256
485 4.9456 1530(39) 1529.3091 1440.6549
486 4.9496 1690(41) 1533.5074 1439.9843
487 4.9536 1632(40) 1538.0776 1439.3136
488 4.9576 1618(40) 1543.0314 1438.6429
489 4.9616 1531(39) 1548.3807 1437.9723
490 4.9656 1612(40) 1554.1329 1437.3016
491 4.9696 1589(40) 1560.2903 1436.6310
492 4.9736 1533(39) 1566.8523 1435.9603
493 4.9776 1410(38) 1573.8090 1435.2898
494 4.9816 1529(39) 1581.1488 1434.6191
495 4.9856 1480(38) 1588.8566 1433.9485
496 4.9896 1674(41) 1596.9288 1433.2778
497 4.9936 1733(42) 1605.3818 1432.6072
498 4.9976 1708(41) 1614.2772 1431.9365
499 5.0016 1598(40) 1623.7563 1431.2659
500 5.0056 1634(40) 1634.0713 1430.5952
501 5.0096 1843(43) 1645.6293 1429.9246
502 5.0136 1792(42) 1659.0332 1429.2539
503 5.0176 1839(43) 1675.0961 1428.5833
504 5.0216 1799(42) 1694.8490 1427.9126
505 5.0256 1802(42) 1719.5402 1427.2421
506 5.0296 1853(43) 1750.6415 1426.5713
507 5.0336 1843(43) 1789.9221 1425.9006
508 5.0376 1895(44) 1839.6801 1425.2301
509 5.0416 1976(44) 1903.2257 1424.5594
510 5.0456 1957(44) 1985.5741 1423.8887
511 5.0496 2112(46) 2094.3843 1423.2181
512 5.0536 2363(49) 2240.9292 1422.5475
513 5.0576 2544(50) 2440.5459 1421.8767
514 5.0616 2671(52) 2712.2588 1421.2062
515 5.0656 3084(56) 3077.0107 1420.5355
516 5.0696 3555(60) 3553.9702 1419.8649
517 5.0736 4028(63) 4154.2241 1419.1942
518 5.0776 4256(65) 4873.7988 1418.5237
519 5.0816 5145(72) 5685.2134 1417.8529
520 5.0856 5247(72) 6531.9253 1417.1823
521 5.0896 5710(76) 7331.2183 1416.5117
522 5.0936 6234(79) 7989.4917 1415.8409
523 5.0976 6718(82) 8425.8486 1415.1703
524 5.1016 7057(84) 8593.9707 1414.4998
525 5.1056 7745(88) 8489.6104 1413.8291
526 5.1096 8656(93) 8143.6729 1413.1583
527 5.1136 9370(97) 7609.2036 1412.4878
528 5.1176 9370(97) 6948.5996 1411.8171
529 5.1216 8805(94) 6224.1514 1411.1465
530 5.1256 7719(88) 5491.5542 1410.4758
531 5.1296 6210(79) 4795.3203 1409.8052
532 5.1336 4885(70) 4166.3062 1409.1345
533 5.1376 3699(61) 3622.1145 1408.4639
534 5.1416 3045(55) 3168.4639 1407.7932
535 5.1456 2568(51) 2801.8574 1407.1226
536 5.1496 2123(46) 2513.0952 1406.4519
537 5.1536 1941(44) 2290.0215 1405.7814
538 5.1576 1920(44) 2119.8296 1405.1107
539 5.1616 1935(44) 1990.6713 1404.4399
540 5.1656 1924(44) 1892.5466 1403.7694
541 5.1696 1711(41) 1817.3774 1403.0988
542 5.1736 1678(41) 1759.0233 1402.4281
543 5.1776 1583(40) 1712.9756 1401.7574
544 5.1816 1519(39) 1675.7021 1401.0868
545 5.1856 1564(40) 1645.4586 1400.4161
546 5.1896 1423(38) 1620.3333 1399.7455
547 5.1936 1413(38) 1599.1622 1399.0748
548 5.1976 1400(37) 1581.0948 1398.4042
549 5.2016 1446(38) 1565.5078 1397.7335
550 5.2056 1515(39) 1551.9288 1397.0629
551 5.2096 1449(38) 1539.9908 1396.3923
552 5.2136 1417(38) 1529.4059 1395.7217
553 5.2176 1381(37) 1519.9476 1395.0510
554 5.2216 1341(37) 1511.4348 1394.3804
555 5.2256 1388(37) 1503.5029 1393.7097
556 5.2296 1403(37) 1496.4623 1393.0391
557 5.2336 1658(41) 1490.0043 1392.3684
558 5.2376 1605(40) 1484.0485 1391.6978
559 5.2416 1554(39) 1478.5309 1391.0271
560 5.2456 1562(40) 1473.3987 1390.3564
561 5.2496 1484(39) 1468.6067 1389.6859
562 5.2536 1452(38) 1464.1165 1389.0151
563 5.2576 1309(36) 1459.8984 1388.3445
564 5.2616 1457(38) 1455.9250 1387.6740
565 5.2656 1477(38) 1452.1720 1387.0032
566 5.2696 1554(39) 1448.6199 1386.3325
567 5.2736 1514(39) 1445.2516 1385.6620
568 5.2776 1726(42) 1442.0503 1384.9913
569 5.2816 1724(42) 1439.0027 1384.3206
570 5.2856 1715(41) 1436.0968 1383.6500
571 5.2896 1799(42) 1433.3208 1382.9794
572 5.2936 1654(41) 1430.6648 1382.3086
573 5.2976 1468(38) 1428.1204 1381.6381
574 5.3016 1580(40) 1425.6787 1380.9674
575 5.3056 1453(38) 1423.3324 1380.2968
576 5.3096 1410(38) 1421.0746 1379.6261
577 5.3136 1400(37) 1418.8994 1378.9556
578 5.3176 1534(39) 1416.8007 1378.2848
579 5.3216 1446(38) 1414.7736 1377.6141
580 5.3256 1383(37) 1412.8135 1376.9436
581 5.3296 1449(38) 1410.9153 1376.2728
582 5.3336 1517(39) 1409.0756 1375.6022
583 5.3376 1577(40) 1407.2906 1374.9316
584 5.3416 1597(40) 1405.5568 1374.2610
585 5.3456 1687(41) 1403.8705 1373.5902
586 5.3496 1639(40) 1402.2296 1372.9197
587 5.3536 1616(40) 1400.6310 1372.2490
588 5.3576 1560(39) 1399.0719 1371.5784
589 5.3616 1397(37) 1397.5502 1370.9077
590 5.3656 1395(37) 1396.0638 1370.2371
591 5.3696 1412(38) 1394.6106 1369.5664
592 5.3736 1452(38) 1393.1886 1368.8958
593 5.3776 1529(39) 1391.7961 1368.2251
594 5.3816 1544(39) 1390.4315 1367.5544
595 5.3856 1435(38) 1389.0931 1366.8838
596 5.3896 1529(39) 1387.7797 1366.2131
597 5.3936 1389(37) 1386.4899 1365.5426
598 5.3976 1426(38) 1385.2220 1364.8719
599 5.4016 1521(39) 1384.1122 1364.2013
600 5.4056 1532(39) 1382.8834 1363.5306
601 5.4096 1438(38) 1381.6735 1362.8600
602 5.4136 1338(37) 1380.4813 1362.1893
603 5.4176 1375(37) 1379.3062 1361.5187
604 5.4216 1337(37) 1378.1470 1360.8480
605 5.4256 1556(39) 1377.0029 1360.1774
606 5.4296 1532(39) 1375.8733 1359.5067
607 5.4336 1381(37) 1374.7573 1358.8362
608 5.4376 1421(38) 1373.6538 1358.1654
609 5.4416 1467(38) 1372.5627 1357.4948
610 5.4456 1531(39) 1371.4833 1356.8242
611 5.4496 1300(36) 1370.4146 1356.1536
612 5.4536 1368(37) 1369.3613 1355.4829
613 5.4576 1394(37) 1368.3124 1354.8123
614 5.4616 1375(37) 1367.2726 1354.1416
615 5.4656 1385(37) 1366.2412 1353.4709
616 5.4696 1382(37) 1365.2180 1352.8003
617 5.4736 1334(37) 1364.2021 1352.1296
618 5.4776 1393(37) 1363.1934 1351.4590
619 5.4816 1298(36) 1362.1910 1350.7883
620 5.4856 1416(38) 1361.1949 1350.1178
621 5.4896 1383(37) 1360.2041 1349.4470
622 5.4936 1312(36) 1359.2184 1348.7764
623 5.4976 1349(37) 1345.8887 1348.1058
624 5.5016 1241(35) 1345.1505 1347.4351
625 5.5056 1335(37) 1344.4091 1346.7644
626 5.5096 1362(37) 1343.6643 1346.0939
627 5.5136 1514(39) 1342.9156 1345.4232
628 5.5176 1373(37) 1342.1627 1344.7524
629 5.5216 1332(36) 1341.4056 1344.0819
630 5.5256 1355(37) 1340.6437 1343.4113
631 5.5296 1482(38) 1339.8762 1342.7405
632 5.5336 1584(40) 1339.1035 1342.0699
633 5.5376 1463(38) 1338.3245 1341.3993
634 5.5416 1340(37) 1337.5387 1340.7286
635 5.5456 1199(35) 1336.7457 1340.0580
636 5.5496 1361(37) 1335.9451 1339.3875
637 5.5536 1410(38) 1335.1356 1338.7167
638 5.5576 1389(37) 1334.3171 1338.0460
639 5.5616 1329(36) 1333.4890 1337.3755
640 5.5656 1390(37) 1332.6500 1336.7047
641 5.5696 1252(35) 1331.8000 1336.0341
642 5.5736 1274(36) 1330.9385 1335.3635
643 5.5776 1293(36) 1330.0647 1334.6929
644 5.5816 1313(36) 1329.1782 1334.0222
645 5.5856 1140(34) 1328.2793 1333.3516
646 5.5896 1227(35) 1327.3679 1332.6809
647 5.5936 1340(37) 1326.4448 1332.0103
648 5.5976 1334(37) 1325.5111 1331.3396
649 5.6016 1441(38) 1324.5691 1330.6689
650 5.6056 1469(38) 1323.6215 1329.9983
651 5.6096 1462(38) 1322.6725 1329.3276
652 5.6136 1409(38) 1321.7281 1328.6570
653 5.6176 1331(36) 1320.7958 1327.9865
654 5.6216 1326(36) 1319.8849 1327.3157
655 5.6256 1298(36) 1319.0081 1326.6450
656 5.6296 1313(36) 1318.1796 1325.9745
657 5.6336 1365(37) 1317.4155 1325.3038
658 5.6376 1321(36) 1316.7341 1324.6332
659 5.6416 1325(36) 1316.1534 1323.9625
660 5.6456 1261(36) 1315.6901 1323.2919
661 5.6496 1191(35) 1315.3562 1322.6212
662 5.6536 1232(35) 1315.1569 1321.9506
663 5.6576 1299(36) 1315.0869 1321.2799
664 5.6616 1316(36) 1315.1278 1320.6093
665 5.6656 1271(36) 1315.2462 1319.9386
666 5.6696 1241(35) 1315.3951 1319.2681
667 5.6736 1191(35) 1315.3794 1318.5974
668 5.6776 1243(35) 1315.4137 1317.9266
669 5.6816 1241(35) 1315.3141 1317.2561
670 5.6856 1371(37) 1315.0588 1316.5854
671 5.6896 1269(36) 1314.6718 1315.9148
672 5.6936 1251(35) 1314.2390 1315.2441
673 5.6976 1309(36) 1313.9220 1314.5735
674 5.7016 1199(35) 1313.9600 1313.9028
675 5.7056 1273(36) 1314.6602 1313.2322
676 5.7096 1437(38) 1316.3721 1312.5615
677 5.7136 1445(38) 1319.4479 1311.8909
678 5.7176 1285(36) 1324.1881 1311.2202
679 5.7216 1229(35) 1330.7939 1310.5496
680 5.7256 1237(35) 1339.3235 1309.8789
681 5.7296 1208(35) 1349.6688 1309.2083
682 5.7336 1237(35) 1361.5688 1308.5377
683 5.7376 1127(34) 1374.6534 1307.8669
684 5.7416 1299(36) 1388.4911 1307.1963
685 5.7456 1376(37) 1402.6396 1306.5258
686 5.7496 1436(38) 1416.6738 1305.8550
687 5.7536 1429(38) 1430.1676 1305.1843
688 5.7576 1485(39) 1442.6824 1304.5138
689 5.7616 1485(39) 1453.7723 1303.8431
690 5.7656 1488(39) 1463.0155 1303.1725
691 5.7696 1511(39) 1470.0671 1302.5018
692 5.7736 1425(38) 1474.7207 1301.8312
693 5.7776 1405(37) 1476.9426 1301.1605
694 5.7816 1290(36) 1476.8715 1300.4899
695 5.7856 1356(37) 1474.7936 1299.8193
696 5.7896 1347(37) 1471.0846 1299.1486
697 5.7936 1396(37) 1466.1345 1298.4779
698 5.7976 1490(39) 1460.2625 1297.8074
699 5.8016 1479(38) 1453.6483 1297.1367
700 5.8056 1428(38) 1446.3109 1296.4659
701 5.8096 1410(38) 1438.1458 1295.7954
702 5.8136 1438(38) 1428.9899 1295.1248
703 5.8176 1428(38) 1418.7144 1294.4541
704 5.8216 1374(37) 1407.2985 1293.7834
705 5.8256 1284(36) 1394.8629 1293.1128
706 5.8296 1283(36) 1381.6641 1292.4421
707 5.8336 1301(36) 1368.0699 1291.7715
708 5.8376 1302(36) 1354.5055 1291.1008
709 5.8416 1240(35) 1342.5035 1291.5387
710 5.8456 1321(36) 1331.7028 1292.3462
711 5.8496 1433(38) 1322.0381 1293.1534
712 5.8536 1368(37) 1313.7056 1293.9608
713 5.8576 1379(37) 1306.7987 1294.7682
714 5.8616 1310(36) 1301.3175 1295.5756
715 5.8656 1266(36) 1297.1837 1296.3828
716 5.8696 1247(35) 1294.2618 1297.1902
717 5.8736 1335(37) 1292.3848 1297.9977
718 5.8776 1294(36) 1291.3717 1298.8049
719 5.8816 1334(37) 1291.0454 1299.6123
720 5.8856 1234(35) 1291.2434 1300.4197
721 5.8896 1141(34) 1291.8248 1301.2269
722 5.8936 1143(34) 1292.6736 1302.0343
723 5.8976 1223(35) 1293.6976 1302.8418
724 5.9016 1331(36) 1294.8270 1303.6490
725 5.9056 1317(36) 1296.0114 1304.4563
726 5.9096 1231(35) 1297.2159 1305.2638
727 5.9136 1373(37) 1298.4174 1306.0712
728 5.9176 1496(39) 1299.6016 1306.8784
729 5.9216 1500(39) 1300.7614 1307.6858
730 5.9256 1429(38) 1301.8933 1308.4932
731 5.9296 1345(37) 1302.9968 1309.3005
732 5.9336 1218(35) 1304.0730 1310.1078
733 5.9376 1051(32) 1305.1245 1310.9153
734 5.9416 1078(33) 1306.1532 1311.7225
735 5.9456 1150(34) 1307.1622 1312.5299
736 5.9496 1251(35) 1308.1538 1313.3373
737 5.9536 1137(34) 1309.1302 1314.1447
738 5.9576 1172(34) 1310.0933 1314.9519
739 5.9616 1134(34) 1311.0449 1315.7593
740 5.9656 1226(35) 1311.9863 1316.5667
741 5.9696 1362(37) 1312.9187 1317.3740
742 5.9736 1485(39) 1313.8430 1318.1814
743 5.9776 1395(37) 1314.7599 1318.9888
744 5.9816 1379(37) 1315.6698 1319.7960
745 5.9856 1383(37) 1316.5735 1320.6034
746 5.9896 1330(36) 1317.4713 1321.4109
747 5.9936 1284(36) 1318.3630 1322.2181
748 5.9976 1428(38) 1319.2493 1323.0254
749 6.0016 1377(37) 1320.1302 1323.8329
750 6.0056 1382(37) 1321.0059 1324.6403
751 6.0096 1446(38) 1321.8761 1325.4475
752 6.0136 1496(39) 1322.7413 1326.2549
753 6.0176 1543(39) 1323.6013 1327.0623
754 6.0216 1389(37) 1324.4562 1327.8696
755 6.0256 1372(37) 1325.3058 1328.6769
756 6.0296 1385(37) 1326.1504 1329.4844
757 6.0336 1342(37) 1326.9895 1330.2916
758 6.0376 1369(37) 1327.8234 1331.0990
759 6.0416 1390(37) 1328.6517 1331.9064
760 6.0456 1395(37) 1329.4746 1332.7137
761 6.0496 1324(36) 1330.2916 1333.5210
762 6.0536 1284(36) 1331.1031 1334.3284
763 6.0576 1297(36) 1331.9086 1335.1357
764 6.0616 1324(36) 1332.7080 1335.9431
765 6.0656 1311(36) 1333.5013 1336.7505
766 6.0696 1358(37) 1334.2886 1337.5579
767 6.0736 1304(36) 1335.0693 1338.3651
768 6.0776 1275(36) 1335.8442 1339.1725
769 6.0816 1313(36) 1336.6133 1339.9799
770 6.0856 1287(36) 1337.3767 1340.7872
771 6.0896 1312(36) 1338.1351 1341.5945
772 6.0936 1308(36) 1338.8896 1342.4020
773 6.0976 1394(37) 1339.6412 1343.2094
774 6.1016 1403(37) 1340.3916 1344.0166
775 6.1056 1386(37) 1341.1433 1344.8240
776 6.1096 1474(38) 1341.8993 1345.6313
777 6.1136 1516(39) 1342.6636 1346.4387
778 6.1176 1493(39) 1343.4409 1347.2460
779 6.1216 1410(38) 1344.2377 1348.0535
780 6.1256 1264(36) 1345.0605 1348.8607
781 6.1296 1333(37) 1345.9178 1349.6681
782 6.1336 1333(37) 1346.5580 1350.4755
783 6.1376 1247(35) 1347.5060 1351.2828
784 6.1416 1255(35) 1348.5127 1352.0901
785 6.1456 1301(36) 1349.5836 1352.8975
786 6.1496 1326(36) 1350.7201 1353.7048
787 6.1536 1436(38) 1351.9183 1354.5122
788 6.1576 1468(38) 1353.1686 1355.3196
789 6.1616 1617(40) 1354.4536 1356.1270
790 6.1656 1487(39) 1355.7498 1356.9342
791 6.1696 1439(38) 1357.0294 1357.7416
792 6.1736 1385(37) 1358.2648 1358.5490
793 6.1776 1443(38) 1359.4332 1359.3563
794 6.1816 1409(38) 1360.5264 1360.1636
795 6.1856 1464(38) 1361.5579 1360.9709
796 6.1896 1514(39) 1362.5710 1361.7784
797 6.1936 1389(37) 1363.6445 1362.5857
798 6.1976 1330(36) 1364.8936 1363.3931
799 6.2016 1358(37) 1366.4634 1364.2004
800 6.2056 1352(37) 1368.5172 1365.0078
801 6.2096 1439(38) 1371.2170 1365.8151
802 6.2136 1372(37) 1374.7000 1366.6226
803 6.2176 1302(36) 1379.0502 1367.4298
804 6.2216 1449(38) 1384.2845 1368.2372
805 6.2256 1400(37) 1390.3391 1369.0446
806 6.2296 1374(37) 1397.0719 1369.8519
807 6.2336 1317(36) 1404.2773 1370.6592
808 6.2376 1433(38) 1411.7094 1371.4666
809 6.2416 1477(38) 1419.0914 1372.2739
810 6.2456 1574(40) 1426.1271 1373.0813
811 6.2496 1575(40) 1432.5032 1373.8887
812 6.2536 1591(40) 1437.8931 1374.6960
813 6.2576 1574(40) 1441.9819 1375.5033
814 6.2616 1461(38) 1444.5074 1376.3107
815 6.2656 1552(39) 1445.3010 1377.1180
816 6.2696 1479(38) 1444.3229 1377.9254
817 6.2736 1506(39) 1441.6748 1378.7327
818 6.2776 1392(37) 1437.5873 1379.5400
819 6.2816 1358(37) 1432.3898 1380.3475
820 6.2856 1431(38) 1426.4680 1381.1548
821 6.2896 1522(39) 1420.2170 1381.9622
822 6.2936 1638(40) 1414.0059 1382.7695
823 6.2976 1687(41) 1408.1459 1383.5769
824 6.3016 1603(40) 1402.8708 1384.3842
825 6.3056 1586(40) 1398.3333 1385.1917
826 6.3096 1568(40) 1394.6107 1385.9989
827 6.3136 1485(39) 1391.7111 1386.8063
828 6.3176 1489(39) 1389.5908 1387.6136
829 6.3216 1475(38) 1388.4541 1388.4210
830 6.3256 1396(37) 1387.6344 1389.2283
831 6.3296 1471(38) 1387.3118 1390.0356
832 6.3336 1422(38) 1387.3833 1390.8430
833 6.3376 1285(36) 1387.7557 1391.6504
834 6.3416 1354(37) 1388.3481 1392.4578
835 6.3456 1336(37) 1389.0946 1393.2651
836 6.3496 1331(36) 1389.9431 1394.0724
837 6.3536 1316(36) 1390.8545 1394.8798
838 6.3576 1383(37) 1391.8004 1395.6871
839 6.3616 1514(39) 1392.7609 1396.4945
840 6.3656 1539(39) 1393.9359 1397.3018
841 6.3696 1486(39) 1394.8885 1398.1091
842 6.3736 1532(39) 1395.8302 1398.9166
843 6.3776 1414(38) 1396.7584 1399.7239
844 6.3816 1489(39) 1397.6730 1400.5312
845 6.3856 1446(38) 1398.5743 1401.3386
846 6.3896 1232(35) 1399.4633 1402.1460
847 6.3936 1399(37) 1400.3408 1402.9532
848 6.3976 1450(38) 1401.2089 1403.7607
849 6.4016 1486(39) 1402.0679 1404.5680
850 6.4056 1466(38) 1402.9194 1405.3754
851 6.4096 1504(39) 1403.7644 1406.1827
852 6.4136 1383(37) 1404.6035 1406.9901
853 6.4176 1511(39) 1405.4374 1407.7974
854 6.4216 1446(38) 1406.2668 1408.6047
855 6.4256 1387(37) 1407.0920 1409.4121
856 6.4296 1326(36) 1407.9135 1410.2195
857 6.4336 1312(36) 1408.7312 1411.0269
858 6.4376 1317(36) 1409.5454 1411.8342
859 6.4416 1372(37) 1410.3562 1412.6415
860 6.4456 1364(37) 1411.1637 1413.4489
861 6.4496 1380(37) 1411.9678 1414.2562
862 6.4536 1357(37) 1412.7684 1415.0636
863 6.4576 1327(36) 1413.5657 1415.8708
864 6.4616 1271(36) 1414.3594 1416.6782
865 6.4656 1276(36) 1415.1494 1417.4857
866 6.4696 1295(36) 1415.9355 1418.2930
867 6.4736 1289(36) 1416.7178 1419.1003
868 6.4776 1263(36) 1417.4958 1419.9077
869 6.4816 1408(38) 1418.2695 1420.7151
870 6.4856 1467(38) 1419.0383 1421.5223
871 6.4896 1354(37) 1419.8026 1422.3298
872 6.4936 1408(38) 1420.5613 1423.1371
873 6.4976 1467(38) 1421.3146 1423.9443
874 6.5016 1362(37) 1422.0621 1424.7518
875 6.5056 1328(36) 1422.8032 1425.5592
876 6.5096 1447(38) 1423.5376 1426.3665
877 6.5136 1439(38) 1424.2650 1427.1738
878 6.5176 1354(37) 1424.9850 1427.9812
879 6.5216 1440(38) 1425.6971 1428.7886
880 6.5256 1571(40) 1426.4011 1429.5959
881 6.5296 1554(39) 1427.0966 1430.4033
882 6.5336 1446(38) 1427.7833 1431.2106
883 6.5376 1456(38) 1428.4615 1432.0179
884 6.5416 1476(38) 1429.1313 1432.8253
885 6.5456 1321(36) 1429.7932 1433.6327
886 6.5496 1313(36) 1430.4479 1434.4399
887 6.5536 1247(35) 1431.0968 1435.2473
888 6.5576 1311(36) 1431.7423 1436.0548
889 6.5616 1353(37) 1432.3867 1436.8621
890 6.5656 1502(39) 1431.8135 1437.6694
891 6.5696 1477(38) 1432.4525 1438.4768
892 6.5736 1593(40) 1433.1066 1439.2842
893 6.5776 1613(40) 1433.7842 1440.0914
894 6.5816 1582(40) 1434.4967 1440.8989
895 6.5856 1326(36) 1435.2563 1441.7062
896 6.5896 1373(37) 1436.0781 1442.5134
897 6.5936 1330(36) 1436.9783 1443.3209
898 6.5976 1394(37) 1437.9729 1444.1283
899 6.6016 1474(38) 1439.0770 1444.9355
900 6.6056 1330(36) 1440.3031 1445.7429
901 6.6096 1351(37) 1441.6573 1446.5503
902 6.6136 1329(36) 1443.1376 1447.3577
903 6.6176 1403(37) 1444.7318 1448.1650
904 6.6216 1485(39) 1446.4159 1448.9724
905 6.6256 1460(38) 1448.1545 1449.7797
906 6.6296 1543(39) 1449.9054 1450.5870
907 6.6336 1564(40) 1451.6243 1451.3944
908 6.6376 1532(39) 1453.2749 1452.2018
909 6.6416 1621(40) 1454.8424 1453.0090
910 6.6456 1499(39) 1456.3477 1453.8164
911 6.6496 1448(38) 1457.8591 1454.6239
912 6.6536 1532(39) 1459.5031 1455.4312
913 6.6576 1550(39) 1461.4664 1456.2385
914 6.6616 1589(40) 1463.9868 1457.0459
915 6.6656 1480(38) 1467.3330 1457.8533
916 6.6696 1533(39) 1471.7729 1458.6605
917 6.6736 1567(40) 1477.5355 1459.4679
918 6.6776 1720(41) 1484.3313 1459.8434
919 6.6816 1579(40) 1492.6211 1460.2189
920 6.6856 1458(38) 1502.2994 1460.5944
921 6.6896 1367(37) 1513.1273 1460.9700
922 6.6936 1451(38) 1524.7567 1461.3455
923 6.6976 1425(38) 1536.7684 1461.7209
924 6.7016 1406(37) 1548.6909 1462.0964
925 6.7056 1399(37) 1560.0172 1462.4719
926 6.7096 1408(38) 1570.2095 1462.8474
927 6.7136 1577(40) 1578.7009 1463.2229
928 6.7176 1404(37) 1584.9375 1463.5984
929 6.7216 1475(38) 1588.4445 1463.9739
930 6.7256 1575(40) 1588.9019 1464.3494
931 6.7296 1594(40) 1586.2096 1464.7250
932 6.7336 1496(39) 1580.5159 1465.1005
933 6.7376 1481(38) 1572.2001 1465.4760
934 6.7416 1462(38) 1561.8258 1465.8514
935 6.7456 1408(38) 1550.0675 1466.2269
936 6.7496 1372(37) 1537.6266 1466.6024
937 6.7536 1381(37) 1525.1691 1466.9779
938 6.7576 1319(36) 1513.2661 1467.3534
939 6.7616 1523(39) 1502.3563 1467.7289
940 6.7656 1395(37) 1492.7341 1468.1045
941 6.7696 1452(38) 1484.5615 1468.4800
942 6.7736 1432(38) 1477.8711 1468.8555
943 6.7776 1282(36) 1472.6011 1469.2310
944 6.7816 1331(36) 1468.6226 1469.6064
945 6.7856 1354(37) 1465.7657 1469.9819
946 6.7896 1292(36) 1463.8424 1470.3574
947 6.7936 1608(40) 1462.6675 1470.7330
948 6.7976 1658(41) 1462.0695 1471.1084
949 6.8016 1731(42) 1461.8994 1471.4840
950 6.8056 1712(41) 1462.0328 1471.8595
951 6.8096 1725(42) 1462.3710 1472.2350
952 6.8136 1631(40) 1462.8384 1472.6105
953 6.8176 1690(41) 1474.9115 1472.9860
954 6.8216 1630(40) 1475.7352 1473.3615
955 6.8256 1668(41) 1476.5747 1473.7369
956 6.8296 1565(40) 1477.4131 1474.1124
957 6.8336 1599(40) 1478.2410 1474.4880
958 6.8376 1409(38) 1479.0529 1474.8634
959 6.8416 1484(39) 1479.8479 1475.2390
960 6.8456 1441(38) 1480.6259 1475.6145
961 6.8496 1411(38) 1481.3884 1475.9900
962 6.8536 1391(37) 1482.1381 1476.3655
963 6.8576 1454(38) 1482.8771 1476.7410
964 6.8616 1472(38) 1483.6080 1477.1165
965 6.8656 1479(38) 1484.3330 1477.4919
966 6.8696 1594(40) 1485.0544 1477.8674
967 6.8736 1670(41) 1485.7742 1478.2430
968 6.8776 1648(41) 1486.4935 1478.6184
969 6.8816 1623(40) 1487.2142 1478.9940
970 6.8856 1490(39) 1487.9374 1479.3695
971 6.8896 1488(39) 1488.6638 1479.7450
972 6.8936 1576(40) 1489.3947 1480.1205
973 6.8976 1678(41) 1490.1306 1480.4960
974 6.9016 1529(39) 1490.8721 1480.8715
975 6.9056 1497(39) 1491.6196 1481.2469
976 6.9096 1492(39) 1492.3739 1481.6224
977 6.9136 1673(41) 1493.1353 1481.9980
978 6.9176 1547(39) 1493.9038 1482.3735
979 6.9216 1365(37) 1494.6799 1482.7490
980 6.9256 1381(37) 1495.4640 1483.1245
981 6.9296 1323(36) 1496.0353 1483.5000
982 6.9336 1428(38) 1496.8330 1483.8755
983 6.9376 1409(38) 1497.6395 1484.2510
984 6.9416 1368(37) 1498.4553 1484.6265
985 6.9456 1458(38) 1499.2809 1485.0020
986 6.9496 1574(40) 1500.1174 1485.3776
987 6.9536 1490(39) 1500.9656 1485.7531
988 6.9576 1445(38) 1501.8271 1486.1285
989 6.9616 1492(39) 1502.7043 1486.5040
990 6.9656 1611(40) 1503.6000 1486.8795
991 6.9696 1651(41) 1504.5178 1487.2550
992 6.9736 1703(41) 1505.4633 1487.6305
993 6.9776 1573(40) 1506.4429 1488.0060
994 6.9816 1578(40) 1507.4657 1488.3815
995 6.9856 1541(39) 1508.5433 1488.7570
996 6.9896 1475(38) 1509.6914 1489.1326
997 6.9936 1556(39) 1510.9288 1489.5081
998 6.9976 1478(38) 1512.2810 1489.8835
999 7.0016 1620(40) 1513.7798 1490.2590
1000 7.0056 1605(40) 1515.4652 1490.6345
1001 7.0096 1554(39) 1517.3865 1491.0100
1002 7.0136 1622(40) 1519.6035 1491.3855
1003 7.0176 1661(41) 1522.1876 1491.7611
1004 7.0216 1731(42) 1525.2195 1492.1365
1005 7.0256 1643(41) 1528.7909 1492.5121
1006 7.0296 1614(40) 1532.9962 1492.8876
1007 7.0336 1487(39) 1537.9320 1493.2631
1008 7.0376 1501(39) 1543.6838 1493.6385
1009 7.0416 1568(40) 1550.3185 1494.0140
1010 7.0456 1667(41) 1557.8749 1494.3895
1011 7.0496 1607(40) 1566.3490 1494.7650
1012 7.0536 1448(38) 1575.6941 1495.1405
1013 7.0576 1466(38) 1585.8148 1495.5161
1014 7.0616 1491(39) 1596.5797 1495.8915
1015 7.0656 1610(40) 1607.8508 1496.2671
1016 7.0696 1492(39) 1619.5115 1496.6426
1017 7.0736 1583(40) 1631.5227 1497.0181
1018 7.0776 1715(41) 1643.9843 1497.3936
1019 7.0816 1697(41) 1657.1842 1497.7690
1020 7.0856 1694(41) 1671.6572 1498.1445
1021 7.0896 1609(40) 1688.1984 1498.5200
1022 7.0936 1632(40) 1707.8588 1498.8955
1023 7.0976 1639(40) 1731.9082 1499.2711
1024 7.1016 1730(42) 1761.7400 1499.6465
1025 7.1056 1788(42) 1798.7992 1500.0221
1026 7.1096 1698(41) 1844.4679 1500.3976
1027 7.1136 1863(43) 1900.0161 1500.7731
1028 7.1176 1999(45) 1966.6283 1501.1486
1029 7.1216 2187(47) 2045.4294 1501.5240
1030 7.1256 2110(46) 2137.6919 1501.8995
1031 7.1296 2198(47) 2244.9624 1502.2751
1032 7.1336 2162(46) 2369.3037 1502.6505
1033 7.1376 2257(48) 2513.6211 1503.0261
1034 7.1416 2228(47) 2681.9346 1503.4016
1035 7.1456 2591(51) 2880.0645 1503.7771
1036 7.1496 2935(54) 3116.1111 1504.1526
1037 7.1536 3043(55) 3400.8430 1504.5281
1038 7.1576 3689(61) 3747.2996 1504.9036
1039 7.1616 4457(67) 4168.4863 1505.2791
1040 7.1656 5117(72) 4673.1494 1505.6545
1041 7.1696 5609(75) 5259.3228 1506.0302
1042 7.1736 6640(81) 5905.5908 1506.4055
1043 7.1776 7518(87) 6564.5752 1506.7811
1044 7.1816 8056(90) 7162.5527 1507.1566
1045 7.1856 8620(93) 7613.5962 1507.5321
1046 7.1896 8972(95) 7845.8770 1507.9076
1047 7.1936 8378(92) 7825.3687 1508.2831
1048 7.1976 8301(91) 7562.5205 1508.6586
1049 7.2016 7884(89) 7101.2192 1509.0342
1050 7.2056 6941(83) 6502.2070 1509.4095
1051 7.2096 5883(77) 5829.2617 1509.7852
1052 7.2136 4818(69) 5140.8950 1510.1606
1053 7.2176 4020(63) 4484.3174 1510.5361
1054 7.2216 3281(57) 3893.0850 1510.9116
1055 7.2256 2776(53) 3386.2529 1511.2871
1056 7.2296 2443(49) 2969.7554 1511.6626
1057 7.2336 2298(48) 2639.8013 1512.0381
1058 7.2376 2162(46) 2386.0806 1512.4136
1059 7.2416 2195(47) 2195.4397 1512.7892
1060 7.2456 2123(46) 2054.3560 1513.1646
1061 7.2496 1946(44) 1950.5950 1513.5402
1062 7.2536 1788(42) 1874.1093 1513.9156
1063 7.2576 1839(43) 1817.1333 1514.2911
1064 7.2616 1770(42) 1773.9473 1514.6666
1065 7.2656 1582(40) 1740.5256 1515.0421
1066 7.2696 1632(40) 1714.0735 1515.4176
1067 7.2736 1693(41) 1692.6938 1515.7931
1068 7.2776 1595(40) 1675.3486 1516.1686
1069 7.2816 1605(40) 1660.6158 1516.5442
1070 7.2856 1645(41) 1648.1265 1516.9196
1071 7.2896 1522(39) 1637.4178 1517.2952
1072 7.2936 1492(39) 1628.1487 1517.6707
1073 7.2976 1503(39) 1620.0587 1518.0461
1074 7.3016 1452(38) 1612.9430 1518.4216
1075 7.3056 1618(40) 1606.6434 1518.7971
1076 7.3096 1502(39) 1601.0306 1519.1726
1077 7.3136 1421(38) 1594.1538 1519.5481
1078 7.3176 1391(37) 1589.6035 1519.9236
1079 7.3216 1475(38) 1585.4863 1520.2992
1080 7.3256 1605(40) 1581.7473 1520.6747
1081 7.3296 1606(40) 1578.3390 1521.0502
1082 7.3336 1721(41) 1575.2229 1521.4257
1083 7.3376 1567(40) 1572.3663 1521.8011
1084 7.3416 1556(39) 1569.7404 1522.1766
1085 7.3456 1736(42) 1566.7532 1522.5521
1086 7.3496 1624(40) 1564.5131 1522.9276
1087 7.3536 1494(39) 1562.4413 1523.3032
1088 7.3576 1440(38) 1560.5232 1523.6786
1089 7.3616 1584(40) 1558.7460 1524.0542
1090 7.3656 1689(41) 1557.0996 1524.4297
1091 7.3696 1624(40) 1555.5764 1524.8052
1092 7.3736 1584(40) 1554.1705 1525.1807
1093 7.3776 1529(39) 1552.8794 1525.5562
1094 7.3816 1518(39) 1551.3666 1525.9316
1095 7.3856 1528(39) 1550.3010 1526.3071
1096 7.3896 1518(39) 1549.3566 1526.6826
1097 7.3936 1524(39) 1548.5396 1527.0582
1098 7.3976 1663(41) 1547.8588 1527.4336
1099 7.4016 1730(42) 1547.3235 1527.8092
1100 7.4056 1575(40) 1546.9425 1528.1847
1101 7.4096 1647(41) 1546.7227 1528.5602
1102 7.4136 1760(42) 1546.6667 1528.9357
1103 7.4176 1610(40) 1546.7716 1529.3112
1104 7.4216 1593(40) 1547.0272 1529.6866
1105 7.4256 1537(39) 1547.4154 1530.0623
1106 7.4296 1491(39) 1547.9110 1530.4376
1107 7.4336 1573(40) 1548.4855 1530.8132
1108 7.4376 1664(41) 1549.1108 1531.1887
1109 7.4416 1678(41) 1549.7679 1531.5642
1110 7.4456 1627(40) 1550.4558 1531.9397
1111 7.4496 1696(41) 1551.2006 1532.3152
1112 7.4536 1660(41) 1552.0642 1532.6907
1113 7.4576 1677(41) 1553.1490 1533.0662
1114 7.4616 1593(40) 1554.5959 1533.4417
1115 7.4656 1565(40) 1556.5764 1533.8173
1116 7.4696 1726(42) 1559.2734 1534.1926
1117 7.4736 1621(40) 1562.8591 1534.5682
1118 7.4776 1537(39) 1567.4631 1534.9437
1119 7.4816 1578(40) 1573.1464 1535.3192
1120 7.4856 1552(39) 1579.8829 1535.6947
1121 7.4896 1453(38) 1587.5480 1536.0702
1122 7.4936 1573(40) 1595.9327 1536.4457
1123 7.4976 1617(40) 1604.7584 1536.8213
1124 7.5016 1751(42) 1613.7009 1537.1967
1125 7.5056 1654(41) 1622.4104 1537.5723
1126 7.5096 1564(40) 1630.5063 1537.9478
1127 7.5136 1451(38) 1637.5852 1538.3232
1128 7.5176 1544(39) 1643.2236 1538.6987
1129 7.5216 1531(39) 1647.0156 1539.0742
1130 7.5256 1498(39) 1648.6259 1539.4497
1131 7.5296 1600(40) 1647.8475 1539.8252
1132 7.5336 1604(40) 1644.6459 1540.2007
1133 7.5376 1589(40) 1639.1738 1540.5762
1134 7.5416 1639(40) 1631.7556 1540.9517
1135 7.5456 1587(40) 1622.8414 1541.3273
1136 7.5496 1563(40) 1612.9567 1541.7028
1137 7.5536 1529(39) 1602.6420 1542.0782
1138 7.5576 1410(38) 1581.3120 1542.4537
1139 7.5616 1563(40) 1571.7977 1542.8292
1140 7.5656 1569(40) 1563.0969 1543.2047
1141 7.5696 1499(39) 1555.4274 1543.5802
1142 7.5736 1396(37) 1548.9012 1543.9557
1143 7.5776 1517(39) 1543.5377 1544.3313
1144 7.5816 1658(41) 1539.2858 1544.7067
1145 7.5856 1628(40) 1536.0425 1545.0823
1146 7.5896 1449(38) 1533.6754 1545.4578
1147 7.5936 1470(38) 1532.0397 1545.8333
1148 7.5976 1490(39) 1530.9907 1546.2087
1149 7.6016 1545(39) 1530.3956 1546.5842
1150 7.6056 1558(39) 1530.1373 1546.9597
1151 7.6096 1628(40) 1530.1184 1547.3352
1152 7.6136 1774(42) 1530.2601 1547.7107
1153 7.6176 1560(39) 1530.5018 1548.0863
1154 7.6216 1567(40) 1530.7975 1548.4617
1155 7.6256 1548(39) 1531.1149 1548.8373
1156 7.6296 1509(39) 1531.4308 1549.2128
1157 7.6336 1511(39) 1531.7300 1549.5883
1158 7.6376 1553(39) 1532.0028 1549.9637
1159 7.6416 1586(40) 1532.2433 1550.3392
1160 7.6456 1519(39) 1532.4482 1550.7147
1161 7.6496 1575(40) 1532.6161 1551.0903
1162 7.6536 1596(40) 1532.7460 1551.4657
1163 7.6576 1541(39) 1532.8379 1551.8413
1164 7.6616 1468(38) 1532.8914 1552.2168
1165 7.6656 1620(40) 1532.9066 1552.5923
1166 7.6696 1879(43) 1532.8827 1552.9678
1167 7.6736 1871(43) 1532.8192 1553.3433
1168 7.6776 1672(41) 1532.7147 1553.7188
1169 7.6816 1628(40) 1532.5677 1554.0942
1170 7.6856 1691(41) 1532.3763 1554.4697
1171 7.6896 1572(40) 1532.1383 1554.8453
1172 7.6936 1595(40) 1531.8507 1555.2207
1173 7.6976 1570(40) 1531.5110 1555.5963
1174 7.7016 1555(39) 1531.1156 1555.9718
1175 7.7056 1584(40) 1530.6617 1556.3473
1176 7.7096 1639(40) 1530.1456 1556.7228
1177 7.7136 1662(41) 1531.4601 1557.7910
1178 7.7176 1576(40) 1533.5654 1560.9379
1179 7.7216 1573(40) 1535.6006 1564.0847
1180 7.7256 1463(38) 1537.5635 1567.2312
1181 7.7296 1366(37) 1539.4540 1570.3781
1182 7.7336 1341(37) 1541.2731 1573.5249
1183 7.7376 1474(38) 1543.0237 1576.6714
1184 7.7416 1496(39) 1544.7125 1579.8182
1185 7.7456 1621(40) 1546.3494 1582.9646
1186 7.7496 1590(40) 1546.2400 1586.1115
1187 7.7536 1543(39) 1547.8040 1589.2583
1188 7.7576 1607(40) 1549.3846 1592.4048
1189 7.7616 1675(41) 1551.0237 1595.5516
1190 7.7656 1900(44) 1552.7748 1598.6981
1191 7.7696 1628(40) 1554.7065 1601.8450
1192 7.7736 1711(41) 1556.9027 1604.9918
1193 7.7776 1699(41) 1559.4628 1608.1383
1194 7.7816 1488(39) 1562.5015 1611.2852
1195 7.7856 1510(39) 1566.1431 1614.4316
1196 7.7896 1487(39) 1570.5178 1617.5785
1197 7.7936 1414(38) 1575.7499 1620.7253
1198 7.7976 1521(39) 1581.9458 1623.8718
1199 7.8016 1488(39) 1589.1841 1627.0186
1200 7.8056 1519(39) 1597.4969 1630.1650
1201 7.8096 1567(40) 1606.8667 1633.3119
1202 7.8136 1700(41) 1617.2175 1636.4587
1203 7.8176 1779(42) 1628.4270 1639.6052
1204 7.8216 1698(41) 1640.3541 1642.7521
1205 7.8256 1671(41) 1652.8718 1645.8989
1206 7.8296 1631(40) 1665.9270 1649.0454
1207 7.8336 1531(39) 1679.6107 1652.1923
1208 7.8376 1521(39) 1694.2145 1655.3387
1209 7.8416 1792(42) 1708.3157 1658.4856
1210 7.8456 1671(41) 1726.6855 1661.6324
1211 7.8496 1748(42) 1748.4692 1664.7789
1212 7.8536 1802(42) 1774.9603 1667.9258
1213 7.8576 1776(42) 1807.4929 1671.0721
1214 7.8616 1736(42) 1847.2876 1674.2190
1215 7.8656 1875(43) 1895.2266 1677.3658
1216 7.8696 1922(44) 1951.6799 1680.5123
1217 7.8736 1886(43) 2016.4153 1683.6592
1218 7.8776 2015(45) 2088.5278 1686.8057
1219 7.8816 2113(46) 2166.5840 1689.9525
1220 7.8856 2259(48) 2248.7078 1693.0994
1221 7.8896 2261(48) 2332.7356 1696.2458
1222 7.8936 2254(47) 2416.2944 1699.3927
1223 7.8976 2310(48) 2496.6846 1702.5392
1224 7.9016 2455(50) 2570.8950 1705.6860
1225 7.9056 2477(50) 2635.6003 1708.8329
1226 7.9096 2619(51) 2687.4702 1711.9792
1227 7.9136 2797(53) 2723.6433 1715.1261
1228 7.9176 2889(54) 2742.1829 1718.2729
1229 7.9216 2787(53) 2742.4629 1721.4194
1230 7.9256 2922(54) 2725.2554 1724.5663
1231 7.9296 2774(53) 2692.5535 1727.7128
1232 7.9336 2601(51) 2647.1748 1730.8596
1233 7.9376 2521(50) 2592.3311 1734.0065
1234 7.9416 2353(49) 2531.2224 1737.1530
1235 7.9456 2396(49) 2466.7388 1740.2998
1236 7.9496 2231(47) 2401.3760 1743.4463
1237 7.9536 2328(48) 2337.1335 1746.5931
1238 7.9576 2276(48) 2275.5769 1749.7400
1239 7.9616 2102(46) 2217.8281 1752.8865
1240 7.9656 2024(45) 2164.5583 1756.0332
1241 7.9696 2027(45) 2116.1123 1759.1797
1242 7.9736 2184(47) 2072.2834 1762.3265
1243 7.9776 2086(46) 2032.7806 1765.4734
1244 7.9816 2139(46) 1997.1077 1768.6199
1245 7.9856 1841(43) 1964.7310 1771.7667
1246 7.9896 1855(43) 1935.2079 1774.9132
1247 7.9936 1650(41) 1908.2122 1778.0601
1248 7.9976 1893(44) 1883.5746 1781.2069
1249 8.0016 1854(43) 1861.2515 1784.3534
1250 8.0056 1843(43) 1841.2778 1787.5002
1251 8.0096 1859(43) 1823.7372 1790.6467
1252 8.0136 1899(44) 1808.7002 1793.7932
1253 8.0176 1945(44) 1796.1960 1796.9404
1254 8.0216 1804(42) 1786.2008 1800.0869
1255 8.0256 1703(41) 1778.6097 1803.2341
1256 8.0296 1848(43) 1773.2601 1806.3805
1257 8.0336 1753(42) 1769.9307 1809.5270
1258 8.0376 1658(41) 1768.3655 1812.6735
1259 8.0416 1626(40) 1768.2916 1815.8199
1260 8.0456 1661(41) 1767.5480 1817.0779
1261 8.0496 1603(40) 1767.1367 1817.7061
1262 8.0536 1614(40) 1767.4551 1818.3339
1263 8.0576 1694(41) 1768.3027 1818.9618
1264 8.0616 1633(40) 1769.5131 1819.5897
1265 8.0656 1697(41) 1770.9529 1820.2177
1266 8.0696 1713(41) 1772.5199 1820.8457
1267 8.0736 1634(40) 1774.1370 1821.4736
1268 8.0776 1828(43) 1775.7504 1822.1017
1269 8.0816 1844(43) 1777.3223 1822.7296
1270 8.0856 1929(44) 1778.8290 1823.3574
1271 8.0896 1757(42) 1780.4746 1823.9854
1272 8.0936 1750(42) 1781.8127 1824.6133
1273 8.0976 1676(41) 1783.0618 1825.2413
1274 8.1016 1619(40) 1784.2212 1825.8693
1275 8.1056 1675(41) 1785.2928 1826.4973
1276 8.1096 1732(42) 1786.2788 1827.1252
1277 8.1136 1846(43) 1787.1816 1827.7532
1278 8.1176 1949(44) 1788.0035 1828.3810
1279 8.1216 2019(45) 1788.7468 1829.0090
1280 8.1256 1927(44) 1789.4124 1829.6370
1281 8.1296 1827(43) 1790.0012 1830.2650
1282 8.1336 1749(42) 1790.5133 1830.8929
1283 8.1376 1897(44) 1790.9487 1831.5209
1284 8.1416 1975(44) 1791.3065 1832.1488
1285 8.1456 1806(42) 1791.5859 1832.7767
1286 8.1496 1842(43) 1791.7859 1833.4048
1287 8.1536 1824(43) 1791.9050 1834.0326
1288 8.1576 2032(45) 1791.9425 1834.6606
1289 8.1616 1947(44) 1791.8977 1835.2886
1290 8.1656 2084(46) 1791.7708 1835.9165
1291 8.1696 2036(45) 1791.5627 1836.5444
1292 8.1736 1978(44) 1791.2762 1837.1724
1293 8.1776 1802(42) 1790.9159 1837.8004
1294 8.1816 1980(44) 1790.4893 1838.4285
1295 8.1856 1923(44) 1790.0079 1839.0564
1296 8.1896 1965(44) 1789.4877 1839.6842
1297 8.1936 1929(44) 1788.9513 1840.3121
1298 8.1976 1902(44) 1788.4291 1840.9401
1299 8.2016 2037(45) 1787.9608 1841.5681
1300 8.2056 1956(44) 1787.5979 1842.1960
1301 8.2096 2030(45) 1787.4036 1842.8241
1302 8.2136 1879(43) 1787.4551 1843.4520
1303 8.2176 1744(42) 1787.8423 1844.0800
1304 8.2216 1753(42) 1788.6659 1844.7078
1305 8.2256 1682(41) 1790.0341 1845.3357
1306 8.2296 1765(42) 1802.3250 1845.9637
1307 8.2336 1749(42) 1805.2200 1846.5918
1308 8.2376 1702(41) 1808.9496 1847.2197
1309 8.2416 1801(42) 1813.5638 1847.8477
1310 8.2456 1963(44) 1819.0706 1848.4756
1311 8.2496 1917(44) 1825.4292 1849.1035
1312 8.2536 1758(42) 1832.5542 1849.7316
1313 8.2576 1829(43) 1840.3188 1850.3594
1314 8.2616 1768(42) 1848.5935 1850.9875
1315 8.2656 1822(43) 1857.2687 1851.6154
1316 8.2696 1785(42) 1866.3217 1852.2433
1317 8.2736 1836(43) 1875.8656 1852.8712
1318 8.2776 1755(42) 1886.2070 1853.4991
1319 8.2816 1719(41) 1897.8896 1854.1272
1320 8.2856 1769(42) 1911.6941 1854.7551
1321 8.2896 1929(44) 1928.6277 1855.3832
1322 8.2936 1958(44) 1949.8170 1856.0110
1323 8.2976 2060(45) 1976.4060 1856.6389
1324 8.3016 1958(44) 2009.3748 1857.2668
1325 8.3056 1995(45) 2049.3789 1857.8949
1326 8.3096 2004(45) 2096.5601 1858.5228
1327 8.3136 2155(46) 2150.5269 1859.1509
1328 8.3176 2047(45) 2210.2661 1859.7788
1329 8.3216 2363(49) 2274.3137 1860.4067
1330 8.3256 2390(49) 2340.8364 1861.0347
1331 8.3296 2421(49) 2407.7593 1861.6625
1332 8.3336 2337(48) 2472.8230 1862.2905
1333 8.3376 2795(53) 2533.4968 1862.9185
1334 8.3416 2611(51) 2587.0703 1863.5465
1335 8.3456 2691(52) 2630.6392 1864.1744
1336 8.3496 2712(52) 2661.4749 1864.8024
1337 8.3536 2727(52) 2677.3760 1865.4303
1338 8.3576 2724(52) 2677.1040 1866.0581
1339 8.3616 2700(52) 2660.4204 1866.6863
1340 8.3656 2640(51) 2629.2563 1867.3143
1341 8.3696 2581(51) 2586.0801 1867.9421
1342 8.3736 2496(50) 2534.6479 1868.5701
1343 8.3776 2480(50) 2479.4141 1869.1980
1344 8.3816 2485(50) 2425.1169 1869.8259
1345 8.3856 2624(51) 2376.3542 1870.4540
1346 8.3896 2515(50) 2337.2446 1871.0819
1347 8.3936 2399(49) 2310.9585 1871.7100
1348 8.3976 2464(50) 2299.7917 1872.3379
1349 8.4016 2376(49) 2304.5864 1872.9657
1350 8.4056 2295(48) 2324.9871 1873.5936
1351 8.4096 2399(49) 2359.4753 1874.2216
1352 8.4136 2497(50) 2405.6055 1874.8496
1353 8.4176 2392(49) 2460.2561 1875.4777
1354 8.4216 2554(51) 2519.9124 1876.1056
1355 8.4256 2854(53) 2580.8821 1876.7335
1356 8.4296 2896(54) 2639.3296 1877.3615
1357 8.4336 2713(52) 2691.3298 1877.9893
1358 8.4376 2800(53) 2732.9978 1878.6173
1359 8.4416 2863(54) 2760.7292 1879.2452
1360 8.4456 2822(53) 2771.6606 1879.8733
1361 8.4496 2789(53) 2764.0242 1880.5012
1362 8.4536 2705(52) 2737.4509 1881.1292
1363 8.4576 2653(52) 2693.0310 1881.7571
1364 8.4616 2529(50) 2633.1770 1882.3850
1365 8.4656 2523(50) 2561.2932 1883.0131
1366 8.4696 2368(49) 2481.4351 1883.6409
1367 8.4736 2374(49) 2397.7495 1884.2690
1368 8.4776 2321(48) 2314.2266 1884.8969
1369 8.4816 2152(46) 2236.0769 1885.5248
1370 8.4856 2150(46) 2162.3115 1886.1527
1371 8.4896 2170(47) 2096.6113 1886.7808
1372 8.4936 2127(46) 2040.0492 1887.4087
1373 8.4976 2042(45) 1992.9160 1888.0367
1374 8.5016 1825(43) 1954.9644 1888.6647
1375 8.5056 1836(43) 1925.4806 1889.2925
1376 8.5096 1798(42) 1903.4882 1889.9204
1377 8.5136 1675(41) 1888.4363 1890.5483
1378 8.5176 1678(41) 1878.0547 1891.1764
1379 8.5216 1845(43) 1871.8403 1891.8043
1380 8.5256 1909(44) 1868.8240 1892.4324
1381 8.5296 2007(45) 1868.1812 1893.0603
1382 8.5336 1968(44) 1869.2323 1893.6882
1383 8.5376 1982(45) 1871.4408 1894.3162
1384 8.5416 1931(44) 1874.3962 1894.9440
1385 8.5456 1898(44) 1877.7972 1895.5720
1386 8.5496 1891(43) 1881.7563 1896.2001
1387 8.5536 1870(43) 1885.4651 1896.8280
1388 8.5576 1883(43) 1889.1626 1897.4559
1389 8.5616 1844(43) 1892.7919 1898.0839
1390 8.5656 1810(43) 1896.3228 1898.7118
1391 8.5696 1816(43) 1899.7443 1899.3398
1392 8.5736 1789(42) 1903.0546 1899.9678
1393 8.5776 1776(42) 1906.2621 1900.5958
1394 8.5816 1752(42) 1909.3763 1901.2236
1395 8.5856 1910(44) 1912.4113 1901.8516
1396 8.5896 1944(44) 1915.3799 1902.4795
1397 8.5936 1984(45) 1918.2950 1903.1074
1398 8.5976 1877(43) 1921.1693 1903.7355
1399 8.6016 1973(44) 1924.0127 1904.3635
1400 8.6056 1992(45) 1926.8342 1904.9915
1401 8.6096 1950(44) 1929.6426 1905.6194
1402 8.6136 1900(44) 1932.4451 1906.2472
1403 8.6176 1758(42) 1935.2477 1906.8751
1404 8.6216 1846(43) 1938.0564 1907.5032
1405 8.6256 1825(43) 1940.8741 1908.1311
1406 8.6296 1764(42) 1943.6238 1908.7592
1407 8.6336 1973(44) 1946.4697 1909.3871
1408 8.6376 1860(43) 1949.3340 1910.0150
1409 8.6416 1902(44) 1953.2365 1911.6613
1410 8.6456 1948(44) 1960.2133 1916.3610
1411 8.6496 1896(44) 1967.2128 1921.0616
1412 8.6536 1884(43) 1974.2316 1925.7612
1413 8.6576 1785(42) 1981.2720 1930.4620
1414 8.6616 2006(45) 1988.3287 1935.1616
1415 8.6656 1850(43) 1995.4010 1939.8612
1416 8.6696 1937(44) 2002.4854 1944.5608
1417 8.6736 1862(43) 2009.5775 1949.2604
1418 8.6776 2049(45) 2016.6742 1953.9612
1419 8.6816 1928(44) 2023.7673 1958.6619
1420 8.6856 1969(44) 2030.8480 1963.3615
1421 8.6896 2044(45) 2037.9105 1968.0612
1422 8.6936 2067(45) 2044.9454 1972.7607
1423 8.6976 2023(45) 2051.9436 1977.4603
1424 8.7016 2058(45) 2058.8965 1982.1610
1425 8.7056 2045(45) 2065.7908 1986.8607
1426 8.7096 2152(46) 2072.6189 1991.5614
1427 8.7136 2099(46) 2079.3677 1996.2610
1428 8.7176 2195(47) 2086.0295 2000.9606
1429 8.7216 2282(48) 2092.5967 2005.6603
1430 8.7256 2274(48) 2099.0627 2010.3599
1431 8.7296 2184(47) 2105.4263 2015.0605
1432 8.7336 2200(47) 2111.6863 2019.7614
1433 8.7376 2177(47) 2117.8459 2024.4609
1434 8.7416 2192(47) 2123.9182 2029.1605
1435 8.7456 2098(46) 2129.9209 2033.8601
1436 8.7496 2011(45) 2135.8799 2038.5598
1437 8.7536 2021(45) 2141.8330 2043.2605
1438 8.7576 2181(47) 2147.8252 2047.9601
1439 8.7616 2114(46) 2153.9204 2052.6609
1440 8.7656 2114(46) 2160.1917 2057.3604
1441 8.7696 2106(46) 2166.7349 2062.0601
1442 8.7736 2170(47) 2173.6628 2066.7598
1443 8.7776 2098(46) 2181.1116 2071.4592
1444 8.7816 2220(47) 2189.2444 2076.1599
1445 8.7856 2230(47) 2198.2505 2080.8608
1446 8.7896 2218(47) 2208.3501 2085.5603
1447 8.7936 2335(48) 2219.8066 2090.2600
1448 8.7976 2596(51) 2232.9236 2094.9595
1449 8.8016 2545(50) 2248.0542 2099.6592
1450 8.8056 2504(50) 2265.6104 2104.3599
1451 8.8096 2482(50) 2286.0520 2109.0596
1452 8.8136 2322(48) 2309.9248 2113.7603
1453 8.8176 2208(47) 2337.8232 2118.4600
1454 8.8216 2331(48) 2370.4312 2123.1594
1455 8.8256 2415(49) 2408.4978 2127.8591
1456 8.8296 2420(49) 2452.8372 2132.5586
1457 8.8336 2487(50) 2504.3296 2137.2595
1458 8.8376 2528(50) 2563.8506 2141.9590
1459 8.8416 2633(51) 2632.3379 2146.6597
1460 8.8456 2837(53) 2710.6401 2151.3594
1461 8.8496 2927(54) 2799.5854 2156.0591
1462 8.8536 3056(55) 2899.8657 2160.7585
1463 8.8576 3210(57) 3011.9946 2165.4583
1464 8.8616 3069(55) 3136.2693 2170.1589
1465 8.8656 3450(59) 3272.6030 2174.8596
1466 8.8696 3517(59) 3420.4812 2179.5593
1467 8.8736 3671(61) 3578.9360 2184.2588
1468 8.8776 3649(60) 3746.3335 2188.9585
1469 8.8816 4072(64) 3920.2812 2193.6582
1470 8.8856 4009(63) 4097.5649 2198.3589
1471 8.8896 4341(66) 4273.9126 2203.0583
1472 8.8936 4732(69) 4444.3193 2207.7593
1473 8.8976 4848(70) 4602.8950 2212.4587
1474 8.9016 4716(69) 4743.5337 2217.1584
1475 8.9056 5030(71) 4860.3311 2221.8579
1476 8.9096 4973(71) 4948.3486 2226.5576
1477 8.9136 4995(71) 5004.2666 2231.2583
1478 8.9176 5029(71) 5027.0674 2235.9590
1479 8.9216 4945(70) 5017.8896 2240.6587
1480 8.9256 4997(71) 4981.6191 2245.3584
1481 8.9296 4830(69) 4919.4883 2250.0579
1482 8.9336 4742(69) 4838.4688 2254.7576
1483 8.9376 4872(70) 4743.7979 2259.4583
1484 8.9416 4780(69) 4640.2627 2264.1580
1485 8.9456 4671(68) 4531.7676 2268.8586
1486 8.9496 4435(67) 4421.4482 2273.5581
1487 8.9536 4225(65) 4311.5405 2278.2578
1488 8.9576 4117(64) 4203.5947 2282.9575
1489 8.9616 4207(65) 4098.5830 2287.6570
1490 8.9656 3933(63) 3997.0020 2292.3577
1491 8.9696 3971(63) 3899.0664 2297.0586
1492 8.9736 3905(62) 3804.7856 2301.7581
1493 8.9776 3713(61) 3714.0352 2306.4578
1494 8.9816 3552(60) 3626.7207 2311.1572
1495 8.9856 3517(59) 3542.8162 2315.8569
1496 8.9896 3440(59) 3462.3657 2320.5576
1497 8.9936 3484(59) 3385.5498 2325.2573
1498 8.9976 3446(59) 3312.5181 2329.9580
1499 9.0016 3392(58) 3243.5017 2334.6577
1500 9.0056 3256(57) 3178.6526 2339.3572
1501 9.0096 3156(56) 3118.0950 2344.0569
1502 9.0136 3209(57) 3061.8921 2348.7563
1503 9.0176 3085(56) 3011.9846 2353.4573
1504 9.0216 2936(54) 2963.5901 2358.1567
1505 9.0256 2860(53) 2920.1543 2362.8574
1506 9.0296 2776(53) 2880.7280 2367.5571
1507 9.0336 2652(51) 2845.0918 2372.2568
1508 9.0376 2485(50) 2813.0081 2376.9563
1509 9.0416 2514(50) 2784.2229 2381.6560
1510 9.0456 2689(52) 2758.4680 2386.3567
1511 9.0496 2730(52) 2735.4893 2391.0574
1512 9.0536 2775(53) 2714.7124 2395.7571
1513 9.0576 2749(52) 2696.5344 2400.4565
1514 9.0616 2565(51) 2680.4099 2405.1562
1515 9.0656 2396(49) 2666.1323 2409.8560
1516 9.0696 2457(50) 2653.5110 2414.5566
1517 9.0736 2480(50) 2642.3845 2419.2563
1518 9.0776 2445(49) 2629.9133 2423.9570
1519 9.0816 2577(51) 2621.3047 2428.6565
1520 9.0856 2634(51) 2613.7913 2433.3562
1521 9.0896 2727(52) 2607.2710 2438.0557
1522 9.0936 2907(54) 2601.6560 2442.7554
1523 9.0976 2936(54) 2596.8665 2447.4561
1524 9.1016 2664(52) 2592.8354 2452.1567
1525 9.1056 2751(52) 2589.5029 2456.8564
1526 9.1096 2590(51) 2586.8130 2461.5562
1527 9.1136 2501(50) 2584.7175 2466.2556
1528 9.1176 2492(50) 2583.1733 2470.9553
1529 9.1216 2463(50) 2582.1406 2475.6560
1530 9.1256 2494(50) 2581.5840 2480.3557
1531 9.1296 2555(51) 2581.4702 2485.0564
1532 9.1336 2558(51) 2581.7676 2489.7559
1533 9.1376 2606(51) 2582.4475 2494.4556
1534 9.1416 2623(51) 2589.7734 2505.4482
1535 9.1456 2608(51) 2603.7173 2522.7339
1536 9.1496 2382(49) 2617.9619 2540.0237
1537 9.1536 2334(48) 2632.4739 2557.3093
1538 9.1576 2431(49) 2647.2351 2574.5991
1539 9.1616 2686(52) 2661.4995 2591.8848
1540 9.1656 2618(51) 2676.6794 2609.1704
1541 9.1696 2698(52) 2729.4810 2626.4561
1542 9.1736 2887(54) 2745.9604 2643.7456
1543 9.1776 2956(54) 2762.6746 2661.0312
1544 9.1816 2829(53) 2779.6514 2678.3210
1545 9.1856 2918(54) 2796.9104 2695.6067
1546 9.1896 2902(54) 2814.4888 2712.8923
1547 9.1936 3066(55) 2832.4177 2730.1780
1548 9.1976 3102(56) 2850.7224 2747.4636
1549 9.2016 2966(54) 2869.4182 2764.7534
1550 9.2056 2753(52) 2888.4880 2782.0391
1551 9.2096 2717(52) 2907.9116 2799.3289
1552 9.2136 2812(53) 2927.6284 2816.6145
1553 9.2176 2989(55) 2947.5747 2833.9001
1554 9.2216 2940(54) 2967.6702 2851.1858
1555 9.2256 3053(55) 2987.8269 2868.4714
1556 9.2296 2927(54) 3007.9565 2885.7612
1557 9.2336 2884(54) 3027.9536 2903.0508
1558 9.2376 2955(54) 3047.7061 2920.3364
1559 9.2416 2883(54) 3067.1057 2937.6221
1560 9.2456 2890(54) 3086.0449 2954.9077
1561 9.2496 3123(56) 3104.4363 2972.1934
1562 9.2536 3176(56) 3122.2319 2989.4832
1563 9.2576 3339(58) 3139.4189 3006.7688
1564 9.2616 3389(58) 3156.0540 3024.0586
1565 9.2656 3398(58) 3172.2246 3041.3442
1566 9.2696 3370(58) 3188.0684 3058.6299
1567 9.2736 3167(56) 3203.7417 3075.9155
1568 9.2776 3357(58) 3219.4094 3093.2012
1569 9.2816 3191(56) 3235.2329 3110.4910
1570 9.2856 3512(59) 3251.3489 3127.7808
1571 9.2896 3511(59) 3267.8687 3145.0664
1572 9.2936 3280(57) 3284.8823 3162.3521
1573 9.2976 3381(58) 3302.4478 3179.6377
1574 9.3016 3208(57) 3320.5967 3196.9233
1575 9.3056 3531(59) 3339.3438 3214.2129
1576 9.3096 3604(60) 3358.6750 3231.4985
1577 9.3136 3610(60) 3378.5847 3248.7883
1578 9.3176 3528(59) 3399.0430 3266.0740
1579 9.3216 3505(59) 3420.0352 3283.3596
1580 9.3256 3660(60) 3441.5449 3300.6453
1581 9.3296 3487(59) 3463.5630 3317.9309
1582 9.3336 3476(59) 3486.0930 3335.2207
1583 9.3376 3330(58) 3504.8386 3348.2134
1584 9.3416 3311(58) 3511.2461 3348.3350
1585 9.3456 3395(58) 3518.2102 3348.4568
1586 9.3496 3447(59) 3525.7688 3348.5784
1587 9.3536 3438(59) 3533.9685 3348.7000
1588 9.3576 3603(60) 3542.8684 3348.8218
1589 9.3616 3487(59) 3552.5305 3348.9434
1590 9.3656 3509(59) 3563.0366 3349.0652
1591 9.3696 3636(60) 3574.4690 3349.1868
1592 9.3736 3620(60) 3586.9299 3349.3086
1593 9.3776 3601(60) 3600.5293 3349.4302
1594 9.3816 3476(59) 3615.3899 3349.5520
1595 9.3856 3497(59) 3631.6492 3349.6736
1596 9.3896 3772(61) 3649.4451 3349.7954
1597 9.3936 3787(62) 3668.9404 3349.9170
1598 9.3976 3715(61) 3690.2915 3350.0388
1599 9.4016 3747(61) 3713.6763 3350.1604
1600 9.4056 3715(61) 3739.2817 3350.2820
1601 9.4096 3920(63) 3767.3186 3350.4038
1602 9.4136 3859(62) 3798.0518 3350.5254
1603 9.4176 4109(64) 3831.8335 3350.6472
1604 9.4216 4032(63) 3869.2085 3350.7688
1605 9.4256 3936(63) 3911.1040 3350.8906
1606 9.4296 4057(64) 3959.0664 3351.0122
1607 9.4336 4129(64) 4015.6521 3351.1340
1608 9.4376 4452(67) 4084.9438 3351.2556
1609 9.4416 4462(67) 4173.0747 3351.3774
1610 9.4456 4590(68) 4288.9541 3351.4990
1611 9.4496 4689(68) 4444.6245 3351.6208
1612 9.4536 4828(69) 4655.8198 3351.7424
1613 9.4576 5214(72) 4942.1265 3351.8640
1614 9.4616 5288(73) 5327.2632 3351.9858
1615 9.4656 5460(74) 5839.6250 3352.1074
1616 9.4696 5701(76) 6512.4717 3352.2292
1617 9.4736 6751(82) 7384.0557 3352.3508
1618 9.4776 7884(89) 8496.4824 3352.4727
1619 9.4816 9220(96) 9889.7988 3352.5942
1620 9.4856 11465(107) 11590.5010 3352.7161
1621 9.4896 13664(117) 13592.2031 3352.8376
1622 9.4936 16218(127) 15825.5742 3352.9595
1623 9.4976 19309(139) 18132.1992 3353.0811
1624 9.5016 21125(145) 20249.9727 3353.2029
1625 9.5056 22406(150) 21858.4551 3353.3245
1626 9.5096 23567(154) 22679.8633 3353.4460
1627 9.5136 23144(152) 22587.9492 3353.5679
1628 9.5176 21934(148) 21639.4492 3353.6895
1629 9.5216 20467(143) 20022.3926 3353.8113
1630 9.5256 17973(134) 17977.4727 3353.9329
1631 9.5296 15055(123) 15744.9541 3354.0547
1632 9.5336 12388(111) 13529.7363 3354.1763
1633 9.5376 10096(100) 11484.5469 3354.2981
1634 9.5416 8640(93) 9709.5674 3354.4197
1635 9.5456 7573(87) 8246.0703 3354.5415
1636 9.5496 6598(81) 7091.0771 3354.6631
1637 9.5536 5903(77) 6212.9551 3354.7849
1638 9.5576 5355(73) 5564.3652 3354.9065
1639 9.5616 4774(69) 5094.3462 3355.0281
1640 9.5656 4402(66) 4757.3730 3355.1499
1641 9.5696 4216(65) 4516.0278 3355.2715
1642 9.5736 4220(65) 4342.2490 3355.3933
1643 9.5776 3793(62) 4215.9609 3355.5149
1644 9.5816 3822(62) 4123.7031 3355.6367
1645 9.5856 4042(64) 4056.5825 3355.7583
1646 9.5896 3874(62) 4008.9438 3355.8801
1647 9.5936 3726(61) 3976.9243 3356.0017
1648 9.5976 3955(63) 3947.8052 3356.1235
1649 9.6016 3880(62) 3940.2400 3356.2451
1650 9.6056 3897(62) 3942.3062 3356.3667
1651 9.6096 3936(63) 3952.5906 3356.4885
1652 9.6136 3809(62) 3969.7983 3356.6101
1653 9.6176 4010(63) 3992.7720 3356.7319
1654 9.6216 4062(64) 4029.7336 3356.8535
1655 9.6256 4284(65) 4061.6270 3356.9753
1656 9.6296 4444(67) 4096.9941 3357.0969
1657 9.6336 4314(66) 4135.4268 3357.2188
1658 9.6376 4285(65) 4175.5723 3357.3403
1659 9.6416 4307(66) 4219.3545 3357.4622
1660 9.6456 4453(67) 4265.5459 3357.5837
1661 9.6496 4351(66) 4314.0317 3357.7053
1662 9.6536 4371(66) 4364.6772 3357.8271
1663 9.6576 4366(66) 4417.2734 3357.9487
1664 9.6616 4287(65) 4471.4634 3358.0706
1665 9.6656 4582(68) 4526.6113 3358.1921
1666 9.6696 4452(67) 4581.7764 3358.3140
1667 9.6736 4489(67) 4635.7354 3358.4355
1668 9.6776 4518(67) 4686.9893 3358.5574
1669 9.6816 4500(67) 4733.8662 3358.6790
1670 9.6856 4815(69) 4777.2456 3358.8008
1671 9.6896 4741(69) 4809.2021 3358.9224
1672 9.6936 4868(70) 4829.9355 3359.0439
1673 9.6976 4899(70) 4836.6816 3359.1658
1674 9.7016 4868(70) 4826.8809 3359.2874
1675 9.7056 4709(69) 4798.6714 3359.4092
1676 9.7096 4787(69) 4751.3140 3359.5308
1677 9.7136 4663(68) 4685.5210 3359.6526
1678 9.7176 4714(69) 4603.4331 3359.7742
1679 9.7216 4624(68) 4508.4688 3359.8960
1680 9.7256 4339(66) 4404.9258 3360.0176
1681 9.7296 4239(65) 4297.6221 3360.1394
1682 9.7336 4022(63) 4191.2471 3360.2610
1683 9.7376 4004(63) 4090.1360 3360.3828
1684 9.7416 3879(62) 3997.7659 3360.5044
1685 9.7456 4027(63) 3916.6558 3360.6260
1686 9.7496 3947(63) 3848.2688 3360.7478
1687 9.7536 3977(63) 3793.0459 3360.8694
1688 9.7576 3852(62) 3750.5928 3360.9912
1689 9.7616 3927(63) 3719.7761 3361.1128
1690 9.7656 3910(63) 3698.9951 3361.2346
1691 9.7696 3909(63) 3686.2842 3361.3562
1692 9.7736 3918(63) 3679.4778 3361.4780
1693 9.7776 3827(62) 3676.3181 3361.5996
1694 9.7816 3910(63) 3674.5889 3361.7214
1695 9.7856 3746(61) 3672.2659 3361.8430
1696 9.7896 3960(63) 3667.6780 3361.9648
1697 9.7936 3612(60) 3659.6306 3362.0864
1698 9.7976 3632(60) 3647.1743 3362.2080
1699 9.8016 3765(61) 3630.8281 3362.3298
1700 9.8056 3777(61) 3610.6748 3362.4514
1701 9.8096 3522(59) 3587.4885 3362.5732
1702 9.8136 3753(61) 3562.2566 3362.6948
1703 9.8176 3743(61) 3536.0874 3362.8167
1704 9.8216 3649(60) 3510.0454 3362.9382
1705 9.8256 3567(60) 3485.0811 3363.0601
1706 9.8296 3628(60) 3461.9602 3363.1816
1707 9.8336 3752(61) 3441.3103 3363.3035
1708 9.8376 3555(60) 3423.3025 3363.4250
1709 9.8416 3628(60) 3408.1509 3363.5469
1710 9.8456 3409(58) 3395.8071 3363.6685
1711 9.8496 3440(59) 3490.7700 3363.7900
1712 9.8536 3674(61) 3487.6858 3363.9119
1713 9.8576 3555(60) 3486.7610 3364.0334
1714 9.8616 3640(60) 3505.8499 3364.1553
1715 9.8656 3603(60) 3509.2310 3364.7812
1716 9.8696 3583(60) 3514.1663 3365.9111
1717 9.8736 3735(61) 3520.2903 3367.0410
1718 9.8776 3546(60) 3527.1963 3368.1709
1719 9.8816 3522(59) 3534.7126 3369.3008
1720 9.8856 3578(60) 3542.7087 3370.4309
1721 9.8896 3581(60) 3551.0823 3371.5608
1722 9.8936 3542(60) 3559.7683 3372.6909
1723 9.8976 3353(58) 3568.7168 3373.8206
1724 9.9016 3639(60) 3577.9045 3374.9504
1725 9.9056 3996(63) 3587.3196 3376.0803
1726 9.9096 3732(61) 3596.9624 3377.2102
1727 9.9136 3604(60) 3606.8435 3378.3403
1728 9.9176 3791(62) 3616.9756 3379.4705
1729 9.9216 3779(61) 3627.3484 3380.6003
1730 9.9256 3622(60) 3638.0417 3381.7302
1731 9.9296 3676(61) 3649.0544 3382.8601
1732 9.9336 3671(61) 3660.4146 3383.9900
1733 9.9376 3806(62) 3672.1550 3385.1201
1734 9.9416 3917(63) 3684.3027 3386.2500
1735 9.9456 3688(61) 3696.8708 3387.3801
1736 9.9496 3776(61) 3709.9421 3388.5098
1737 9.9536 3764(61) 3723.5322 3389.6396
1738 9.9576 3634(60) 3737.6826 3390.7695
1739 9.9616 3666(61) 3752.4370 3391.8994
1740 9.9656 3902(62) 3767.8469 3393.0295
1741 9.9696 3966(63) 3783.9604 3394.1597
1742 9.9736 3969(63) 3800.8291 3395.2896
1743 9.9776 4123(64) 3818.5176 3396.4194
1744 9.9816 3975(63) 3837.0923 3397.5493
1745 9.9856 3791(62) 3856.6267 3398.6792
1746 9.9896 3731(61) 3877.2070 3399.8093
1747 9.9936 3725(61) 3898.9131 3400.9392
1748 9.9976 3890(62) 3921.8564 3402.0693
1749 10.0016 3987(63) 3946.1396 3403.1992
1750 10.0056 4014(63) 3971.8967 3404.3289
1751 10.0096 3865(62) 3999.2744 3405.4587
1752 10.0136 3831(62) 4028.4414 3406.5886
1753 10.0176 4145(64) 4059.5986 3407.7188
1754 10.0216 4204(65) 4092.9631 3408.8489
1755 10.0256 4075(64) 4128.7856 3409.9788
1756 10.0296 4088(64) 4167.3716 3411.1086
1757 10.0336 4109(64) 4209.0659 3412.2385
1758 10.0376 4427(67) 4254.2617 3413.3684
1759 10.0416 4691(68) 4303.4189 3414.4985
1760 10.0456 4482(67) 4357.0181 3415.6284
1761 10.0496 4457(67) 4415.6475 3416.7585
1762 10.0536 4509(67) 4479.8999 3417.8884
1763 10.0576 4525(67) 4550.4648 3419.0181
1764 10.0616 4539(67) 4628.0732 3420.1479
1765 10.0656 4650(68) 4713.5078 3421.2778
1766 10.0696 4934(70) 4807.6260 3422.4080
1767 10.0736 4887(70) 4909.6851 3423.5378
1768 10.0776 5030(71) 5023.8486 3424.6680
1769 10.0816 4927(70) 5149.5537 3425.7979
1770 10.0856 5249(72) 5288.0439 3426.9277
1771 10.0896 5336(73) 5440.8154 3428.0576
1772 10.0936 5279(73) 5609.8545 3429.1875
1773 10.0976 5585(75) 5798.0703 3430.3176
1774 10.1016 5789(76) 6009.8086 3431.4478
1775 10.1056 6082(78) 6251.9404 3432.5776
1776 10.1096 6620(81) 6535.5146 3433.7075
1777 10.1136 6764(82) 6877.6572 3434.8372
1778 10.1176 6927(83) 7304.1426 3435.9670
1779 10.1216 7112(84) 7852.2715 3437.0972
1780 10.1256 7858(89) 8572.8613 3438.2271
1781 10.1296 8621(93) 9533.2598 3439.3572
1782 10.1336 9861(99) 10817.1855 3440.4871
1783 10.1376 11613(108) 12527.0410 3441.6169
1784 10.1416 13979(118) 14783.9258 3442.7468
1785 10.1456 16639(129) 17728.5039 3443.8767
1786 10.1496 21099(145) 21520.4375 3445.0068
1787 10.1536 28021(167) 26327.2461 3446.1370
1788 10.1576 34651(186) 32301.1484 3447.2668
1789 10.1616 42973(207) 39534.3047 3448.3967
1790 10.1656 50675(225) 47973.9023 3449.5264
1791 10.1696 57046(239) 57309.0469 3450.6562
1792 10.1736 63723(252) 66856.4375 3451.7864
1793 10.1776 69642(264) 75526.0781 3452.9163
1794 10.1816 74045(272) 82037.7656 3454.0464
1795 10.1856 77112(278) 85337.6562 3455.1763
1796 10.1896 78972(281) 84996.9219 3456.3062
1797 10.1936 77834(279) 81256.3125 3457.4360
1798 10.1976 71780(268) 74808.5312 3458.5659
1799 10.2016 64324(254) 66552.8203 3459.6960
1800 10.2056 56058(237) 57427.7344 3460.8262
1801 10.2096 47581(218) 48277.9766 3461.9561
1802 10.2136 39436(199) 39755.5547 3463.0859
1803 10.2176 31760(178) 32283.5625 3464.2158
1804 10.2216 25821(161) 26060.6816 3465.3455
1805 10.2256 20195(142) 21101.6328 3466.4756
1806 10.2296 16204(127) 17299.2188 3467.6055
1807 10.2336 13573(117) 14474.4824 3468.7356
1808 10.2376 11388(107) 12431.2930 3469.8655
1809 10.2416 10185(101) 10983.6738 3470.9954
1810 10.2456 9339(97) 9972.3779 3472.1252
1811 10.2496 8758(94) 9274.2520 3473.2551
1812 10.2536 8612(93) 8796.8848 3474.3853
1813 10.2576 8498(92) 8474.2168 3475.5151
1814 10.2616 7980(89) 8259.2695 3476.6453
1815 10.2656 7764(88) 8118.8867 3477.7751
1816 10.2696 7714(88) 8028.6357 3478.9050
1817 10.2736 7766(88) 7970.0947 3480.0347
1818 10.2776 7655(87) 7927.4668 3481.1646
1819 10.2816 7978(89) 7888.4443 3482.2947
1820 10.2856 7843(89) 7842.5498 3483.4248
1821 10.2896 7875(89) 7781.5303 3484.5547
1822 10.2936 7176(85) 7699.6035 3485.6846
1823 10.2976 7048(84) 7596.4028 3486.8145
1824 10.3016 7150(85) 7466.3711 3487.9443
1825 10.3056 7107(84) 7314.4214 3489.0745
1826 10.3096 7270(85) 7144.7559 3490.2043
1827 10.3136 7203(85) 6962.4785 3491.3345
1828 10.3176 6811(83) 6773.1182 3492.4644
1829 10.3216 6726(82) 6581.6758 3493.5942
1830 10.3256 6318(79) 6392.3975 3494.7241
1831 10.3296 6052(78) 6208.5547 3495.8538
1832 10.3336 6164(79) 6032.4062 3496.9839
1833 10.3376 6321(80) 5865.4512 3498.1140
1834 10.3416 5755(76) 5708.5024 3499.2439
1835 10.3456 5481(74) 5561.7949 3500.3738
1836 10.3496 5336(73) 5425.2690 3501.5037
1837 10.3536 5084(71) 5298.6582 3502.6335
1838 10.3576 5195(72) 5181.5596 3503.7637
1839 10.3616 4977(71) 5073.6108 3504.8936
1840 10.3656 4768(69) 4974.3369 3506.0237
1841 10.3696 4834(70) 4883.3799 3507.1536
1842 10.3736 4735(69) 4800.3281 3508.2834
1843 10.3776 4478(67) 4724.8096 3509.4133
1844 10.3816 4676(68) 4656.4492 3510.5430
1845 10.3856 4603(68) 4595.5439 3511.6731
1846 10.3896 4627(68) 4540.2891 3512.8030
1847 10.3936 4755(69) 4490.8984 3513.9331
1848 10.3976 4779(69) 4446.8823 3515.0630
1849 10.4016 4509(67) 4407.6704 3516.1929
1850 10.4056 4370(66) 4372.6816 3517.3228
1851 10.4096 4367(66) 4341.3179 3518.4529
1852 10.4136 4515(67) 4313.0132 3519.5828
1853 10.4176 4589(68) 4287.1865 3520.7129
1854 10.4216 4340(66) 4263.2988 3521.8428
1855 10.4256 4404(66) 4240.8013 3522.9727
1856 10.4296 4338(66) 4219.1636 3524.1025
1857 10.4336 4510(67) 4197.8906 3525.2324
1858 10.4376 4324(66) 4175.6079 3526.3623
1859 10.4416 4217(65) 4153.8906 3527.4922
1860 10.4456 4179(65) 4131.6367 3528.6223
1861 10.4496 4308(66) 4108.8657 3529.7522
1862 10.4536 4241(65) 4085.7397 3530.8821
1863 10.4576 3897(62) 4062.5535 3532.0120
1864 10.4616 4044(64) 4108.1846 3533.1418
1865 10.4656 4013(63) 4087.7209 3534.2720
1866 10.4696 3854(62) 4068.4187 3535.4021
1867 10.4736 4033(64) 4050.5989 3536.5320
1868 10.4776 3792(62) 4034.4822 3537.6619
1869 10.4816 3847(62) 4020.1921 3538.7917
1870 10.4856 3944(63) 4007.7505 3539.9216
1871 10.4896 3904(62) 3997.0823 3541.0518
1872 10.4936 3874(62) 3988.0332 3542.1814
1873 10.4976 3882(62) 3980.3633 3543.3115
1874 10.5016 3843(62) 3973.7754 3544.4414
1875 10.5056 3987(63) 3967.9221 3545.5713
1876 10.5096 3897(62) 3962.4441 3546.7012
1877 10.5136 3777(61) 3957.0073 3547.8311
1878 10.5176 3657(60) 3814.6389 3548.9612
1879 10.5216 3523(59) 3801.5776 3539.9260
1880 10.5256 3682(61) 3787.9316 3530.8928
1881 10.5296 3845(62) 3755.7644 3521.8596
1882 10.5336 4051(64) 3741.5718 3512.8267
1883 10.5376 3990(63) 3727.1421 3503.7935
1884 10.5416 4007(63) 3712.7046 3494.7583
1885 10.5456 3938(63) 3698.5068 3485.7251
1886 10.5496 3736(61) 3684.7661 3476.6899
1887 10.5536 4028(63) 3671.6772 3467.6567
1888 10.5576 4020(63) 3659.3831 3458.6238
1889 10.5616 4176(65) 3647.9854 3449.5906
1890 10.5656 4034(64) 3637.5493 3440.5576
1891 10.5696 4135(64) 3628.1106 3431.5222
1892 10.5736 3825(62) 3619.6973 3422.4893
1893 10.5776 3822(62) 3612.3230 3413.4539
1894 10.5816 3919(63) 3606.0154 3404.4209
1895 10.5856 3992(63) 3600.8069 3395.3877
1896 10.5896 3793(62) 3596.7515 3386.3547
1897 10.5936 3996(63) 3593.9211 3377.3193
1898 10.5976 4251(65) 3592.4104 3368.2864
1899 10.6016 4345(66) 3592.3245 3359.2510
1900 10.6056 4311(66) 3593.7783 3350.2180
1901 10.6096 4289(65) 3596.8843 3341.1848
1902 10.6136 4132(64) 3601.7480 3332.1516
1903 10.6176 4103(64) 3608.4629 3323.1187
1904 10.6216 4022(63) 3617.1133 3314.0835
1905 10.6256 4029(63) 3627.7739 3305.0503
1906 10.6296 3833(62) 3640.5405 3296.0151
1907 10.6336 3719(61) 3655.5283 3286.9819
1908 10.6376 3604(60) 3672.9177 3277.9487
1909 10.6416 3738(61) 3692.9668 3268.9158
1910 10.6456 3543(60) 3717.2476 3261.0991
1911 10.6496 3699(61) 3746.2300 3254.4976
1912 10.6536 3688(61) 3779.2517 3247.8958
1913 10.6576 3750(61) 3814.1333 3241.2957
1914 10.6616 3797(62) 3857.1733 3234.6956
1915 10.6656 3851(62) 3906.1265 3228.0955
1916 10.6696 3906(62) 3961.4702 3221.4954
1917 10.6736 3942(63) 4023.5037 3214.8938
1918 10.6776 3818(62) 4092.2366 3208.2937
1919 10.6816 3908(63) 4167.4814 3201.6921
1920 10.6856 4118(64) 4248.7471 3195.0920
1921 10.6896 4258(65) 4335.4248 3188.4919
1922 10.6936 4135(64) 4426.8018 3181.8918
1923 10.6976 4145(64) 4522.1631 3175.2917
1924 10.7016 4238(65) 4620.8960 3168.6899
1925 10.7056 4403(66) 4722.5410 3162.0884
1926 10.7096 4473(67) 4827.0703 3155.4883
1927 10.7136 4742(69) 4935.4224 3148.8882
1928 10.7176 4794(69) 5050.0967 3142.2881
1929 10.7216 4843(70) 5176.9961 3135.6880
1930 10.7256 5094(71) 5326.0771 3129.0864
1931 10.7296 5283(73) 5513.4673 3122.4863
1932 10.7336 5655(75) 5763.1362 3115.8845
1933 10.7376 5836(76) 6107.6523 3109.2844
1934 10.7416 6258(79) 6589.1475 3102.6846
1935 10.7456 6549(81) 7259.1753 3096.0845
1936 10.7496 7187(85) 8178.5430 3089.4844
1937 10.7536 8567(93) 9417.1904 3082.8826
1938 10.7576 10681(103) 11051.5205 3076.2825
1939 10.7616 13300(115) 13162.2363 3069.6809
1940 10.7656 16433(128) 15819.9287 3063.0808
1941 10.7696 19528(140) 19065.5625 3056.4807
1942 10.7736 23622(154) 22869.8848 3049.8806
1943 10.7776 27400(166) 27081.4375 3043.2791
1944 10.7816 30836(176) 31357.2305 3036.6790
1945 10.7856 33651(183) 35165.0898 3030.0771
1946 10.7896 35510(188) 37868.3516 3023.4771
1947 10.7936 37769(194) 38960.5234 3016.8770
1948 10.7976 37993(195) 38273.5820 3010.2769
1949 10.8016 36953(192) 36006.4805 3003.6768
1950 10.8056 33654(183) 32584.9922 2997.0752
1951 10.8096 29896(173) 28505.1562 2990.4751
1952 10.8136 24466(156) 24224.7656 2983.8735
1953 10.8176 20172(142) 20117.8848 2977.2734
1954 10.8216 16068(127) 16442.9980 2970.6733
1955 10.8256 12855(113) 13342.4092 2964.0732
1956 10.8296 10492(102) 10854.7061 2957.4731
1957 10.8336 8040(90) 8941.0225 2950.8713
1958 10.8376 6876(83) 7517.9795 2944.2698
1959 10.8416 6265(79) 6484.6748 2937.6697
1960 10.8456 5662(75) 5743.1387 2931.0696
1961 10.8496 5172(72) 5213.0757 2924.4695
1962 10.8536 4886(70) 4825.7852 2917.8694
1963 10.8576 4585(68) 4537.4229 2911.2678
1964 10.8616 4355(66) 4315.7012 2904.6677
1965 10.8656 4132(64) 4141.0200 2898.0659
1966 10.8696 4053(64) 3999.0413 2891.4658
1967 10.8736 3744(61) 3880.8076 2884.8657
1968 10.8776 3673(61) 3780.4114 2878.2656
1969 10.8816 3615(60) 3694.8840 2871.6658
1970 10.8856 3465(59) 3618.4626 2865.0640
1971 10.8896 3547(60) 3551.6079 2858.4624
1972 10.8936 3477(59) 3492.0171 2851.8623
1973 10.8976 3322(58) 3438.4436 2845.2622
1974 10.9016 3300(57) 3389.9209 2838.6621
1975 10.9056 3206(57) 3345.6804 2832.0620
1976 10.9096 3129(56) 3305.0962 2825.4604
1977 10.9136 3205(57) 3267.6885 2818.8604
1978 10.9176 3200(57) 3233.0320 2812.2585
1979 10.9216 3259(57) 3200.8096 2805.6584
1980 10.9256 3308(58) 3170.7378 2799.0583
1981 10.9296 3230(57) 3142.5889 2792.4583
1982 10.9336 3284(57) 3116.1763 2785.8582
1983 10.9376 2889(54) 3091.3406 2779.2566
1984 10.9416 3048(55) 3067.9695 2772.6565
1985 10.9456 3114(56) 3045.9539 2766.0549
1986 10.9496 3060(55) 3025.1521 2759.4548
1987 10.9536 3068(55) 3005.6553 2752.8547
1988 10.9576 2897(54) 2987.3491 2746.2546
1989 10.9616 2895(54) 2971.1521 2740.5972
1990 10.9656 2895(54) 2958.9346 2737.7688
1991 10.9696 2941(54) 2947.8618 2734.9402
1992 10.9736 2811(53) 2928.8738 2732.1125
1993 10.9776 2619(51) 2920.1797 2729.2847
1994 10.9816 2640(51) 2912.6030 2726.4570
1995 10.9856 2856(53) 2906.1233 2723.6292
1996 10.9896 2870(54) 2900.7131 2720.8008
1997 10.9936 2856(53) 2896.3430 2717.9731
1998 10.9976 3122(56) 2892.9797 2715.1445
1999 11.0016 2995(55) 2890.6045 2712.3169
2000 11.0056 3006(55) 2889.2146 2709.4890
2001 11.0096 3114(56) 2888.8418 2706.6614
2002 11.0136 2962(54) 2889.5583 2703.8330
2003 11.0176 3081(56) 2891.4851 2701.0051
2004 11.0216 3048(55) 2894.7917 2698.1775
2005 11.0256 3155(56) 2899.6855 2695.3489
2006 11.0296 3074(55) 2906.3901 2692.5212
2007 11.0336 3047(55) 2915.1182 2689.6934
2008 11.0376 2781(53) 2926.0339 2686.8650
2009 11.0416 2955(54) 2939.2026 2684.0374
2010 11.0456 3038(55) 2954.5701 2681.2095
2011 11.0496 3240(57) 2972.2336 2678.3818
2012 11.0536 3440(59) 2991.2327 2675.5532
2013 11.0576 3266(57) 3011.3738 2672.7256
2014 11.0616 3371(58) 3032.0710 2669.8977
2015 11.0656 3462(59) 3052.6780 2667.0693
2016 11.0696 3503(59) 3072.4954 2664.2417
2017 11.0736 3329(58) 3090.8018 2661.4138
2018 11.0776 3329(58) 3106.8186 2658.5854
2019 11.0816 3608(60) 3119.6838 2655.7576
2020 11.0856 3511(59) 3128.4915 2652.9299
2021 11.0896 3507(59) 3132.3398 2650.1021
2022 11.0936 3412(58) 3130.4431 2647.2737
2023 11.0976 3199(57) 3122.2571 2644.4460
2024 11.1016 3063(55) 3107.5791 2641.6182
2025 11.1056 2755(52) 3086.5986 2638.7898
2026 11.1096 2642(51) 3059.9141 2635.9619
2027 11.1136 2854(53) 3028.4482 2633.1343
2028 11.1176 2697(52) 2993.3638 2630.3059
2029 11.1216 2840(53) 2889.1223 2627.4780
2030 11.1256 2782(53) 2852.5242 2624.6504
2031 11.1296 2602(51) 2815.9243 2621.8218
2032 11.1336 2890(54) 2780.6230 2618.9941
2033 11.1376 2865(54) 2747.4856 2616.1663
2034 11.1416 2747(52) 2717.1501 2613.3386
2035 11.1456 2812(53) 2690.0115 2610.5103
2036 11.1496 2847(53) 2666.2629 2607.6824
2037 11.1536 2795(53) 2645.8906 2604.8547
2038 11.1576 2684(52) 2628.7334 2602.0261
2039 11.1616 2579(51) 2614.5349 2599.1985
2040 11.1656 2574(51) 2602.9568 2596.3706
2041 11.1696 2568(51) 2593.6301 2593.5422
2042 11.1736 2431(49) 2586.1873 2590.7146
2043 11.1776 2692(52) 2580.2954 2587.8867
2044 11.1816 2740(52) 2575.5747 2585.0591
2045 11.1856 2715(52) 2571.7637 2582.2305
2046 11.1896 2750(52) 2568.6199 2579.4028
2047 11.1936 2810(53) 2565.9390 2576.5752
2048 11.1976 2721(52) 2563.5581 2573.7466
2049 11.2016 2656(52) 2561.3792 2570.9189
2050 11.2056 2634(51) 2559.2561 2568.0911
2051 11.2096 2449(49) 2557.1516 2565.2627
2052 11.2136 2610(51) 2555.0281 2562.4351
2053 11.2176 2800(53) 2552.8706 2559.6072
2054 11.2216 2818(53) 2550.6860 2556.7788
2055 11.2256 2480(50) 2548.5029 2553.9509
2056 11.2296 2515(50) 2544.4880 2549.2415
2057 11.2336 2468(50) 2538.7112 2542.6504
2058 11.2376 2364(49) 2533.1440 2536.0574
2059 11.2416 2288(48) 2527.1750 2529.4663
2060 11.2456 2488(50) 2522.3904 2522.8750
2061 11.2496 2370(49) 2518.2317 2516.2822
2062 11.2536 2652(51) 2514.8872 2509.6909
2063 11.2576 2522(50) 2512.5681 2503.0999
2064 11.2616 2446(49) 2511.5073 2496.5071
2065 11.2656 2444(49) 2511.9607 2489.9158
2066 11.2696 2429(49) 2514.2002 2483.3245
2067 11.2736 2461(50) 2518.5125 2476.7334
2068 11.2776 2423(49) 2525.1919 2470.1406
2069 11.2816 2316(48) 2534.5283 2463.5493
2070 11.2856 2423(49) 2546.8042 2456.9580
2071 11.2896 2566(51) 2562.2786 2450.3652
2072 11.2936 2623(51) 2581.1487 2443.7742
2073 11.2976 2561(51) 2603.5405 2437.1829
2074 11.3016 2604(51) 2629.4553 2430.5901
2075 11.3056 2832(53) 2658.6760 2423.9988
2076 11.3096 2757(53) 2690.7156 2417.4077
2077 11.3136 2564(51) 2724.6816 2410.8149
2078 11.3176 2832(53) 2759.1255 2404.2236
2079 11.3216 2788(53) 2791.9917 2397.6323
2080 11.3256 2688(52) 2820.5920 2391.0413
2081 11.3296 2672(52) 2841.8267 2384.4485
2082 11.3336 2427(49) 2852.6699 2377.8572
2083 11.3376 2441(49) 2852.5337 2371.2659
2084 11.3416 2584(51) 2837.7058 2364.6731
2085 11.3456 2545(50) 2811.2480 2358.0820
2086 11.3496 2576(51) 2776.3306 2351.4907
2087 11.3536 2476(50) 2736.9348 2344.8979
2088 11.3576 2505(50) 2696.8489 2338.3066
2089 11.3616 2465(50) 2658.8743 2331.7156
2090 11.3656 2593(51) 2624.6145 2325.1243
2091 11.3696 2537(50) 2594.5942 2318.5315
2092 11.3736 2574(51) 2568.5996 2311.9402
2093 11.3776 2466(50) 2545.9626 2305.3491
2094 11.3816 2416(49) 2525.8484 2298.7563
2095 11.3856 2377(49) 2507.4468 2292.1650
2096 11.3896 2384(49) 2490.0537 2285.5737
2097 11.3936 2382(49) 2473.1387 2278.9810
2098 11.3976 2405(49) 2456.3740 2272.3899
2099 11.4016 2239(47) 2439.5984 2265.7986
2100 11.4056 2296(48) 2422.8052 2259.2058
2101 11.4096 2223(47) 2406.1177 2252.6145
2102 11.4136 2260(48) 2389.7312 2246.0234
2103 11.4176 2195(47) 2373.8909 2239.4321
2104 11.4216 2052(45) 2363.9304 2237.9150
2105 11.4256 2189(47) 2355.0347 2236.3984
2106 11.4296 2329(48) 2347.4292 2234.8816
2107 11.4336 2438(49) 2341.3086 2233.3645
2108 11.4376 2324(48) 2336.8350 2231.8479
2109 11.4416 2205(47) 2334.1345 2230.3313
2110 11.4456 2240(47) 2333.3132 2228.8142
2111 11.4496 2430(49) 2334.4663 2227.2974
2112 11.4536 2438(49) 2337.6897 2225.7808
2113 11.4576 2453(50) 2343.0898 2224.2642
2114 11.4616 2487(50) 2350.7898 2222.7471
2115 11.4656 2221(47) 2360.9202 2221.2302
2116 11.4696 2286(48) 2373.6213 2219.7136
2117 11.4736 2346(48) 2389.0217 2218.1965
2118 11.4776 2509(50) 2407.2048 2216.6799
2119 11.4816 2700(52) 2428.2056 2215.1631
2120 11.4856 2578(51) 2451.9814 2213.6460
2121 11.4896 2524(50) 2478.3765 2212.1294
2122 11.4936 2759(53) 2507.1458 2210.6125
2123 11.4976 2626(51) 2537.9414 2209.0957
2124 11.5016 2706(52) 2570.2856 2207.5789
2125 11.5056 2746(52) 2603.6123 2206.0623
2126 11.5096 2872(54) 2637.2241 2204.5454
2127 11.5136 2997(55) 2670.2925 2203.0283
2128 11.5176 3070(55) 2701.8247 2201.5117
2129 11.5216 2944(54) 2730.7383 2199.9951
2130 11.5256 2940(54) 2755.8987 2198.4780
2131 11.5296 3034(55) 2776.1926 2196.9612
2132 11.5336 3288(57) 2790.6555 2195.4446
2133 11.5376 3324(58) 2798.5142 2193.9275
2134 11.5416 3149(56) 2799.2271 2192.4109
2135 11.5456 3233(57) 2792.5120 2190.8940
2136 11.5496 3011(55) 2778.3462 2189.3774
2137 11.5536 2882(54) 2756.9741 2187.8604
2138 11.5576 2653(52) 2728.9346 2186.3438
2139 11.5616 2590(51) 2695.0232 2184.8269
2140 11.5656 2653(52) 2656.2700 2183.3098
2141 11.5696 2602(51) 2613.9143 2181.7932
2142 11.5736 2746(52) 2569.2715 2180.2764
2143 11.5776 2633(51) 2523.6743 2178.7595
2144 11.5816 2686(52) 2478.4214 2177.2427
2145 11.5856 2733(52) 2434.6428 2175.7261
2146 11.5896 2656(52) 2393.2798 2174.2090
2147 11.5936 2516(50) 2355.0813 2172.6921
2148 11.5976 2362(49) 2320.5320 2171.1755
2149 11.6016 2229(47) 2289.8950 2169.6589
2150 11.6056 2458(50) 2263.2146 2168.1418
2151 11.6096 2516(50) 2240.3701 2166.6250
2152 11.6136 2219(47) 2221.0764 2165.1084
2153 11.6176 2247(47) 2204.9490 2163.5913
2154 11.6216 2311(48) 2191.5586 2162.0747
2155 11.6256 2386(49) 2180.4492 2160.5579
2156 11.6296 2384(49) 2171.1875 2159.0408
2157 11.6336 2289(48) 2163.3911 2157.5242
2158 11.6376 2218(47) 2156.7300 2156.0076
2159 11.6416 2400(49) 2150.9417 2154.4907
2160 11.6456 2239(47) 2145.8250 2152.9736
2161 11.6496 2274(48) 2141.2368 2151.4570
2162 11.6536 2154(46) 2137.0762 2149.9402
2163 11.6576 2045(45) 2132.8877 2148.4233
2164 11.6616 1953(44) 2129.4041 2146.9065
2165 11.6656 2071(46) 2126.2124 2145.3899
2166 11.6696 2138(46) 2123.2917 2143.8728
2167 11.6736 2103(46) 2120.6255 2142.3560
2168 11.6776 2104(46) 2118.1943 2140.8394
2169 11.6816 2070(45) 2115.9766 2139.3223
2170 11.6856 2141(46) 2113.9495 2137.8057
2171 11.6896 2027(45) 2112.0864 2136.2888
2172 11.6936 1905(44) 2110.3608 2134.7722
2173 11.6976 2051(45) 2108.7451 2133.2551
2174 11.7016 2282(48) 2107.2146 2131.7385
2175 11.7056 2206(47) 2105.7444 2130.2217
2176 11.7096 2063(45) 2104.3132 2128.7046
2177 11.7136 2094(46) 2102.9041 2127.1880
2178 11.7176 2000(45) 2102.4333 2125.6714
2179 11.7216 2138(46) 2101.0129 2124.1543
2180 11.7256 2098(46) 2099.5786 2122.6375
2181 11.7296 2031(45) 2098.1250 2121.1208
2182 11.7336 2058(45) 2096.6482 2119.6040
2183 11.7376 2049(45) 2095.1482 2118.0872
2184 11.7416 1935(44) 2093.4824 2116.4253
2185 11.7456 1858(43) 2091.3657 2114.3286
2186 11.7496 1889(43) 2089.2400 2112.2312
2187 11.7536 1731(42) 2087.1177 2110.1345
2188 11.7576 1953(44) 2085.0125 2108.0378
2189 11.7616 2113(46) 2082.9414 2105.9404
2190 11.7656 2095(46) 2080.9285 2103.8438
2191 11.7696 2118(46) 2078.9993 2101.7471
2192 11.7736 2205(47) 2077.1843 2099.6497
2193 11.7776 2202(47) 2075.5203 2097.5530
2194 11.7816 2133(46) 2074.0454 2095.4561
2195 11.7856 2183(47) 2072.8027 2093.3594
2196 11.7896 2153(46) 2071.8354 2091.2622
2197 11.7936 1939(44) 2071.1885 2089.1653
2198 11.7976 1907(44) 2070.9038 2087.0686
2199 11.8016 1996(45) 2071.0198 2084.9714
2200 11.8056 1970(44) 2071.5688 2082.8745
2201 11.8096 1897(44) 2072.5774 2080.7778
2202 11.8136 1947(44) 2074.0637 2078.6807
2203 11.8176 1948(44) 2076.0400 2076.5837
2204 11.8216 2180(47) 2078.5156 2074.4871
2205 11.8256 2084(46) 2081.4927 2072.3904
2206 11.8296 2021(45) 2085.0039 2070.2930
2207 11.8336 1967(44) 2089.0703 2068.1963
2208 11.8376 2045(45) 2093.7419 2066.0996
2209 11.8416 2050(45) 2096.7629 2064.0022
2210 11.8456 2144(46) 2102.9270 2061.9055
2211 11.8496 2072(46) 2109.9893 2059.8088
2212 11.8536 1946(44) 2118.0862 2057.7114
2213 11.8576 2007(45) 2127.3491 2055.6147
2214 11.8616 2124(46) 2137.8921 2053.5181
2215 11.8656 2004(45) 2149.7839 2051.4211
2216 11.8696 1991(45) 2163.0300 2049.3240
2217 11.8736 2068(45) 2177.5408 2047.2272
2218 11.8776 2044(45) 2193.1418 2045.1305
2219 11.8816 2096(46) 2209.5698 2043.0332
2220 11.8856 2183(47) 2226.4736 2040.9364
2221 11.8896 2212(47) 2243.4614 2038.8397
2222 11.8936 2327(48) 2260.1113 2036.7424
2223 11.8976 2298(48) 2275.9697 2034.6456
2224 11.9016 2436(49) 2290.5747 2032.5490
2225 11.9056 2246(47) 2303.4253 2030.4517
2226 11.9096 2220(47) 2313.9631 2028.3549
2227 11.9136 2280(48) 2321.5991 2026.2582
2228 11.9176 2376(49) 2325.7373 2024.1614
2229 11.9216 2468(50) 2325.8479 2022.0641
2230 11.9256 2172(47) 2321.5427 2019.9673
2231 11.9296 2372(49) 2312.6472 2017.8706
2232 11.9336 2269(48) 2299.0508 2015.7733
2233 11.9376 2363(49) 2281.4651 2013.6765
2234 11.9416 2371(49) 2260.2754 2011.5798
2235 11.9456 2305(48) 2236.2246 2009.4825
2236 11.9496 2134(46) 2210.1851 2007.3857
2237 11.9536 2131(46) 2183.0510 2005.2891
2238 11.9576 2208(47) 2155.6941 2003.1923
2239 11.9616 2112(46) 2128.8965 2001.0950
2240 11.9656 2207(47) 2103.3367 1998.9983
2241 11.9696 2024(45) 2079.5254 1996.9015
2242 11.9736 2026(45) 2057.8198 1994.8042
2243 11.9776 2212(47) 2038.4410 1992.7075
2244 11.9816 2022(45) 2021.4580 1990.6107
2245 11.9856 1978(44) 2006.8281 1988.5134
2246 11.9896 2039(45) 1994.4303 1986.4167
2247 11.9936 2020(45) 1984.0692 1984.3199
2248 11.9976 2060(45) 1975.5135 1982.2227
2249 12.0016 2118(46) 1968.5201 1980.1260
2250 12.0056 2074(46) 1962.8389 1978.0292
2251 12.0096 2017(45) 1958.2340 1975.9324
2252 12.0136 2052(45) 1954.4901 1973.8352
2253 12.0176 2074(46) 1951.5717 1971.7384
2254 12.0216 2131(46) 1949.0098 1969.6416
2255 12.0256 2074(46) 1946.8240 1967.5444
2256 12.0296 2067(45) 1944.9061 1965.4476
2257 12.0336 1968(44) 1943.1702 1963.3508
2258 12.0376 1982(45) 1941.5494 1961.2535
2259 12.0416 2094(46) 1939.9952 1959.1569
2260 12.0456 1985(45) 1938.4707 1957.0601
2261 12.0496 2009(45) 1936.9502 1954.9634
2262 12.0536 2003(45) 1935.4158 1952.8661
2263 12.0576 1977(44) 1933.5953 1950.7693
2264 12.0616 1780(42) 1930.8118 1948.6725
2265 12.0656 1852(43) 1929.0725 1946.5753
2266 12.0696 1798(42) 1927.3923 1944.4785
2267 12.0736 2006(45) 1925.6759 1942.3817
2268 12.0776 2018(45) 1923.9241 1940.2845
2269 12.0816 1880(43) 1922.1390 1938.1877
2270 12.0856 1739(42) 1920.3225 1936.0909
2271 12.0896 1533(39) 1918.4761 1933.9938
2272 12.0936 1709(41) 1916.6023 1931.8970
2273 12.0976 1812(43) 1914.7026 1929.8002
2274 12.1016 1893(44) 1915.1250 1930.6603
2275 12.1056 2115(46) 1919.0856 1934.4781
2276 12.1096 1976(44) 1923.0233 1938.2952
2277 12.1136 1907(44) 1926.9399 1942.1121
2278 12.1176 1921(44) 1930.8372 1945.9299
2279 12.1216 2000(45) 1934.7140 1949.7469
2280 12.1256 1965(44) 1938.5714 1953.5638
2281 12.1296 2083(46) 1942.4111 1957.3817
2282 12.1336 2026(45) 1946.2316 1961.1986
2283 12.1376 2013(45) 1950.0341 1965.0156
2284 12.1416 1901(44) 1953.8190 1968.8325
2285 12.1456 1802(42) 1957.5876 1972.6504
2286 12.1496 1712(41) 1961.3392 1976.4674
2287 12.1536 1779(42) 1965.0751 1980.2843
2288 12.1576 2012(45) 1968.7977 1984.1022
2289 12.1616 1971(44) 1972.5070 1987.9192
2290 12.1656 1907(44) 1976.2030 1991.7361
2291 12.1696 1964(44) 1980.6393 1995.5540
2292 12.1736 1890(43) 1984.3186 1999.3710
2293 12.1776 1922(44) 1987.9999 2003.1879
2294 12.1816 1882(43) 1991.6907 2007.0057
2295 12.1856 2002(45) 1995.3972 2010.8228
2296 12.1896 1983(45) 1999.1305 2014.6396
2297 12.1936 1904(44) 2003.6227 2018.4565
2298 12.1976 1958(44) 2007.4404 2022.2744
2299 12.2016 1945(44) 2011.3271 2026.0914
2300 12.2056 1954(44) 2015.3026 2029.9083
2301 12.2096 1894(44) 2019.3884 2033.7262
2302 12.2136 2012(45) 2023.6046 2037.5432
2303 12.2176 2077(46) 2027.9747 2041.3601
2304 12.2216 2035(45) 2032.5228 2045.1780
2305 12.2256 2087(46) 2037.2473 2048.9949
2306 12.2296 2254(47) 2042.2102 2052.8120
2307 12.2336 2438(49) 2047.4075 2056.6289
2308 12.2376 2406(49) 2052.8540 2060.4468
2309 12.2416 2131(46) 2058.5574 2064.2637
2310 12.2456 1976(44) 2064.5264 2068.0806
2311 12.2496 2116(46) 2070.7688 2071.8984
2312 12.2536 2343(48) 2077.2883 2075.7153
2313 12.2576 2176(47) 2084.0977 2079.5325
2314 12.2616 2111(46) 2091.2896 2083.3503
2315 12.2656 2078(46) 2098.7366 2087.1672
2316 12.2696 2219(47) 2106.5525 2090.9841
2317 12.2736 2060(45) 2114.7878 2094.8020
2318 12.2776 2190(47) 2123.4954 2098.6189
2319 12.2816 2145(46) 2132.7388 2102.4360
2320 12.2856 2012(45) 2142.5764 2106.2529
2321 12.2896 2193(47) 2153.0574 2110.0708
2322 12.2936 2285(48) 2164.2004 2113.8877
2323 12.2976 2251(47) 2175.9980 2117.7046
2324 12.3016 2168(47) 2188.4031 2121.5225
2325 12.3056 2052(45) 2201.3145 2125.3394
2326 12.3096 2138(46) 2214.5984 2129.1565
2327 12.3136 2386(49) 2228.0867 2132.9744
2328 12.3176 2489(50) 2241.5779 2136.7913
2329 12.3216 2558(51) 2254.8677 2140.6082
2330 12.3256 2412(49) 2267.7397 2144.4250
2331 12.3296 2410(49) 2279.9722 2148.2429
2332 12.3336 2168(47) 2291.3169 2152.0601
2333 12.3376 2183(47) 2301.5100 2155.8770
2334 12.3416 2292(48) 2310.2661 2159.6948
2335 12.3456 2316(48) 2317.2886 2163.5117
2336 12.3496 2103(46) 2322.3118 2167.3286
2337 12.3536 2182(47) 2325.1318 2171.1465
2338 12.3576 2408(49) 2325.6399 2174.9634
2339 12.3616 2334(48) 2323.8496 2178.7805
2340 12.3656 2273(48) 2319.8992 2182.5984
2341 12.3696 2228(47) 2314.0476 2186.4153
2342 12.3736 2134(46) 2306.6450 2190.2322
2343 12.3776 2018(45) 2298.1062 2194.0493
2344 12.3816 2133(46) 2288.8716 2197.8669
2345 12.3856 2096(46) 2279.3862 2201.6841
2346 12.3896 2080(46) 2270.0547 2205.5010
2347 12.3936 2016(45) 2261.2283 2209.3188
2348 12.3976 2110(46) 2253.1963 2213.1357
2349 12.4016 2156(46) 2246.1665 2216.9526
2350 12.4056 2236(47) 2240.2725 2220.7705
2351 12.4096 2247(47) 2235.5823 2224.5874
2352 12.4136 2185(47) 2232.0991 2228.4045
2353 12.4176 2199(47) 2229.7778 2232.2214
2354 12.4216 2101(46) 2228.5378 2236.0393
2355 12.4256 2055(45) 2228.2737 2239.8562
2356 12.4296 2144(46) 2228.8660 2243.6733
2357 12.4336 2251(47) 2230.0771 2247.4912
2358 12.4376 2377(49) 2232.0122 2251.3081
2359 12.4416 2294(48) 2234.4468 2255.1250
2360 12.4456 2253(47) 2237.2803 2258.9429
2361 12.4496 2125(46) 2240.4238 2262.7598
2362 12.4536 2186(47) 2243.8047 2266.5767
2363 12.4576 2360(49) 2247.3635 2270.3945
2364 12.4616 2468(50) 2251.0515 2274.2117
2365 12.4656 2486(50) 2254.8323 2278.0286
2366 12.4696 2414(49) 2258.6790 2281.8455
2367 12.4736 2325(48) 2262.5732 2285.6633
2368 12.4776 2317(48) 2266.5000 2289.4802
2369 12.4816 2277(48) 2270.4529 2293.2974
2370 12.4856 2271(48) 2274.3975 2297.1152
2371 12.4896 2245(47) 2278.3921 2300.9321
2372 12.4936 2122(46) 2282.4092 2304.7490
2373 12.4976 2253(47) 2286.4536 2308.5669
2374 12.5016 2394(49) 2290.5278 2312.3838
2375 12.5056 2288(48) 2294.6377 2316.2007
2376 12.5096 2289(48) 2298.7876 2320.0178
2377 12.5136 2496(50) 2302.9810 2323.8357
2378 12.5176 2535(50) 2307.2173 2327.6526
2379 12.5216 2481(50) 2311.4976 2331.4695
2380 12.5256 2494(50) 2315.8220 2335.2874
2381 12.5296 2497(50) 2320.0996 2339.1042
2382 12.5336 2628(51) 2324.5095 2342.9214
2383 12.5376 2561(51) 2328.9692 2346.7393
2384 12.5416 2438(49) 2333.4851 2350.5562
2385 12.5456 2407(49) 2338.0725 2354.3730
2386 12.5496 2586(51) 2342.7524 2358.1909
2387 12.5536 2409(49) 2347.5481 2362.0078
2388 12.5576 2338(48) 2352.4917 2365.8247
2389 12.5616 2356(49) 2357.6174 2369.6418
2390 12.5656 2316(48) 2362.9617 2373.4597
2391 12.5696 2327(48) 2369.2769 2377.2766
2392 12.5736 2306(48) 2375.1370 2381.0935
2393 12.5776 2354(49) 2381.2891 2384.9114
2394 12.5816 2409(49) 2387.7307 2388.7283
2395 12.5856 2518(50) 2394.3127 2392.5454
2396 12.5896 2588(51) 2401.2734 2396.3633
2397 12.5936 2589(51) 2408.4309 2400.1802
2398 12.5976 2408(49) 2415.7334 2403.9971
2399 12.6016 2455(50) 2423.1257 2407.8140
2400 12.6056 2505(50) 2430.5581 2411.6318
2401 12.6096 2286(48) 2437.9800 2415.4487
2402 12.6136 2318(48) 2445.3516 2419.2659
2403 12.6176 2376(49) 2452.6333 2423.0837
2404 12.6216 2247(47) 2459.7786 2426.9006
2405 12.6256 2380(49) 2466.7446 2430.7175
2406 12.6296 2538(50) 2473.4934 2434.5354
2407 12.6336 2678(52) 2479.9985 2438.3523
2408 12.6376 2547(50) 2486.2690 2442.1694
2409 12.6416 2490(50) 2492.3550 2445.9873
2410 12.6456 2400(49) 2498.3516 2449.8042
2411 12.6496 2404(49) 2504.4072 2453.6211
2412 12.6536 2286(48) 2510.7119 2457.4380
2413 12.6576 2421(49) 2517.4917 2461.2559
2414 12.6616 2430(49) 2524.9907 2465.0728
2415 12.6656 2602(51) 2533.4722 2468.8899
2416 12.6696 2492(50) 2543.2063 2472.7078
2417 12.6736 2515(50) 2554.4585 2476.5247
2418 12.6776 2681(52) 2567.5029 2480.3416
2419 12.6816 2782(53) 2582.6152 2484.1594
2420 12.6856 2578(51) 2600.0605 2487.9763
2421 12.6896 2623(51) 2620.1101 2491.7935
2422 12.6936 2609(51) 2643.0176 2495.6104
2423 12.6976 2760(53) 2669.0149 2499.4282
2424 12.7016 2603(51) 2698.2622 2503.2451
2425 12.7056 2613(51) 2730.3457 2507.0620
2426 12.7096 2823(53) 2766.2834 2510.8799
2427 12.7136 2961(54) 2805.4070 2514.6968
2428 12.7176 3018(55) 2847.4390 2518.5139
2429 12.7216 3175(56) 2891.8286 2522.3318
2430 12.7256 3269(57) 2938.2715 2526.1487
2431 12.7296 3250(57) 2986.0071 2529.9656
2432 12.7336 3280(57) 3034.3569 2533.7834
2433 12.7376 3300(57) 3082.5815 2537.6006
2434 12.7416 3484(59) 3129.9541 2541.4175
2435 12.7456 3378(58) 3175.6904 2545.2344
2436 12.7496 3411(58) 3218.9297 2549.0522
2437 12.7536 3561(60) 3258.6587 2552.8691
2438 12.7576 3624(60) 3293.7759 2556.6860
2439 12.7616 3621(60) 3323.1118 2560.5039
2440 12.7656 3518(59) 3345.1223 2564.3208
2441 12.7696 3443(59) 3359.6580 2568.1379
2442 12.7736 3577(60) 3365.6863 2571.9558
2443 12.7776 3423(59) 3362.9736 2575.7727
2444 12.7816 3422(58) 3351.7302 2579.5896
2445 12.7856 3094(56) 3332.5759 2583.4067
2446 12.7896 3254(57) 3306.4470 2587.2246
2447 12.7936 3119(56) 3274.5049 2591.0415
2448 12.7976 3130(56) 3237.9717 2594.8584
2449 12.8016 3162(56) 3198.0391 2598.6763
2450 12.8056 3149(56) 3155.8274 2602.4932
2451 12.8096 2994(55) 3112.2971 2606.3101
2452 12.8136 3062(55) 3068.2739 2610.1279
2453 12.8176 2903(54) 3024.4976 2613.9448
2454 12.8216 2935(54) 2981.5806 2617.7620
2455 12.8256 2929(54) 2940.0576 2621.5798
2456 12.8296 3030(55) 2900.4268 2625.3967
2457 12.8336 2940(54) 2863.0928 2629.2136
2458 12.8376 2807(53) 2828.4075 2633.0308
2459 12.8416 2710(52) 2796.5999 2636.8486
2460 12.8456 2850(53) 2767.9846 2640.6655
2461 12.8496 2726(52) 2742.6401 2644.4824
2462 12.8536 2600(51) 2720.6145 2648.3003
2463 12.8576 2489(50) 2701.8943 2652.1172
2464 12.8616 2443(49) 2686.3794 2655.9341
2465 12.8656 2428(49) 2673.9106 2659.7520
2466 12.8696 2600(51) 2664.2859 2663.5688
2467 12.8736 2635(51) 2657.2559 2667.3860
2468 12.8776 2738(52) 2652.5483 2671.2029
2469 12.8816 2678(52) 2649.8782 2675.0208
2470 12.8856 2549(50) 2648.9609 2678.8376
2471 12.8896 2668(52) 2649.5190 2682.6548
2472 12.8936 2569(51) 2651.2915 2686.4727
2473 12.8976 2723(52) 2654.0396 2690.2896
2474 12.9016 2684(52) 2657.5508 2694.1064
2475 12.9056 2563(51) 2661.6411 2697.9243
2476 12.9096 2609(51) 2666.1506 2701.7412
2477 12.9136 2745(52) 2670.9478 2705.5581
2478 12.9176 2612(51) 2675.9238 2709.3760
2479 12.9216 2476(50) 2680.9861 2713.1929
2480 12.9256 2469(50) 2686.0623 2717.0100
2481 12.9296 2454(50) 2691.0933 2720.8269
2482 12.9336 2572(51) 2696.0344 2724.6448
2483 12.9376 2606(51) 2700.8503 2728.4617
2484 12.9416 2430(49) 2705.5217 2732.2788
2485 12.9456 2429(49) 2710.0396 2736.0967
2486 12.9496 2609(51) 2714.4021 2739.9136
2487 12.9536 2617(51) 2718.6196 2743.7305
2488 12.9576 2553(51) 2722.7087 2747.5483
2489 12.9616 2737(52) 2726.6882 2751.3652
2490 12.9656 2636(51) 2730.5823 2755.1821
2491 12.9696 2623(51) 2734.4150 2758.9993
2492 12.9736 2710(52) 2738.2107 2762.8171
2493 12.9776 2578(51) 2741.3186 2765.9639
2494 12.9816 2576(51) 2743.7598 2768.4414
2495 12.9856 2785(53) 2746.2200 2770.9194
2496 12.9896 2721(52) 2748.7109 2773.3970
2497 12.9936 2742(52) 2751.2432 2775.8745
2498 12.9976 2595(51) 2753.8250 2778.3525
2499 13.0016 2544(50) 2756.4604 2780.8301
2500 13.0056 2613(51) 2759.1538 2783.3076
2501 13.0096 2643(51) 2762.2947 2785.7849
2502 13.0136 2709(52) 2764.8296 2788.2632
2503 13.0176 2654(52) 2767.7041 2790.7405
2504 13.0216 2624(51) 2770.6453 2793.2180
2505 13.0256 2576(51) 2773.6543 2795.6960
2506 13.0296 2568(51) 2776.7314 2798.1736
2507 13.0336 2563(51) 2779.8784 2800.6511
2508 13.0376 2747(52) 2783.0969 2803.1292
2509 13.0416 2680(52) 2786.3865 2805.6067
2510 13.0456 2620(51) 2789.7490 2808.0842
2511 13.0496 2721(52) 2793.1873 2810.5623
2512 13.0536 2736(52) 2796.7029 2813.0398
2513 13.0576 2870(54) 2800.3010 2815.5173
2514 13.0616 2703(52) 2803.9890 2817.9946
2515 13.0656 2602(51) 2807.7769 2820.4727
2516 13.0696 2799(53) 2811.6753 2822.9502
2517 13.0736 2792(53) 2815.6995 2825.4277
2518 13.0776 2891(54) 2819.8665 2827.9058
2519 13.0816 3050(55) 2824.1897 2830.3833
2520 13.0856 3068(55) 2828.6855 2832.8608
2521 13.0896 3057(55) 2833.3652 2835.3389
2522 13.0936 2750(52) 2838.2302 2837.8164
2523 13.0976 2862(53) 2843.2776 2840.2939
2524 13.1016 2700(52) 2848.4932 2842.7712
2525 13.1056 2722(52) 2853.8555 2845.2495
2526 13.1096 2830(53) 2859.3291 2847.7268
2527 13.1136 2809(53) 2864.8772 2850.2043
2528 13.1176 2787(53) 2870.4590 2852.6824
2529 13.1216 2696(52) 2876.0278 2855.1599
2530 13.1256 2837(53) 2881.5410 2857.6375
2531 13.1296 2933(54) 2886.9529 2860.1155
2532 13.1336 3085(56) 2892.2107 2862.5930
2533 13.1376 2988(55) 2897.2588 2865.0706
2534 13.1416 3041(55) 2902.0349 2867.5486
2535 13.1456 2977(55) 2992.0564 2870.0261
2536 13.1496 2959(54) 2998.3052 2872.5034
2537 13.1536 3025(55) 3004.1892 2874.9810
2538 13.1576 2945(54) 3009.6851 2877.4590
2539 13.1616 3049(55) 3014.7942 2879.9365
2540 13.1656 3200(57) 3019.5525 2882.4141
2541 13.1696 3317(58) 3024.0259 2884.8921
2542 13.1736 3126(56) 3028.3035 2887.3696
2543 13.1776 3038(55) 3032.4956 2889.8472
2544 13.1816 2742(52) 3036.7224 2892.3252
2545 13.1856 2778(53) 3041.1003 2894.8027
2546 13.1896 2856(53) 3045.7458 2897.2803
2547 13.1936 2989(55) 3050.7332 2899.7576
2548 13.1976 2938(54) 3056.1382 2902.2358
2549 13.2016 3143(56) 3061.9985 2904.7131
2550 13.2056 3067(55) 3068.3337 2907.1907
2551 13.2096 3107(56) 3075.1445 2909.6687
2552 13.2136 3017(55) 3082.4138 2912.1462
2553 13.2176 3088(56) 3090.1240 2914.6238
2554 13.2216 3233(57) 3098.2559 2917.1018
2555 13.2256 3063(55) 3106.7874 2919.5793
2556 13.2296 3112(56) 3115.7041 2922.0569
2557 13.2336 3310(58) 3124.9934 2924.5349
2558 13.2376 3265(57) 3134.6353 2927.0125
2559 13.2416 3234(57) 3144.6130 2929.4897
2560 13.2456 3290(57) 3154.9082 2931.9673
2561 13.2496 3409(58) 3165.5056 2934.4453
2562 13.2536 3261(57) 3176.3892 2936.9229
2563 13.2576 3341(58) 3187.5608 2939.4004
2564 13.2616 3274(57) 3199.0371 2941.8784
2565 13.2656 3306(57) 3210.8442 2944.3560
2566 13.2696 3318(58) 3222.6633 2946.8335
2567 13.2736 3487(59) 3235.3027 2949.3115
2568 13.2776 3553(60) 3248.4741 2951.7891
2569 13.2816 3688(61) 3262.2788 2954.2666
2570 13.2856 3608(60) 3276.8228 2956.7439
2571 13.2896 3690(61) 3292.2197 2959.2222
2572 13.2936 3716(61) 3308.5659 2961.6995
2573 13.2976 3826(62) 3325.9639 2964.1770
2574 13.3016 3875(62) 3344.6914 2966.6550
2575 13.3056 3714(61) 3364.4639 2969.1326
2576 13.3096 3691(61) 3385.5732 2971.6101
2577 13.3136 3447(59) 3408.1521 2974.0881
2578 13.3176 3530(59) 3432.3540 2976.5657
2579 13.3216 3619(60) 3458.3962 2979.0432
2580 13.3256 3735(61) 3486.5518 2981.5212
2581 13.3296 3610(60) 3517.1326 2983.9988
2582 13.3336 3770(61) 3550.5283 2986.4761
2583 13.3376 3849(62) 3587.0696 2988.9536
2584 13.3416 3880(62) 3627.4922 2991.4316
2585 13.3456 3819(62) 3672.2185 2993.9092
2586 13.3496 3904(62) 3721.8623 2996.3867
2587 13.3536 3929(63) 3777.0898 2998.8647
2588 13.3576 3808(62) 3838.5720 3001.3423
2589 13.3616 3988(63) 3907.0645 3003.8198
2590 13.3656 4089(64) 3983.3857 3006.2979
2591 13.3696 4120(64) 4068.3955 3008.7754
2592 13.3736 4336(66) 4163.1904 3011.2529
2593 13.3776 4322(66) 4269.2275 3013.7302
2594 13.3816 4490(67) 4388.7500 3016.2085
2595 13.3856 4518(67) 4525.3203 3018.6858
2596 13.3896 4755(69) 4685.0708 3021.1633
2597 13.3936 5001(71) 4878.2080 3023.6414
2598 13.3976 5391(73) 5120.9521 3026.1189
2599 13.4016 5586(75) 5438.2651 3028.5964
2600 13.4056 5921(77) 5866.2607 3031.0745
2601 13.4096 6323(80) 6453.7759 3033.5520
2602 13.4136 6875(83) 7263.8867 3036.0295
2603 13.4176 7663(88) 8373.3809 3038.5076
2604 13.4216 8778(94) 9869.7227 3040.9851
2605 13.4256 10798(104) 11848.7891 3043.4624
2606 13.4296 13715(117) 14407.1113 3045.9399
2607 13.4336 17036(131) 17630.7383 3048.4180
2608 13.4376 21844(148) 21569.4531 3050.8955
2609 13.4416 27406(166) 26199.4980 3053.3730
2610 13.4456 33378(183) 31368.8848 3055.8511
2611 13.4496 38943(197) 36714.1719 3058.3286
2612 13.4536 44868(212) 41622.5352 3060.8062
2613 13.4576 48513(220) 45295.5156 3063.2842
2614 13.4616 50497(225) 47008.2539 3065.7617
2615 13.4656 50428(225) 46440.6406 3068.2393
2616 13.4696 47509(218) 43788.1484 3070.7166
2617 13.4736 42332(206) 39596.9531 3073.1948
2618 13.4776 37987(195) 34527.3242 3075.6721
2619 13.4816 31419(177) 29189.4121 3078.1497
2620 13.4856 25778(161) 24069.4336 3080.6277
2621 13.4896 19788(141) 19507.1641 3083.1052
2622 13.4936 15548(125) 15682.2725 3085.5828
2623 13.4976 12430(111) 12638.6191 3088.0608
2624 13.5016 10785(104) 10322.0352 3090.5383
2625 13.5056 8868(94) 8618.5049 3093.0159
2626 13.5096 7723(88) 7394.9053 3095.4939
2627 13.5136 6790(82) 6525.9531 3097.9714
2628 13.5176 6195(79) 5906.7217 3100.4487
2629 13.5216 5841(76) 5458.0244 3102.9263
2630 13.5256 5363(73) 5123.9048 3105.4043
2631 13.5296 4899(70) 4867.0732 3107.8818
2632 13.5336 4593(68) 4663.2148 3110.3594
2633 13.5376 4649(68) 4496.8735 3112.8374
2634 13.5416 4559(68) 4358.2666 3115.3149
2635 13.5456 4488(67) 4240.8950 3117.7925
2636 13.5496 4337(66) 4140.3350 3120.2705
2637 13.5536 4156(64) 4053.4775 3122.7480
2638 13.5576 4188(65) 3977.9387 3125.2256
2639 13.5616 4013(63) 3911.8760 3127.7029
2640 13.5656 3884(62) 3853.6724 3130.1812
2641 13.5696 3736(61) 3802.4009 3132.6584
2642 13.5736 3879(62) 3756.9197 3135.1360
2643 13.5776 3894(62) 3716.3862 3137.6140
2644 13.5816 3963(63) 3680.1248 3140.0916
2645 13.5856 3837(62) 3647.5471 3142.5691
2646 13.5896 3868(62) 3618.1672 3145.0471
2647 13.5936 3787(62) 3591.6040 3147.5247
2648 13.5976 3458(59) 3567.5264 3150.0022
2649 13.6016 3453(59) 3545.6633 3152.4802
2650 13.6056 3492(59) 3525.8086 3154.9578
2651 13.6096 3303(57) 3507.7788 3157.4351
2652 13.6136 3077(55) 3491.4463 3159.9126
2653 13.6176 3061(55) 3476.3052 3162.3906
2654 13.6216 3089(56) 3462.9487 3164.8682
2655 13.6256 3240(57) 3450.9456 3167.3457
2656 13.6296 3299(57) 3472.6733 3169.8237
2657 13.6336 3300(57) 3463.6289 3172.3013
2658 13.6376 3379(58) 3455.7148 3174.7788
2659 13.6416 3374(58) 3453.2896 3177.2568
2660 13.6456 3249(57) 3447.5500 3179.7344
2661 13.6496 3106(56) 3442.7544 3182.2119
2662 13.6536 3193(57) 3438.8486 3184.6892
2663 13.6576 3195(57) 3435.7864 3187.1675
2664 13.6616 3162(56) 3432.9397 3189.0552
2665 13.6656 3255(57) 3430.2776 3190.3540
2666 13.6696 3403(58) 3428.3662 3191.6531
2667 13.6736 3248(57) 3427.1912 3192.9519
2668 13.6776 3169(56) 3426.7419 3194.2507
2669 13.6816 3049(55) 3427.0112 3195.5498
2670 13.6856 3129(56) 3427.9897 3196.8486
2671 13.6896 3262(57) 3429.6621 3198.1475
2672 13.6936 3535(59) 3432.0015 3199.4465
2673 13.6976 3638(60) 3434.9644 3200.7454
2674 13.7016 3461(59) 3438.4905 3202.0442
2675 13.7056 3482(59) 3442.4998 3203.3430
2676 13.7096 3594(60) 3446.8962 3204.6421
2677 13.7136 3442(59) 3451.5674 3205.9409
2678 13.7176 3334(58) 3456.3965 3207.2397
2679 13.7216 3311(58) 3461.2632 3208.5388
2680 13.7256 3257(57) 3466.0435 3209.8376
2681 13.7296 3219(57) 3470.6145 3211.1365
2682 13.7336 3460(59) 3474.8469 3212.4355
2683 13.7376 3362(58) 3478.5977 3213.7344
2684 13.7416 3502(59) 3481.7136 3215.0332
2685 13.7456 3421(58) 3484.0325 3216.3320
2686 13.7496 3514(59) 3485.3960 3217.6311
2687 13.7536 3515(59) 3485.6663 3218.9299
2688 13.7576 3592(60) 3484.7458 3220.2288
2689 13.7616 3609(60) 3482.5732 3221.5278
2690 13.7656 3404(58) 3479.2090 3222.8267
2691 13.7696 3403(58) 3474.5867 3224.1255
2692 13.7736 3303(57) 3469.1265 3225.4246
2693 13.7776 3417(58) 3380.0044 3226.7234
2694 13.7816 3382(58) 3375.2654 3228.0222
2695 13.7856 3389(58) 3370.1606 3229.3213
2696 13.7896 3224(57) 3364.9463 3230.6201
2697 13.7936 3158(56) 3359.8613 3231.9189
2698 13.7976 3208(57) 3355.1208 3233.2178
2699 13.8016 3403(58) 3350.8989 3234.5168
2700 13.8056 3285(57) 3347.3569 3235.8157
2701 13.8096 3492(59) 3344.5925 3237.1145
2702 13.8136 3422(58) 3342.6753 3238.4136
2703 13.8176 3539(59) 3341.6423 3239.7124
2704 13.8216 3543(60) 3341.5012 3241.0112
2705 13.8256 3416(58) 3342.2397 3242.3105
2706 13.8296 3335(58) 3343.8286 3243.6091
2707 13.8336 3163(56) 3346.2312 3244.9080
2708 13.8376 3127(56) 3349.5188 3246.2068
2709 13.8416 3148(56) 3353.4280 3247.5059
2710 13.8456 3280(57) 3358.0366 3248.8047
2711 13.8496 3324(58) 3363.3203 3250.1035
2712 13.8536 3514(59) 3369.2661 3251.4028
2713 13.8576 3494(59) 3375.8674 3252.7014
2714 13.8616 3430(59) 3383.1370 3254.0002
2715 13.8656 3281(57) 3391.1021 3255.2996
2716 13.8696 3128(56) 3399.8027 3256.5981
2717 13.8736 3142(56) 3409.3118 3257.8970
2718 13.8776 3344(58) 3419.7441 3259.1963
2719 13.8816 3500(59) 3431.2769 3260.4951
2720 13.8856 3305(57) 3444.2122 3261.7937
2721 13.8896 3324(58) 3459.0413 3263.0925
2722 13.8936 3447(59) 3476.5818 3264.3918
2723 13.8976 3468(59) 3497.9651 3265.6904
2724 13.9016 3376(58) 3531.2930 3266.9893
2725 13.9056 3470(59) 3566.4370 3268.2886
2726 13.9096 3342(58) 3612.7771 3269.5874
2727 13.9136 3500(59) 3674.2053 3270.8860
2728 13.9176 3838(62) 3755.2717 3272.1853
2729 13.9216 3709(61) 3860.9146 3273.4841
2730 13.9256 3807(62) 3996.2473 3274.7827
2731 13.9296 4059(64) 4165.9189 3276.0815
2732 13.9336 4418(66) 4373.1484 3277.3809
2733 13.9376 4527(67) 4617.8750 3278.6794
2734 13.9416 4821(69) 4893.9678 3279.9783
2735 13.9456 5060(71) 5185.9814 3281.2776
2736 13.9496 5238(72) 5465.3735 3282.5762
2737 13.9536 5486(74) 5692.4238 3283.8750
2738 13.9576 5715(76) 5826.7944 3285.1743
2739 13.9616 6032(78) 5844.8633 3286.4731
2740 13.9656 5834(76) 5750.0312 3287.7717
2741 13.9696 5405(74) 5567.1387 3289.0710
2742 13.9736 5260(73) 5329.9722 3290.3699
2743 13.9776 5231(72) 5071.2627 3291.6685
2744 13.9816 4867(70) 4818.0850 3292.9673
2745 13.9856 4363(66) 4589.8037 3294.2666
2746 13.9896 4131(64) 4397.7954 3295.5654
2747 13.9936 4100(64) 4245.8291 3296.8640
2748 13.9976 4027(63) 4132.1006 3298.1633
2749 14.0016 3908(63) 4050.9004 3299.4622
2750 14.0056 4032(63) 3995.3457 3300.7607
2751 14.0096 3954(63) 3958.5166 3302.0601
2752 14.0136 3837(62) 3934.5227 3303.3589
2753 14.0176 4026(63) 3918.8267 3304.6577
2754 14.0216 3701(61) 3908.2786 3305.9563
2755 14.0256 3696(61) 3900.9136 3307.2556
2756 14.0296 3793(62) 3895.7080 3308.5544
2757 14.0336 3602(60) 3892.3503 3309.8530
2758 14.0376 3599(60) 3891.0745 3311.1523
2759 14.0416 3792(62) 3890.1587 3310.0742
2760 14.0456 3566(60) 3892.1865 3308.2041
2761 14.0496 3656(60) 3899.2451 3306.3337
2762 14.0536 3770(61) 3912.8853 3304.4639
2763 14.0576 3923(63) 3934.9021 3302.5938
2764 14.0616 3860(62) 3967.3242 3300.7234
2765 14.0656 3830(62) 4012.3643 3298.8535
2766 14.0696 4070(64) 4072.4500 3296.9834
2767 14.0736 4179(65) 4150.1782 3295.1135
2768 14.0776 4367(66) 4248.3320 3293.2432
2769 14.0816 4274(65) 4369.7495 3291.3730
2770 14.0856 4465(67) 4519.4141 3289.5032
2771 14.0896 4738(69) 4696.4961 3287.6328
2772 14.0936 5062(71) 4905.2637 3285.7629
2773 14.0976 5366(73) 5149.7441 3283.8928
2774 14.1016 5585(75) 5431.9492 3282.0225
2775 14.1056 5998(77) 5753.6309 3280.1526
2776 14.1096 6443(80) 6115.7119 3278.2825
2777 14.1136 7158(85) 6555.1641 3276.4126
2778 14.1176 7164(85) 6994.0337 3274.5422
2779 14.1216 7887(89) 7462.4893 3272.6721
2780 14.1256 8435(92) 7949.5688 3270.8022
2781 14.1296 8646(93) 8436.6816 3268.9319
2782 14.1336 9251(96) 8899.4248 3267.0618
2783 14.1376 9616(98) 9306.6406 3265.1919
2784 14.1416 9706(99) 9623.1055 3263.3215
2785 14.1456 9983(100) 9815.0303 3261.4517
2786 14.1496 9980(100) 9857.8223 3259.5815
2787 14.1536 9893(99) 9744.3145 3257.7117
2788 14.1576 9818(99) 9488.2188 3255.8413
2789 14.1616 9623(98) 9122.1025 3253.9712
2790 14.1656 9453(97) 8688.7949 3252.1013
2791 14.1696 8988(95) 8231.2578 3250.2310
2792 14.1736 8690(93) 7784.9399 3248.3608
2793 14.1776 8167(90) 7373.3867 3246.4910
2794 14.1816 7530(87) 7008.7676 3244.6206
2795 14.1856 7327(86) 6694.5361 3242.7505
2796 14.1896 6724(82) 6428.3315 3240.8806
2797 14.1936 6219(79) 6203.3906 3239.0103
2798 14.1976 6017(78) 6013.0098 3237.1401
2799 14.2016 5766(76) 5849.8877 3235.2703
2800 14.2056 5972(77) 5707.4551 3233.4004
2801 14.2096 5634(75) 5580.1260 3231.5300
2802 14.2136 5438(74) 5463.5103 3229.6599
2803 14.2176 5357(73) 5354.2031 3227.7900
2804 14.2216 5239(72) 5249.7603 3225.9197
2805 14.2256 5026(71) 5148.6382 3224.0496
2806 14.2296 5061(71) 5049.8833 3222.1797
2807 14.2336 5041(71) 4953.0703 3220.3093
2808 14.2376 4723(69) 4858.2295 3218.4392
2809 14.2416 4772(69) 4765.5928 3216.5693
2810 14.2456 4821(69) 4675.4995 3214.6995
2811 14.2496 4918(70) 4588.6104 3212.8289
2812 14.2536 5024(71) 4505.4141 3210.9590
2813 14.2576 4747(69) 4426.3916 3209.0891
2814 14.2616 4714(69) 4351.9575 3207.2188
2815 14.2656 4791(69) 4282.4956 3205.3486
2816 14.2696 4542(67) 4218.2783 3203.4788
2817 14.2736 4270(65) 4154.9912 3201.6084
2818 14.2776 4302(66) 4101.5664 3199.7383
2819 14.2816 4248(65) 4053.4824 3197.8684
2820 14.2856 4044(64) 4010.6208 3195.9980
2821 14.2896 4007(63) 3972.8289 3194.1279
2822 14.2936 3971(63) 3939.8804 3192.2581
2823 14.2976 4005(63) 3911.5278 3190.3882
2824 14.3016 3927(63) 3887.4934 3188.5176
2825 14.3056 3948(63) 3867.5000 3186.6477
2826 14.3096 3711(61) 3851.2393 3184.7778
2827 14.3136 3631(60) 3838.4028 3182.9075
2828 14.3176 3733(61) 3828.6980 3181.0374
2829 14.3216 3840(62) 3821.8486 3179.1675
2830 14.3256 3882(62) 3817.6321 3177.2971
2831 14.3296 3844(62) 3815.9172 3175.4270
2832 14.3336 3702(61) 3816.6340 3173.5571
2833 14.3376 3841(62) 3820.1294 3171.6873
2834 14.3416 3686(61) 3826.8025 3169.8167
2835 14.3456 3712(61) 3837.4592 3167.9468
2836 14.3496 3804(62) 3853.3125 3166.0769
2837 14.3536 3952(63) 3876.0361 3164.2063
2838 14.3576 4017(63) 3907.7827 3162.3364
2839 14.3616 4063(64) 3951.2471 3160.4666
2840 14.3656 4099(64) 4009.6829 3158.5962
2841 14.3696 3937(63) 4086.7219 3156.7261
2842 14.3736 4099(64) 4186.7256 3154.8562
2843 14.3776 4226(65) 4313.7251 3152.9858
2844 14.3816 4635(68) 4470.8765 3151.1157
2845 14.3856 4828(69) 4659.1445 3149.2458
2846 14.3896 5068(71) 4875.4180 3147.3760
2847 14.3936 5386(73) 5111.4824 3145.5054
2848 14.3976 5539(74) 5355.4731 3143.6355
2849 14.4016 5731(76) 5597.7354 3141.7656
2850 14.4056 5999(77) 5836.1157 3139.8950
2851 14.4096 5721(76) 6074.7129 3138.0251
2852 14.4136 5812(76) 6315.8965 3136.1553
2853 14.4176 6046(78) 6549.9941 3134.2847
2854 14.4216 6210(79) 6748.8960 3132.4148
2855 14.4256 6277(79) 6869.9258 3130.5449
2856 14.4296 6546(81) 6872.6274 3128.6748
2857 14.4336 6701(82) 6740.4287 3126.8044
2858 14.4376 6786(82) 6488.5151 3124.9346
2859 14.4416 6441(80) 6152.9868 3123.0645
2860 14.4456 6713(82) 5775.5254 3121.1941
2861 14.4496 6187(79) 5394.0830 3119.3242
2862 14.4536 5740(76) 5038.1602 3117.4543
2863 14.4576 5269(73) 4727.8447 3115.5837
2864 14.4616 4781(69) 4472.8438 3113.7139
2865 14.4656 4382(66) 4274.9775 3111.8440
2866 14.4696 4094(64) 4129.6611 3109.9736
2867 14.4736 3845(62) 4028.8604 3108.1035
2868 14.4776 4042(64) 3963.5632 3106.2336
2869 14.4816 3973(63) 3925.2288 3104.3635
2870 14.4856 3924(63) 3906.9136 3102.4932
2871 14.4896 3785(62) 3903.4697 3100.6233
2872 14.4936 3762(61) 3911.3730 3098.7534
2873 14.4976 3809(62) 3928.4224 3096.8828
2874 14.5016 3767(61) 3953.3655 3095.0129
2875 14.5056 3796(62) 3985.6238 3093.1431
2876 14.5096 3919(63) 4025.0669 3091.2725
2877 14.5136 3972(63) 4071.8232 3089.4026
2878 14.5176 4094(64) 4126.2334 3087.5327
2879 14.5216 4025(63) 4188.7461 3085.6626
2880 14.5256 4163(65) 4259.9014 3083.7922
2881 14.5296 4266(65) 4340.2173 3081.9224
2882 14.5336 4388(66) 4430.2637 3080.0522
2883 14.5376 4724(69) 4530.5776 3078.1819
2884 14.5416 4733(69) 4641.5283 3076.3120
2885 14.5456 4825(69) 4763.4033 3074.4419
2886 14.5496 5079(71) 4896.2710 3072.5715
2887 14.5536 5238(72) 5039.8135 3070.7017
2888 14.5576 5493(74) 5193.4790 3068.8318
2889 14.5616 5777(76) 5356.4287 3066.9612
2890 14.5656 5834(76) 5527.5400 3065.0913
2891 14.5696 5668(75) 5705.8970 3063.2214
2892 14.5736 5912(77) 5891.0029 3061.3513
2893 14.5776 5944(77) 6083.2715 3059.4810
2894 14.5816 6186(79) 6284.1738 3057.6111
2895 14.5856 6395(80) 6496.6348 3055.7410
2896 14.5896 6276(79) 6724.7285 3053.8706
2897 14.5936 6683(82) 6973.0166 3052.0007
2898 14.5976 6803(82) 7246.1084 3050.1306
2899 14.6016 6971(83) 7547.6021 3048.2603
2900 14.6056 7678(88) 7878.7744 3046.3904
2901 14.6096 8258(91) 8237.8633 3044.5205
2902 14.6136 8634(93) 8618.5283 3042.6504
2903 14.6176 8696(93) 9008.7441 3040.7800
2904 14.6216 8949(95) 9389.4082 3038.9102
2905 14.6256 9152(96) 9734.6719 3037.0400
2906 14.6296 9304(96) 10013.0342 3035.1697
2907 14.6336 9455(97) 10191.0488 3033.2998
2908 14.6376 9603(98) 10240.2061 3031.4297
2909 14.6416 9871(99) 10144.3223 3029.5593
2910 14.6456 9436(97) 9905.7422 3027.6895
2911 14.6496 9362(97) 9546.2627 3025.8193
2912 14.6536 8749(94) 9102.0293 3023.9490
2913 14.6576 8565(93) 8614.9932 3022.0791
2914 14.6616 8282(91) 8123.2729 3020.2090
2915 14.6656 7795(88) 7655.7598 3018.3391
2916 14.6696 7188(85) 7230.1514 3016.4688
2917 14.6736 6581(81) 6854.5566 3014.5989
2918 14.6776 6014(78) 6529.5073 3012.7288
2919 14.6816 5909(77) 6219.0957 3010.8584
2920 14.6856 5689(75) 5981.6665 3008.9885
2921 14.6896 5687(75) 5777.7979 3007.1184
2922 14.6936 5725(76) 5600.7686 3005.2480
2923 14.6976 5255(72) 5444.7163 3003.3782
2924 14.7016 4911(70) 5304.5986 3001.5081
2925 14.7056 4874(70) 5176.4082 2999.6382
2926 14.7096 4649(68) 5057.0366 2997.7678
2927 14.7136 4713(69) 4944.2749 2995.8979
2928 14.7176 4363(66) 4834.6138 2994.0278
2929 14.7216 4197(65) 4730.8677 2992.1575
2930 14.7256 4165(65) 4630.5537 2990.2876
2931 14.7296 4265(65) 4533.7671 2988.4175
2932 14.7336 4220(65) 4439.7334 2986.5471
2933 14.7376 4223(65) 4349.0137 2984.6772
2934 14.7416 4175(65) 4261.8203 2982.8071
2935 14.7456 4119(64) 4172.7788 2980.9368
2936 14.7496 4028(63) 4093.6116 2979.0669
2937 14.7536 3956(63) 4018.7742 2977.1968
2938 14.7576 3742(61) 3948.4736 2975.3269
2939 14.7616 3949(63) 3882.8447 2973.4565
2940 14.7656 3873(62) 3822.0095 2971.5864
2941 14.7696 4060(64) 3765.9817 2969.7166
2942 14.7736 4067(64) 3714.7222 2967.8462
2943 14.7776 4002(63) 3668.1799 2965.9761
2944 14.7816 3707(61) 3626.2246 2964.1062
2945 14.7856 3913(63) 3588.6943 2962.2358
2946 14.7896 3954(63) 3555.4263 2960.3660
2947 14.7936 3922(63) 3526.2058 2958.4958
2948 14.7976 3929(63) 3500.7878 2956.6260
2949 14.8016 3715(61) 3479.0793 2954.7556
2950 14.8056 3722(61) 3460.5781 2952.8855
2951 14.8096 3955(63) 3445.1118 2951.0156
2952 14.8136 3838(62) 3432.3755 2949.1453
2953 14.8176 3745(61) 3422.0542 2947.2751
2954 14.8216 3759(61) 3413.8098 2945.4053
2955 14.8256 3634(60) 3407.2964 2943.5349
2956 14.8296 3692(61) 3402.1729 2941.6650
2957 14.8336 3758(61) 3398.0996 2939.7949
2958 14.8376 3551(60) 3394.7532 2937.9246
2959 14.8416 3555(60) 3391.8279 2936.0547
2960 14.8456 3444(59) 3389.0271 2934.1846
2961 14.8496 3628(60) 3386.0603 2932.3147
2962 14.8536 3734(61) 3382.6292 2930.4443
2963 14.8576 3675(61) 3378.4270 2928.5742
2964 14.8616 3537(59) 3373.1379 2926.7043
2965 14.8656 3518(59) 3366.4509 2924.8340
2966 14.8696 3363(58) 3358.0906 2922.9639
2967 14.8736 3421(58) 3347.8340 2921.0940
2968 14.8776 3419(58) 3334.8691 2918.5537
2969 14.8816 3339(58) 3319.8350 2916.0139
2970 14.8856 3485(59) 3302.8000 2913.4741
2971 14.8896 3328(58) 3283.9404 2910.9343
2972 14.8936 3154(56) 3263.5195 2908.3940
2973 14.8976 3214(57) 3241.8865 2905.8542
2974 14.9016 3117(56) 3219.4226 2903.3145
2975 14.9056 3121(56) 3196.5300 2900.7742
2976 14.9096 3101(56) 3173.6240 2898.2344
2977 14.9136 2988(55) 3151.0789 2895.6946
2978 14.9176 3033(55) 3129.2290 2893.1543
2979 14.9216 2959(54) 3108.3706 2890.6145
2980 14.9256 2952(54) 3088.9824 2888.0747
2981 14.9296 2786(53) 3070.7080 2885.5342
2982 14.9336 2840(53) 3053.9211 2882.9946
2983 14.9376 2896(54) 3038.6660 2880.4548
2984 14.9416 2686(52) 3024.9438 2877.9150
2985 14.9456 2726(52) 3012.7129 2875.3745
2986 14.9496 2853(53) 3001.9221 2872.8350
2987 14.9536 3006(55) 2992.4475 2870.2952
2988 14.9576 3130(56) 2988.2029 2867.7546
2989 14.9616 2894(54) 2981.1543 2865.2151
2990 14.9656 2861(53) 2975.0886 2862.6753
2991 14.9696 3061(55) 2969.8823 2860.1348
2992 14.9736 2951(54) 2965.4192 2857.5950
2993 14.9776 2846(53) 2961.5845 2855.0554
2994 14.9816 2928(54) 2958.2710 2852.5156
2995 14.9856 2893(54) 2955.3809 2849.9751
2996 14.9896 2681(52) 2952.8289 2847.4355
2997 14.9936 2798(53) 2950.5356 2844.8958
2998 14.9976 2833(53) 2948.4336 2842.3552
2999 15.0016 2956(54) 2948.9077 2839.8154
3000 15.0056 3005(55) 2947.0830 2837.2759
3001 15.0096 3014(55) 2945.2932 2834.7354
3002 15.0136 3090(56) 2943.4946 2832.1956
3003 15.0176 2988(55) 2941.6426 2829.6558
3004 15.0216 2818(53) 2939.5967 2827.1155
3005 15.0256 2602(51) 2937.5171 2824.5757
3006 15.0296 2486(50) 2935.2766 2822.0359
3007 15.0336 2576(51) 2932.7671 2819.4963
3008 15.0376 2757(53) 2930.1631 2816.9558
3009 15.0416 2654(52) 2927.3879 2814.4160
3010 15.0456 2931(54) 2924.3931 2811.8762
3011 15.0496 3116(56) 2921.3604 2809.3359
3012 15.0536 3090(56) 2918.2554 2806.7961
3013 15.0576 2848(53) 2915.1597 2804.2563
3014 15.0616 2792(53) 2912.1157 2801.7161
3015 15.0656 2792(53) 2909.1794 2799.1763
3016 15.0696 2917(54) 2906.4004 2796.6365
3017 15.0736 2873(54) 2903.8220 2794.0967
3018 15.0776 3036(55) 2901.4788 2791.5564
3019 15.0816 2977(55) 2899.3965 2789.0166
3020 15.0856 2882(54) 2897.5898 2786.4768
3021 15.0896 2773(53) 2896.0627 2783.9365
3022 15.0936 2962(54) 2894.8083 2781.3967
3023 15.0976 3062(55) 2893.7783 2778.8569
3024 15.1016 2823(53) 2893.3293 2776.3167
3025 15.1056 2936(54) 2892.7158 2773.7769
3026 15.1096 2948(54) 2892.2185 2771.2371
3027 15.1136 2931(54) 2891.7737 2768.6968
3028 15.1176 2760(53) 2891.3152 2766.1570
3029 15.1216 2796(53) 2890.7805 2763.6172
3030 15.1256 2963(54) 2890.1162 2761.0774
3031 15.1296 2819(53) 2889.2812 2758.5371
3032 15.1336 2826(53) 2888.2480 2755.9973
3033 15.1376 2883(54) 2887.0029 2753.4575
3034 15.1416 2892(54) 2885.5422 2750.9172
3035 15.1456 2989(55) 2883.8706 2748.3774
3036 15.1496 2918(54) 2881.9995 2745.8376
3037 15.1536 3089(56) 2879.9456 2743.2974
3038 15.1576 3049(55) 2877.7351 2740.7576
3039 15.1616 2963(54) 2875.4033 2738.2178
3040 15.1656 2879(54) 2872.9990 2735.6780
3041 15.1696 2885(54) 2870.5850 2733.1377
3042 15.1736 2818(53) 2836.3254 2730.5979
3043 15.1776 3008(55) 2834.5056 2728.0581
3044 15.1816 3071(55) 2833.0676 2725.5178
3045 15.1856 3098(56) 2832.0242 2722.9780
3046 15.1896 2926(54) 2831.5244 2720.4382
3047 15.1936 2871(54) 2831.7500 2717.8979
3048 15.1976 2940(54) 2832.9375 2715.3582
3049 15.2016 2926(54) 2835.4214 2712.8184
3050 15.2056 3021(55) 2839.6980 2710.2778
3051 15.2096 3098(56) 2846.5139 2707.7383
3052 15.2136 3062(55) 2856.9817 2705.1985
3053 15.2176 2961(54) 2872.7002 2702.6587
3054 15.2216 3058(55) 2895.8657 2700.1182
3055 15.2256 3158(56) 2929.3132 2697.5786
3056 15.2296 3160(56) 2976.5356 2695.0388
3057 15.2336 3133(56) 3041.5898 2692.4983
3058 15.2376 3227(57) 3128.8335 2689.9587
3059 15.2416 3168(56) 3242.6875 2687.4189
3060 15.2456 3272(57) 3387.0898 2684.8784
3061 15.2496 3569(60) 3564.4985 2682.3389
3062 15.2536 3994(63) 3774.6929 2679.7991
3063 15.2576 4222(65) 4012.5171 2677.2593
3064 15.2616 4565(68) 4258.8032 2674.7188
3065 15.2656 4516(67) 4502.8467 2672.1792
3066 15.2696 4801(69) 4705.7295 2669.6394
3067 15.2736 4796(69) 4834.9473 2667.0989
3068 15.2776 4723(69) 4872.1172 2664.5591
3069 15.2816 4590(68) 4822.2705 2662.0195
3070 15.2856 4265(65) 4709.3916 2659.4790
3071 15.2896 4300(66) 4565.3066 2656.9392
3072 15.2936 4341(66) 4420.3799 2654.3994
3073 15.2976 4286(65) 4298.5957 2651.8599
3074 15.3016 4145(64) 4214.6113 2649.3193
3075 15.3056 4004(63) 4171.6689 2646.7795
3076 15.3096 3574(60) 4160.3198 2644.2397
3077 15.3136 3583(60) 4159.7856 2641.6995
3078 15.3176 3573(60) 4143.9961 2639.1597
3079 15.3216 3810(62) 4091.9785 2636.6201
3080 15.3256 4242(65) 3996.1343 2634.0796
3081 15.3296 4360(66) 3862.3904 2631.5398
3082 15.3336 4312(66) 3704.0610 2629.0000
3083 15.3376 4108(64) 3536.0471 2626.4597
3084 15.3416 3968(63) 3371.7188 2623.9199
3085 15.3456 3726(61) 3221.1787 2621.3801
3086 15.3496 3363(58) 3090.8203 2618.8403
3087 15.3536 3080(55) 2983.3042 2616.3000
3088 15.3576 2873(54) 2898.2681 2613.7603
3089 15.3616 2811(53) 2833.1577 2611.2205
3090 15.3656 2631(51) 2784.3811 2608.6802
3091 15.3696 2639(51) 2748.1982 2606.1404
3092 15.3736 2895(54) 2721.2241 2603.6006
3093 15.3776 2808(53) 2700.7405 2601.0603
3094 15.3816 2690(52) 2684.7385 2598.5205
3095 15.3856 2509(50) 2671.7993 2595.9807
3096 15.3896 2418(49) 2660.9744 2593.4409
3097 15.3936 2590(51) 2651.6421 2590.9006
3098 15.3976 2603(51) 2643.3577 2588.3608
3099 15.4016 2649(51) 2635.9446 2585.8210
3100 15.4056 2593(51) 2629.1770 2583.2808
3101 15.4096 2444(49) 2622.9314 2580.7410
3102 15.4136 2615(51) 2617.1140 2578.2012
3103 15.4176 2823(53) 2611.6531 2575.6609
3104 15.4216 2885(54) 2606.4961 2573.1211
3105 15.4256 2664(52) 2601.5984 2570.5813
3106 15.4296 2733(52) 2596.9236 2568.0410
3107 15.4336 2695(52) 2592.4480 2565.5012
3108 15.4376 2632(51) 2588.1411 2562.9614
3109 15.4416 2582(51) 2583.9866 2560.4216
3110 15.4456 2708(52) 2579.9670 2557.8813
3111 15.4496 2641(51) 2576.0706 2555.3416
3112 15.4536 2688(52) 2572.2849 2552.8018
3113 15.4576 2627(51) 2568.5994 2550.2615
3114 15.4616 2680(52) 2565.0073 2547.7217
3115 15.4656 2596(51) 2561.5002 2545.1819
3116 15.4696 2432(49) 2558.0718 2542.6416
3117 15.4736 2554(51) 2554.7173 2540.1018
3118 15.4776 2659(52) 2551.4314 2537.5620
3119 15.4816 2741(52) 2548.2097 2535.0222
3120 15.4856 2596(51) 2551.5447 2538.9790
3121 15.4896 2632(51) 2554.9363 2542.9351
3122 15.4936 2512(50) 2558.3813 2546.8909
3123 15.4976 2602(51) 2561.8782 2550.8477
3124 15.5016 2646(51) 2565.4236 2554.8037
3125 15.5056 2717(52) 2569.0151 2558.7595
3126 15.5096 2606(51) 2572.6528 2562.7163
3127 15.5136 2601(51) 2576.3335 2566.6724
3128 15.5176 2465(50) 2580.0562 2570.6282
3129 15.5216 2404(49) 2583.8210 2574.5850
3130 15.5256 2638(51) 2587.6248 2578.5410
3131 15.5296 2835(53) 2591.4668 2582.4968
3132 15.5336 2871(54) 2595.3450 2586.4529
3133 15.5376 2871(54) 2599.2578 2590.4097
3134 15.5416 2729(52) 2603.1995 2594.3655
3135 15.5456 2738(52) 2607.1675 2598.3215
3136 15.5496 2850(53) 2611.1572 2602.2783
3137 15.5536 2753(52) 2615.1609 2606.2341
3138 15.5576 2681(52) 2619.1736 2610.1902
3139 15.5616 2859(53) 2623.1890 2614.1470
3140 15.5656 2819(53) 2627.1992 2618.1030
3141 15.5696 2910(54) 2631.0996 2622.0588
3142 15.5736 2848(53) 2635.0796 2626.0146
3143 15.5776 2787(53) 2639.0361 2629.9717
3144 15.5816 2637(51) 2642.9604 2633.9275
3145 15.5856 2703(52) 2646.6804 2637.8833
3146 15.5896 2790(53) 2650.4685 2641.8403
3147 15.5936 2767(53) 2650.3904 2645.7961
3148 15.5976 2879(54) 2654.2002 2649.7520
3149 15.6016 2908(54) 2657.9360 2653.7090
3150 15.6056 2833(53) 2661.5889 2657.6648
3151 15.6096 2819(53) 2665.1575 2661.6208
3152 15.6136 2796(53) 2669.2083 2665.5776
3153 15.6176 2670(52) 2672.6023 2669.5334
3154 15.6216 2653(52) 2675.9221 2673.4895
3155 15.6256 2670(52) 2679.1753 2677.4453
3156 15.6296 2454(50) 2682.3752 2681.4021
3157 15.6336 2382(49) 2685.5339 2685.3582
3158 15.6376 2467(50) 2686.2903 2689.3140
3159 15.6416 2453(50) 2689.4719 2693.2708
3160 15.6456 2781(53) 2692.6562 2697.2268
3161 15.6496 2767(53) 2695.8586 2701.1826
3162 15.6536 2724(52) 2699.0947 2705.1396
3163 15.6576 2754(52) 2702.3755 2709.0955
3164 15.6616 2678(52) 2705.7146 2713.0513
3165 15.6656 2600(51) 2709.1235 2717.0073
3166 15.6696 2682(52) 2712.6138 2720.9641
3167 15.6736 2681(52) 2716.1938 2724.9199
3168 15.6776 2601(51) 2719.8752 2728.8760
3169 15.6816 2538(50) 2723.2109 2732.8328
3170 15.6856 2539(50) 2727.1206 2736.7886
3171 15.6896 2550(50) 2731.1628 2740.7446
3172 15.6936 2529(50) 2735.3501 2744.7014
3173 15.6976 2603(51) 2739.6919 2748.6572
3174 15.7016 2517(50) 2744.2026 2752.6133
3175 15.7056 2484(50) 2748.8953 2756.5701
3176 15.7096 2617(51) 2753.7810 2760.5261
3177 15.7136 2652(51) 2758.8740 2764.4819
3178 15.7176 2586(51) 2764.1873 2768.4377
3179 15.7216 2654(52) 2769.7351 2772.3948
3180 15.7256 2896(54) 2775.5271 2776.3506
3181 15.7296 2877(54) 2781.5769 2780.3066
3182 15.7336 2910(54) 2787.8975 2784.2634
3183 15.7376 3109(56) 2794.4983 2788.2192
3184 15.7416 2799(53) 2801.3926 2792.1753
3185 15.7456 2748(52) 2808.5935 2796.1321
3186 15.7496 2897(54) 2816.1101 2800.0879
3187 15.7536 2785(53) 2823.9561 2804.0439
3188 15.7576 2621(51) 2832.1428 2807.9998
3189 15.7616 2693(52) 2840.6829 2811.9565
3190 15.7656 2908(54) 2849.5806 2815.9126
3191 15.7696 2794(53) 2858.8428 2819.8684
3192 15.7736 2891(54) 2868.4724 2823.8252
3193 15.7776 3057(55) 2878.5439 2827.7812
3194 15.7816 2963(54) 2888.8740 2831.7371
3195 15.7856 2698(52) 2899.5276 2835.6938
3196 15.7896 2714(52) 2910.4668 2839.6499
3197 15.7936 2696(52) 2921.6487 2843.6057
3198 15.7976 2772(53) 2933.0212 2847.5625
3199 15.8016 2880(54) 2944.5129 2851.5186
3200 15.8056 2857(53) 2956.0505 2855.4744
3201 15.8096 2929(54) 2967.5491 2859.4304
3202 15.8136 2880(54) 2978.9172 2863.3872
3203 15.8176 2851(53) 2990.0505 2867.3430
3204 15.8216 2803(53) 3000.8411 2871.2991
3205 15.8256 2911(54) 3011.1816 2875.2559
3206 15.8296 2936(54) 3020.9539 2879.2119
3207 15.8336 2907(54) 3030.0471 2883.1677
3208 15.8376 3150(56) 3038.3525 2887.1245
3209 15.8416 3291(57) 3045.7607 2891.0806
3210 15.8456 3035(55) 3052.1750 2895.0364
3211 15.8496 2950(54) 3057.5088 2898.9922
3212 15.8536 3156(56) 3061.6929 2902.9492
3213 15.8576 3047(55) 3064.6755 2906.9050
3214 15.8616 2902(54) 3066.4380 2910.8608
3215 15.8656 3115(56) 3066.9939 2914.8179
3216 15.8696 3058(55) 3066.3940 2918.7737
3217 15.8736 3041(55) 3064.8003 2922.7295
3218 15.8776 3115(56) 3062.1941 2926.6865
3219 15.8816 3154(56) 3058.5837 2930.6423
3220 15.8856 3361(58) 3054.5923 2934.5984
3221 15.8896 3014(55) 3050.1919 2938.5552
3222 15.8936 2860(53) 3045.5840 2942.5110
3223 15.8976 3004(55) 3040.9607 2946.4670
3224 15.9016 3084(56) 3036.5012 2950.4229
3225 15.9056 3067(55) 3032.3647 2954.3796
3226 15.9096 2931(54) 3028.6890 2958.3357
3227 15.9136 2907(54) 3025.6860 2962.2915
3228 15.9176 2853(53) 3023.2278 2966.2485
3229 15.9216 2832(53) 3021.3413 2970.2043
3230 15.9256 3250(57) 3020.3259 2974.1602
3231 15.9296 3390(58) 3020.0566 2978.1172
3232 15.9336 3342(58) 3020.5217 2982.0730
3233 15.9376 3074(55) 3021.6929 2986.0288
3234 15.9416 2964(54) 3023.5269 2989.9849
3235 15.9456 2888(54) 3025.9688 2993.9417
3236 15.9496 2832(53) 3028.9539 2997.8975
3237 15.9536 3025(55) 3032.4131 3001.8535
3238 15.9576 2950(54) 3036.2742 3005.8103
3239 15.9616 3247(57) 3040.4614 3009.7661
3240 15.9656 3028(55) 3044.9048 3013.7222
3241 15.9696 3026(55) 3049.5354 3017.6790
3242 15.9736 2900(54) 3054.2854 3021.6350
3243 15.9776 2809(53) 3059.0913 3025.5908
3244 15.9816 2781(53) 3063.8914 3029.5476
3245 15.9856 3059(55) 3068.6194 3033.5037
3246 15.9896 3015(55) 3073.2119 3037.4595
3247 15.9936 2978(55) 3077.6055 3041.4155
3248 15.9976 2942(54) 3081.7402 3045.3723
3249 16.0016 2946(54) 3085.5613 3049.3281
3250 16.0056 2914(54) 3089.0273 3053.2842
3251 16.0096 2822(53) 3092.1108 3057.2400
3252 16.0136 2802(53) 3094.8037 3061.1978
3253 16.0176 2802(53) 3097.1104 3065.1519
3254 16.0216 2885(54) 3099.0613 3069.1096
3255 16.0256 3061(55) 3100.7603 3073.0654
3256 16.0296 3042(55) 3102.1301 3077.0215
3257 16.0336 3180(56) 3103.2991 3080.9773
3258 16.0376 3060(55) 3104.3347 3084.9331
3259 16.0416 3197(57) 3105.3054 3088.8911
3260 16.0456 3169(56) 3106.2751 3092.8450
3261 16.0496 3118(56) 3107.3064 3096.8027
3262 16.0536 3143(56) 3108.4512 3100.7588
3263 16.0576 3117(56) 3109.7542 3104.7146
3264 16.0616 2985(55) 3111.0835 3108.6724
3265 16.0656 3239(57) 3112.7961 3112.6265
3266 16.0696 3326(58) 3114.7454 3116.5842
3267 16.0736 2979(55) 3116.9365 3120.5400
3268 16.0776 2994(55) 3119.3708 3124.4961
3269 16.0816 2991(55) 3122.0430 3128.4521
3270 16.0856 2951(54) 3124.9414 3132.4080
3271 16.0896 3065(55) 3127.8215 3136.3657
3272 16.0936 3013(55) 3131.1257 3140.3198
3273 16.0976 2999(55) 3134.6116 3144.2776
3274 16.1016 3005(55) 3138.2559 3148.2334
3275 16.1056 2927(54) 3142.0427 3152.1895
3276 16.1096 2927(54) 3145.9543 3156.1453
3277 16.1136 3036(55) 3149.9753 3160.1011
3278 16.1176 3074(55) 3154.0935 3164.0591
3279 16.1216 3198(57) 3158.2903 3168.0129
3280 16.1256 3072(55) 3162.5630 3171.9707
3281 16.1296 3006(55) 3166.8972 3175.9268
3282 16.1336 2944(54) 3171.2869 3179.8826
3283 16.1376 3166(56) 3175.7271 3183.8384
3284 16.1416 3106(56) 3180.2134 3187.7944
3285 16.1456 3085(56) 3184.7439 3191.7522
3286 16.1496 3136(56) 3189.3093 3195.7063
3287 16.1536 3137(56) 3193.9153 3199.6641
3288 16.1576 3079(55) 3198.5520 3203.6199
3289 16.1616 3061(55) 3203.2178 3207.5759
3290 16.1656 3211(57) 3207.9094 3211.5337
3291 16.1696 3307(58) 3212.6138 3215.4878
3292 16.1736 3191(56) 3217.3318 3219.4453
3293 16.1776 3251(57) 3222.0459 3223.3994
3294 16.1816 3154(56) 3226.7551 3227.3574
3295 16.1856 3194(57) 3231.4417 3231.3132
3296 16.1896 3256(57) 3236.0977 3235.2690
3297 16.1936 3294(57) 3240.7153 3239.2268
3298 16.1976 3001(55) 3245.2778 3243.1809
3299 16.2016 3150(56) 3249.7847 3247.1387
3300 16.2056 3201(57) 3254.2205 3251.0947
3301 16.2096 3086(56) 3258.5762 3255.0505
3302 16.2136 3037(55) 3262.8418 3259.0063
3303 16.2176 3147(56) 3267.0061 3262.9624
3304 16.2216 2976(55) 3271.0588 3266.9202
3305 16.2256 3276(57) 3274.9836 3270.8740
3306 16.2296 3210(57) 3278.7808 3274.8320
3307 16.2336 3097(56) 3282.4399 3278.7878
3308 16.2376 3276(57) 3285.9656 3282.7437
3309 16.2416 3234(57) 3289.3665 3286.6997
3310 16.2456 3130(56) 3292.6580 3290.6555
3311 16.2496 3378(58) 3295.4482 3294.6133
3312 16.2536 3545(60) 3298.5886 3298.5674
3313 16.2576 3290(57) 3301.7061 3302.5251
3314 16.2616 3552(60) 3304.8333 3306.4812
3315 16.2656 3259(57) 3308.0093 3310.4370
3316 16.2696 3348(58) 3311.2734 3314.3931
3317 16.2736 3353(58) 3314.6628 3318.3489
3318 16.2776 3238(57) 3318.2144 3322.3066
3319 16.2816 3118(56) 3321.9553 3326.2607
3320 16.2856 3330(58) 3325.9207 3330.2185
3321 16.2896 3098(56) 3330.1287 3334.1743
3322 16.2936 3049(55) 3334.6021 3338.1304
3323 16.2976 3101(56) 3339.3582 3342.0881
3324 16.3016 3234(57) 3344.4028 3346.0420
3325 16.3056 3426(59) 3349.7561 3350.0000
3326 16.3096 3338(58) 3355.4146 3353.9539
3327 16.3136 3382(58) 3361.3958 3357.9116
3328 16.3176 3448(59) 3367.6975 3361.8677
3329 16.3216 3253(57) 3374.3274 3365.8235
3330 16.3256 3326(58) 3381.2944 3369.7812
3331 16.3296 3504(59) 3388.5938 3373.7354
3332 16.3336 3404(58) 3396.2429 3377.6931
3333 16.3376 3526(59) 3404.2361 3381.6489
3334 16.3416 3358(58) 3412.5713 3385.6050
3335 16.3456 3260(57) 3421.2568 3389.5608
3336 16.3496 3366(58) 3430.2798 3393.5168
3337 16.3536 3211(57) 3439.6304 3397.4746
3338 16.3576 3278(57) 3449.2742 3401.4287
3339 16.3616 3219(57) 3459.2021 3405.3865
3340 16.3656 3272(57) 3469.3655 3409.3423
3341 16.3696 3464(59) 3479.7310 3413.2983
3342 16.3736 3502(59) 3490.2671 3417.2542
3343 16.3776 3490(59) 3500.8848 3421.2100
3344 16.3816 3328(58) 3511.5566 3425.1680
3345 16.3856 3370(58) 3522.2100 3429.1218
3346 16.3896 3407(58) 3532.8059 3433.0796
3347 16.3936 3293(57) 3542.2046 3435.9736
3348 16.3976 3156(56) 3548.2263 3435.6885
3349 16.4016 3298(57) 3553.9797 3435.4031
3350 16.4056 3347(58) 3559.3904 3435.1177
3351 16.4096 3309(58) 3564.3853 3434.8323
3352 16.4136 3425(59) 3568.8840 3434.5471
3353 16.4176 3577(60) 3577.4009 3434.2617
3354 16.4216 3600(60) 3580.7891 3433.9763
3355 16.4256 3510(59) 3583.5400 3433.6909
3356 16.4296 3425(59) 3585.6523 3433.4055
3357 16.4336 3402(58) 3587.1506 3433.1204
3358 16.4376 3486(59) 3588.0969 3432.8347
3359 16.4416 3441(59) 3588.5771 3432.5496
3360 16.4456 3512(59) 3588.7021 3432.2642
3361 16.4496 3445(59) 3588.5564 3431.9788
3362 16.4536 3420(58) 3588.3530 3431.6934
3363 16.4576 3339(58) 3588.1777 3431.4080
3364 16.4616 3101(56) 3588.1436 3431.1228
3365 16.4656 3309(58) 3588.3418 3430.8374
3366 16.4696 3273(57) 3588.8367 3430.5520
3367 16.4736 3495(59) 3589.6646 3430.2666
3368 16.4776 3663(61) 3590.8318 3429.9814
3369 16.4816 3672(61) 3592.3179 3429.6960
3370 16.4856 3611(60) 3594.0808 3429.4106
3371 16.4896 3577(60) 3596.0549 3429.1252
3372 16.4936 3748(61) 3598.1641 3428.8398
3373 16.4976 3601(60) 3600.3076 3428.5544
3374 16.5016 3594(60) 3602.3706 3428.2693
3375 16.5056 3646(60) 3604.2151 3427.9839
3376 16.5096 3666(61) 3605.6821 3427.6985
3377 16.5136 3539(59) 3606.5938 3427.4131
3378 16.5176 3703(61) 3606.7598 3427.1279
3379 16.5216 3710(61) 3605.9927 3426.8425
3380 16.5256 3499(59) 3604.1228 3426.5571
3381 16.5296 3407(58) 3601.0134 3426.2717
3382 16.5336 3341(58) 3596.5752 3425.9863
3383 16.5376 3471(59) 3590.7771 3425.7012
3384 16.5416 3587(60) 3583.6440 3425.4155
3385 16.5456 3548(60) 3575.2783 3425.1304
3386 16.5496 3576(60) 3565.8076 3424.8450
3387 16.5536 3605(60) 3555.4329 3424.5596
3388 16.5576 3600(60) 3544.3706 3424.2744
3389 16.5616 3480(59) 3532.8005 3423.9888
3390 16.5656 3652(60) 3521.0542 3423.7036
3391 16.5696 3609(60) 3509.3711 3423.4182
3392 16.5736 3558(60) 3497.9553 3423.1328
3393 16.5776 3466(59) 3548.6956 3422.8474
3394 16.5816 3436(59) 3539.8728 3422.5623
3395 16.5856 3576(60) 3543.4116 3422.2769
3396 16.5896 3316(58) 3536.6816 3421.9915
3397 16.5936 3472(59) 3530.9883 3421.7061
3398 16.5976 3500(59) 3526.3684 3421.4207
3399 16.6016 3450(59) 3522.8496 3421.1353
3400 16.6056 3422(58) 3520.4268 3420.8501
3401 16.6096 3603(60) 3519.0779 3420.5647
3402 16.6136 3450(59) 3518.8650 3420.2793
3403 16.6176 3474(59) 3519.5471 3419.9939
3404 16.6216 3711(61) 3521.1699 3419.7087
3405 16.6256 3734(61) 3523.6824 3419.4233
3406 16.6296 3426(59) 3527.1177 3419.1379
3407 16.6336 3368(58) 3531.2478 3418.8525
3408 16.6376 3604(60) 3536.1167 3418.5671
3409 16.6416 3409(58) 3541.8833 3418.2820
3410 16.6456 3337(58) 3548.1145 3417.9963
3411 16.6496 3250(57) 3554.9863 3417.7112
3412 16.6536 3617(60) 3562.2390 3417.4258
3413 16.6576 3526(59) 3570.2878 3417.1404
3414 16.6616 3487(59) 3578.8274 3416.8552
3415 16.6656 3509(59) 3587.9817 3416.5696
3416 16.6696 3709(61) 3597.6443 3416.2844
3417 16.6736 3685(61) 3607.8091 3415.9990
3418 16.6776 3810(62) 3618.4287 3415.7139
3419 16.6816 3745(61) 3629.4941 3415.4282
3420 16.6856 3846(62) 3640.9602 3415.1431
3421 16.6896 3732(61) 3652.7959 3414.8577
3422 16.6936 3698(61) 3664.9878 3414.5723
3423 16.6976 3764(61) 3677.5137 3414.2871
3424 16.7016 3900(62) 3690.3167 3414.0015
3425 16.7056 3831(62) 3703.3821 3413.7163
3426 16.7096 3783(62) 3716.6895 3413.4309
3427 16.7136 3869(62) 3730.2092 3413.1455
3428 16.7176 3957(63) 3743.9065 3412.8601
3429 16.7216 3906(62) 3757.7478 3412.5747
3430 16.7256 4011(63) 3771.6721 3412.2896
3431 16.7296 3745(61) 3785.6687 3412.0042
3432 16.7336 3987(63) 3799.6926 3411.7188
3433 16.7376 4102(64) 3813.7476 3411.4333
3434 16.7416 4037(64) 3827.8572 3411.1482
3435 16.7456 4219(65) 3842.0808 3410.8628
3436 16.7496 4059(64) 3856.5212 3410.5774
3437 16.7536 4013(63) 3871.2915 3410.2920
3438 16.7576 4111(64) 3886.5894 3410.0066
3439 16.7616 4091(64) 3902.5957 3409.7212
3440 16.7656 4126(64) 3919.5522 3409.4360
3441 16.7696 4250(65) 3937.7236 3409.1506
3442 16.7736 4270(65) 3957.4060 3408.8652
3443 16.7776 4239(65) 3978.5381 3408.5798
3444 16.7816 4207(65) 4002.2493 3408.2947
3445 16.7856 4257(65) 4028.7053 3408.0090
3446 16.7896 4182(65) 4058.0776 3407.7239
3447 16.7936 3963(63) 4090.9790 3407.4385
3448 16.7976 4147(64) 4127.9570 3407.1531
3449 16.8016 4519(67) 4169.5342 3406.8679
3450 16.8056 4525(67) 4216.4297 3406.5823
3451 16.8096 4620(68) 4269.2778 3406.2971
3452 16.8136 4947(70) 4329.0293 3406.0117
3453 16.8176 5257(73) 4396.6733 3405.7263
3454 16.8216 4997(71) 4473.6992 3405.4409
3455 16.8256 5014(71) 4562.3174 3405.1555
3456 16.8296 5191(72) 4665.7173 3404.8704
3457 16.8336 5132(72) 4789.6904 3404.5850
3458 16.8376 5197(72) 4942.7139 3404.2996
3459 16.8416 5554(75) 5138.3975 3404.0142
3460 16.8456 5895(77) 5397.0352 3403.7290
3461 16.8496 6257(79) 5747.6104 3403.4436
3462 16.8536 6771(82) 6229.6299 3403.1582
3463 16.8576 7909(89) 6892.7920 3402.8728
3464 16.8616 8724(93) 7799.3862 3402.5874
3465 16.8656 9592(98) 9017.8477 3402.3020
3466 16.8696 11759(108) 10622.4922 3402.0168
3467 16.8736 14286(120) 12685.1045 3401.7314
3468 16.8776 17094(131) 15265.3906 3401.4460
3469 16.8816 20689(144) 18397.6211 3401.1606
3470 16.8856 25219(159) 22059.9727 3400.8755
3471 16.8896 29456(172) 26160.0664 3400.5901
3472 16.8936 34462(186) 30468.6074 3400.3047
3473 16.8976 38377(196) 34603.7148 3400.0193
3474 16.9016 41383(203) 38036.6016 3399.7339
3475 16.9056 42973(207) 40213.2539 3399.4487
3476 16.9096 43123(208) 40755.8789 3399.1631
3477 16.9136 42638(206) 39608.4062 3398.8779
3478 16.9176 40407(201) 37016.1641 3398.5925
3479 16.9216 36724(192) 33406.0078 3398.3071
3480 16.9256 32478(180) 29246.3184 3398.0217
3481 16.9296 26911(164) 24961.0020 3397.7363
3482 16.9336 22633(150) 20892.2812 3397.4512
3483 16.9376 18582(136) 17260.8887 3397.1658
3484 16.9416 15206(123) 14194.2539 3396.8804
3485 16.9456 12871(113) 11720.9385 3396.5950
3486 16.9496 10860(104) 9803.7852 3396.3098
3487 16.9536 9385(97) 8365.0439 3396.0244
3488 16.9576 7963(89) 7310.2900 3395.7390
3489 16.9616 7238(85) 6548.6035 3395.4536
3490 16.9656 6520(81) 5998.7549 3395.1682
3491 16.9696 6226(79) 5598.6523 3394.8828
3492 16.9736 5662(75) 5301.5269 3394.5977
3493 16.9776 5339(73) 5074.9053 3394.3123
3494 16.9816 5349(73) 4897.0127 3394.0269
3495 16.9856 5340(73) 4753.5625 3393.7415
3496 16.9896 5046(71) 4635.5703 3393.4563
3497 16.9936 4953(70) 4536.8770 3393.1709
3498 16.9976 4949(70) 4453.7378 3392.8855
3499 17.0016 4804(69) 4383.4688 3392.6001
3500 17.0056 4597(68) 4324.2368 3392.3147
3501 17.0096 4537(67) 4274.7329 3392.0295
3502 17.0136 4689(68) 4233.9888 3391.7439
3503 17.0176 4484(67) 4201.2373 3391.4587
3504 17.0216 4495(67) 4176.1694 3391.1733
3505 17.0256 4307(66) 4158.3896 3390.8879
3506 17.0296 4435(67) 4147.5527 3390.6028
3507 17.0336 4490(67) 4143.5444 3390.3171
3508 17.0376 4615(68) 4146.2671 3390.0320
3509 17.0416 4452(67) 4155.6191 3389.7466
3510 17.0456 4434(67) 4171.6055 3389.4614
3511 17.0496 4424(67) 4194.1914 3389.1758
3512 17.0536 4489(67) 4223.2446 3388.8906
3513 17.0576 4382(66) 4258.2798 3388.6052
3514 17.0616 4481(67) 4299.7910 3388.3198
3515 17.0656 4633(68) 4347.0278 3388.0347
3516 17.0696 4504(67) 4399.5923 3387.7490
3517 17.0736 4635(68) 4456.7393 3387.4639
3518 17.0776 4849(70) 4517.5825 3387.1785
3519 17.0816 4864(70) 4580.9307 3386.8931
3520 17.0856 4820(69) 4645.2617 3386.6077
3521 17.0896 4633(68) 4708.6680 3386.3223
3522 17.0936 5032(71) 4768.9478 3386.0371
3523 17.0976 5078(71) 4823.6426 3385.7517
3524 17.1016 5132(72) 4870.0225 3385.4663
3525 17.1056 5033(71) 4905.5679 3385.1809
3526 17.1096 5108(71) 4928.1138 3384.8955
3527 17.1136 5160(72) 4936.1719 3384.6104
3528 17.1176 5023(71) 4929.1318 3384.3247
3529 17.1216 4873(70) 4907.3726 3384.0396
3530 17.1256 4920(70) 4872.0830 3383.7542
3531 17.1296 4978(71) 4825.1899 3383.4688
3532 17.1336 4995(71) 4768.9395 3383.1836
3533 17.1376 5043(71) 4705.6851 3382.8982
3534 17.1416 4838(70) 4637.5698 3382.6128
3535 17.1456 4923(70) 4566.6113 3382.3274
3536 17.1496 4984(71) 4494.7227 3382.0422
3537 17.1536 4648(68) 4422.9976 3381.7566
3538 17.1576 4669(68) 4352.5938 3381.4714
3539 17.1616 4650(68) 4284.2832 3381.1860
3540 17.1656 4539(67) 4218.6348 3380.9006
3541 17.1696 4383(66) 4156.1758 3380.6155
3542 17.1736 4341(66) 4097.0874 3380.3298
3543 17.1776 4309(66) 4043.6704 3380.0447
3544 17.1816 4062(64) 3991.9536 3379.7593
3545 17.1856 3801(62) 3944.0132 3379.4739
3546 17.1896 4023(63) 3899.7883 3379.1885
3547 17.1936 4199(65) 3859.1707 3378.9031
3548 17.1976 3927(63) 3822.0808 3378.6179
3549 17.2016 3821(62) 3788.2769 3378.3325
3550 17.2056 3688(61) 3757.6113 3378.0471
3551 17.2096 3616(60) 3729.9470 3377.7617
3552 17.2136 3540(59) 3704.8599 3377.4766
3553 17.2176 3542(60) 3682.2148 3377.1912
3554 17.2216 3662(61) 3661.7729 3376.9058
3555 17.2256 3659(60) 3643.5027 3376.6204
3556 17.2296 3927(63) 3626.8311 3376.3350
3557 17.2336 3724(61) 3550.7964 3376.0496
3558 17.2376 3849(62) 3538.5767 3375.7644
3559 17.2416 3668(61) 3516.1694 3375.4790
3560 17.2456 3659(60) 3506.4788 3375.1936
3561 17.2496 3571(60) 3497.7134 3374.9082
3562 17.2536 3569(60) 3489.7800 3374.6230
3563 17.2576 3542(60) 3482.5720 3374.3374
3564 17.2616 3462(59) 3476.0232 3374.0522
3565 17.2656 3607(60) 3470.0593 3373.7668
3566 17.2696 3328(58) 3464.6226 3373.4814
3567 17.2736 3514(59) 3459.6616 3373.1963
3568 17.2776 3589(60) 3455.1287 3372.9106
3569 17.2816 3413(58) 3450.9907 3372.6255
3570 17.2856 3386(58) 3447.2046 3372.3401
3571 17.2896 3300(57) 3443.7444 3372.0547
3572 17.2936 3322(58) 3441.0801 3371.7693
3573 17.2976 3421(58) 3438.1929 3371.4839
3574 17.3016 3230(57) 3435.5554 3371.1987
3575 17.3056 3362(58) 3433.1401 3370.9133
3576 17.3096 3379(58) 3430.9277 3370.6279
3577 17.3136 3232(57) 3428.8955 3370.3425
3578 17.3176 3162(56) 3427.0217 3370.0574
3579 17.3216 3064(55) 3425.2854 3369.7720
3580 17.3256 3018(55) 3423.6675 3369.4866
3581 17.3296 3134(56) 3422.6094 3369.2012
3582 17.3336 3042(55) 3421.1821 3368.9158
3583 17.3376 3028(55) 3419.8413 3368.6304
3584 17.3416 3085(56) 3418.5852 3368.3452
3585 17.3456 3124(56) 3417.4185 3368.0598
3586 17.3496 3317(58) 3416.3511 3367.7744
3587 17.3536 3312(58) 3415.3972 3367.4890
3588 17.3576 3144(56) 3414.5762 3367.2039
3589 17.3616 3213(57) 3413.8750 3366.9185
3590 17.3656 3164(56) 3413.3779 3366.6331
3591 17.3696 3250(57) 3413.0745 3366.3477
3592 17.3736 3278(57) 3412.9822 3366.0623
3593 17.3776 3527(59) 3413.1172 3365.7771
3594 17.3816 3422(58) 3412.2798 3364.2812
3595 17.3856 3402(58) 3410.4780 3361.5776
3596 17.3896 3299(57) 3408.9209 3358.8716
3597 17.3936 3216(57) 3407.6072 3356.1667
3598 17.3976 3022(55) 3406.5281 3353.4619
3599 17.4016 3173(56) 3405.6721 3350.7559
3600 17.4056 3363(58) 3405.0254 3348.0522
3601 17.4096 3353(58) 3404.5698 3345.3462
3602 17.4136 3088(56) 3404.2871 3342.6426
3603 17.4176 3016(55) 3404.1553 3339.9365
3604 17.4216 3258(57) 3404.1516 3337.2317
3605 17.4256 3086(56) 3404.2505 3334.5269
3606 17.4296 3250(57) 3404.4243 3331.8208
3607 17.4336 3179(56) 3404.6438 3329.1172
3608 17.4376 3165(56) 3404.8796 3326.4111
3609 17.4416 3143(56) 3405.1021 3323.7063
3610 17.4456 3077(55) 3405.2852 3321.0015
3611 17.4496 3071(55) 3405.4065 3318.2966
3612 17.4536 3257(57) 3405.4502 3315.5918
3613 17.4576 3190(56) 3405.4072 3312.8857
3614 17.4616 3062(55) 3405.2754 3310.1824
3615 17.4656 3097(56) 3405.0591 3307.4761
3616 17.4696 3254(57) 3404.7698 3304.7712
3617 17.4736 3327(58) 3404.4219 3302.0664
3618 17.4776 3150(56) 3404.0325 3299.3616
3619 17.4816 2954(54) 3403.6196 3296.6570
3620 17.4856 3118(56) 3403.1956 3293.9507
3621 17.4896 3397(58) 3402.7815 3291.2473
3622 17.4936 3297(57) 3402.3843 3288.5410
3623 17.4976 3344(58) 3401.9170 3285.8364
3624 17.5016 3230(57) 3401.5769 3283.1316
3625 17.5056 3555(60) 3401.2703 3280.4268
3626 17.5096 3433(59) 3400.9946 3277.7219
3627 17.5136 3490(59) 3400.7417 3275.0156
3628 17.5176 3245(57) 3400.4951 3272.3123
3629 17.5216 3200(57) 3399.8931 3269.6062
3630 17.5256 3245(57) 3399.5571 3266.9014
3631 17.5296 3328(58) 3399.1035 3264.1965
3632 17.5336 3232(57) 3398.4685 3261.4902
3633 17.5376 3261(57) 3397.5842 3258.7869
3634 17.5416 3109(56) 3396.3813 3256.0808
3635 17.5456 3311(58) 3394.8047 3253.3772
3636 17.5496 3304(57) 3393.0308 3250.6711
3637 17.5536 3471(59) 3390.6016 3247.9663
3638 17.5576 3262(57) 3387.7478 3245.2615
3639 17.5616 3277(57) 3384.5059 3242.5554
3640 17.5656 3303(57) 3380.9448 3239.8518
3641 17.5696 3305(57) 3377.1460 3237.1458
3642 17.5736 3194(57) 3373.2214 3234.4409
3643 17.5776 3374(58) 3369.2664 3231.7361
3644 17.5816 3081(56) 3365.2458 3229.0312
3645 17.5856 3258(57) 3361.6592 3226.3264
3646 17.5896 3333(58) 3358.5515 3223.6204
3647 17.5936 3335(58) 3355.7539 3220.9167
3648 17.5976 3087(56) 3353.4727 3218.2107
3649 17.6016 3116(56) 3351.7629 3215.5059
3650 17.6056 3197(57) 3350.6497 3212.8010
3651 17.6096 3135(56) 3350.1331 3210.0962
3652 17.6136 3170(56) 3350.1523 3207.3914
3653 17.6176 3219(57) 3350.7373 3204.6853
3654 17.6216 3361(58) 3351.7878 3201.9817
3655 17.6256 3248(57) 3353.2319 3199.2756
3656 17.6296 3187(56) 3354.9690 3196.5708
3657 17.6336 3179(56) 3356.9412 3193.8660
3658 17.6376 3310(58) 3359.0371 3191.1611
3659 17.6416 3230(57) 3361.1548 3188.4563
3660 17.6456 3128(56) 3363.1833 3185.7502
3661 17.6496 3009(55) 3364.9978 3183.0466
3662 17.6536 3006(55) 3366.4688 3180.3406
3663 17.6576 2963(54) 3367.4524 3177.6357
3664 17.6616 3232(57) 3367.8062 3174.9309
3665 17.6656 3342(58) 3367.3928 3172.2249
3666 17.6696 3076(55) 3366.0918 3169.5212
3667 17.6736 3180(56) 3363.8059 3166.8152
3668 17.6776 3168(56) 3360.4775 3164.1118
3669 17.6816 3262(57) 3356.0776 3161.4055
3670 17.6856 3171(56) 3350.6304 3158.7007
3671 17.6896 3101(56) 3344.1914 3155.9958
3672 17.6936 3114(56) 3336.8503 3153.2898
3673 17.6976 3121(56) 3328.7393 3150.5864
3674 17.7016 3203(57) 3319.9849 3147.8801
3675 17.7056 3071(55) 3310.7539 3145.1753
3676 17.7096 3090(56) 3301.1987 3142.4705
3677 17.7136 2991(55) 3291.4812 3139.7656
3678 17.7176 3126(56) 3281.7478 3137.0610
3679 17.7216 2988(55) 3316.7327 3134.3547
3680 17.7256 3161(56) 3308.4463 3131.6514
3681 17.7296 3255(57) 3300.5469 3128.9451
3682 17.7336 3174(56) 3293.1436 3126.2402
3683 17.7376 3210(57) 3286.3176 3123.5356
3684 17.7416 3422(58) 3280.1436 3120.8308
3685 17.7456 3269(57) 3274.8550 3118.1260
3686 17.7496 3135(56) 3270.1802 3115.4197
3687 17.7536 3250(57) 3266.3564 3112.7163
3688 17.7576 3224(57) 3263.4426 3110.0103
3689 17.7616 3124(56) 3261.5161 3107.3054
3690 17.7656 3178(56) 3260.6565 3104.6006
3691 17.7696 3207(57) 3260.9553 3101.8958
3692 17.7736 3224(57) 3262.7488 3099.1909
3693 17.7776 3347(58) 3265.6887 3096.4849
3694 17.7816 3177(56) 3270.1338 3093.7812
3695 17.7856 3198(57) 3276.2349 3091.0752
3696 17.7896 3221(57) 3284.1370 3088.3704
3697 17.7936 3162(56) 3294.0044 3085.6655
3698 17.7976 3015(55) 3306.0093 3082.9595
3699 17.8016 3132(56) 3320.2988 3080.2559
3700 17.8056 3403(58) 3337.0603 3077.5498
3701 17.8096 3514(59) 3356.4160 3074.8450
3702 17.8136 3401(58) 3373.9893 3072.1401
3703 17.8176 3437(59) 3398.9062 3069.4353
3704 17.8216 3571(60) 3426.6777 3066.7305
3705 17.8256 3574(60) 3457.2622 3064.0244
3706 17.8296 3429(59) 3490.4824 3061.3208
3707 17.8336 3458(59) 3526.1509 3058.6147
3708 17.8376 3390(58) 3563.8242 3055.9099
3709 17.8416 3501(59) 3602.9617 3053.2051
3710 17.8456 3649(60) 3642.8394 3050.5002
3711 17.8496 3780(61) 3682.5872 3047.7954
3712 17.8536 3873(62) 3721.2583 3045.0894
3713 17.8576 3703(61) 3757.8130 3042.3857
3714 17.8616 3852(62) 3791.3948 3039.6797
3715 17.8656 3895(62) 3821.1492 3036.9749
3716 17.8696 3857(62) 3846.4490 3034.2700
3717 17.8736 4019(63) 3866.8281 3031.5652
3718 17.8776 3935(63) 3882.0200 3028.8604
3719 17.8816 3781(61) 3891.9927 3026.1543
3720 17.8856 3983(63) 3896.8618 3023.4507
3721 17.8896 3954(63) 3897.3164 3020.7446
3722 17.8936 3765(61) 3893.9678 3018.0398
3723 17.8976 3886(62) 3887.6782 3015.3350
3724 17.9016 3799(62) 3879.3616 3012.6289
3725 17.9056 3760(61) 3869.9211 3009.9253
3726 17.9096 3973(63) 3860.1370 3007.2192
3727 17.9136 3922(63) 3850.7019 3004.5156
3728 17.9176 4102(64) 3842.1428 3001.8096
3729 17.9216 4051(64) 3834.9001 2999.1047
3730 17.9256 4008(63) 3829.3035 2996.3999
3731 17.9296 4003(63) 3825.6167 2993.6938
3732 17.9336 4052(64) 3824.0625 2990.9902
3733 17.9376 4124(64) 3824.8291 2988.2842
3734 17.9416 4208(65) 3828.0967 2985.5793
3735 17.9456 4380(66) 3834.0435 2982.8745
3736 17.9496 4301(66) 3843.2744 2980.1699
3737 17.9536 4233(65) 3855.1758 2977.4648
3738 17.9576 4141(64) 3870.4358 2974.7588
3739 17.9616 4089(64) 3889.3660 2972.0554
3740 17.9656 4148(64) 3912.4590 2969.3491
3741 17.9696 4057(64) 3940.3462 2966.6445
3742 17.9736 4125(64) 3974.0386 2963.9395
3743 17.9776 4090(64) 4015.1152 2961.2349
3744 17.9816 4287(65) 4068.7688 2958.5300
3745 17.9856 4427(67) 4133.7715 2955.8237
3746 17.9896 4665(68) 4218.9541 2953.1204
3747 17.9936 4912(70) 4334.0327 2950.4141
3748 17.9976 5202(72) 4492.7407 2947.7095
3749 18.0016 5424(74) 4714.3462 2945.0046
3750 18.0056 5800(76) 5024.1504 2942.2998
3751 18.0096 6362(80) 5453.6865 2939.5950
3752 18.0136 6688(82) 6040.3667 2936.8889
3753 18.0176 7369(86) 6824.1816 2934.1853
3754 18.0216 8354(91) 7848.6318 2931.4792
3755 18.0256 10050(100) 9151.0781 2928.7744
3756 18.0296 11359(107) 10761.5635 2926.0696
3757 18.0336 13370(116) 12692.3604 2923.3635
3758 18.0376 15650(125) 14921.1855 2920.6599
3759 18.0416 17335(132) 17384.4473 2917.9539
3760 18.0456 18860(137) 19938.7949 2915.2502
3761 18.0496 20354(143) 22360.3340 2912.5442
3762 18.0536 22164(149) 24335.4023 2909.8394
3763 18.0576 23384(153) 25541.1094 2907.1345
3764 18.0616 24926(158) 25758.3457 2904.4285
3765 18.0656 25076(158) 24965.9434 2901.7249
3766 18.0696 25022(158) 23327.7285 2899.0188
3767 18.0736 23490(153) 21109.7441 2896.3140
3768 18.0776 21039(145) 18588.8906 2893.6091
3769 18.0816 18305(135) 16008.2451 2890.9043
3770 18.0856 15024(123) 13557.2373 2888.1995
3771 18.0896 12160(110) 11364.5469 2885.4934
3772 18.0936 9871(99) 9504.0049 2882.7898
3773 18.0976 8120(90) 7991.7031 2880.0837
3774 18.1016 6755(82) 6810.7832 2877.3789
3775 18.1056 5612(75) 5916.9570 2874.6741
3776 18.1096 5388(73) 5256.2246 2871.9692
3777 18.1136 4974(71) 4774.5967 2869.2644
3778 18.1176 4509(67) 4424.4541 2866.5583
3779 18.1216 4212(65) 4168.1035 2863.8547
3780 18.1256 4062(64) 3976.4944 2861.1487
3781 18.1296 3926(63) 3829.6926 2858.4438
3782 18.1336 3615(60) 3713.8018 2855.7390
3783 18.1376 3493(59) 3619.6746 2853.0342
3784 18.1416 3487(59) 3541.3135 2850.3293
3785 18.1456 3565(60) 3474.7366 2847.6233
3786 18.1496 3265(57) 3417.3716 2844.9199
3787 18.1536 3471(59) 3367.2549 2842.2136
3788 18.1576 3350(58) 3323.1208 2839.5088
3789 18.1616 3239(57) 3283.9341 2836.8042
3790 18.1656 3242(57) 3248.9338 2834.0979
3791 18.1696 3247(57) 3217.4607 2831.3945
3792 18.1736 3343(58) 3188.9885 2828.6882
3793 18.1776 3123(56) 3163.1453 2825.9834
3794 18.1816 3096(56) 3139.5735 2823.2788
3795 18.1856 3195(57) 3117.9854 2820.5737
3796 18.1896 3142(56) 3098.1406 2817.8691
3797 18.1936 3064(55) 3079.8257 2815.1628
3798 18.1976 3069(55) 3062.8926 2812.4595
3799 18.2016 3085(56) 3047.1592 2809.7534
3800 18.2056 2973(55) 3032.5195 2807.0483
3801 18.2096 2842(53) 3018.8545 2804.3438
3802 18.2136 2847(53) 3006.0657 2801.6387
3803 18.2176 2923(54) 2994.0686 2798.9341
3804 18.2216 2999(55) 2982.7817 2796.2280
3805 18.2256 3084(56) 2972.1553 2793.5244
3806 18.2296 2899(54) 2962.1111 2790.8184
3807 18.2336 2696(52) 2952.6133 2788.1133
3808 18.2376 2914(54) 2943.6138 2785.4087
3809 18.2416 2717(52) 2935.0742 2782.7039
3810 18.2456 2602(51) 2926.9629 2779.9990
3811 18.2496 2716(52) 2919.2488 2777.2930
3812 18.2536 2751(52) 2911.9189 2774.5894
3813 18.2576 2779(53) 2904.9407 2771.8833
3814 18.2616 2843(53) 2898.3066 2769.1785
3815 18.2656 2952(54) 2891.9529 2766.4736
3816 18.2696 2886(54) 2885.9575 2763.7676
3817 18.2736 2999(55) 2880.2722 2761.0640
3818 18.2776 3272(57) 2874.8794 2758.3579
3819 18.2816 3119(56) 2869.7842 2755.6543
3820 18.2856 2756(52) 2865.0281 2752.9482
3821 18.2896 3017(55) 2860.3225 2750.2434
3822 18.2936 3054(55) 2856.1047 2747.5386
3823 18.2976 2986(55) 2852.1924 2744.8325
3824 18.3016 2913(54) 2848.6023 2742.1289
3825 18.3056 2768(53) 2845.3777 2739.4229
3826 18.3096 2549(50) 2842.4707 2736.7180
3827 18.3136 2641(51) 2839.9336 2734.0132
3828 18.3176 2732(52) 2837.7859 2731.3083
3829 18.3216 2912(54) 2836.0486 2728.6035
3830 18.3256 2819(53) 2834.7412 2725.8975
3831 18.3296 2677(52) 2833.7722 2723.1938
3832 18.3336 2779(53) 2833.3811 2720.4878
3833 18.3376 2816(53) 2833.4724 2717.7830
3834 18.3416 2889(54) 2834.0581 2715.0781
3835 18.3456 3173(56) 2835.1467 2712.3733
3836 18.3496 3070(55) 2836.7417 2709.6685
3837 18.3536 2925(54) 2838.8418 2706.9624
3838 18.3576 2671(52) 2841.4355 2704.2588
3839 18.3616 2631(51) 2844.5127 2701.5527
3840 18.3656 2856(53) 2848.0461 2698.8479
3841 18.3696 2730(52) 2852.0071 2696.1431
3842 18.3736 2713(52) 2856.3572 2693.4382
3843 18.3776 2964(54) 2861.0508 2690.7334
3844 18.3816 3004(55) 2865.8342 2688.0273
3845 18.3856 2911(54) 2870.9551 2685.3237
3846 18.3896 2756(52) 2876.5596 2682.6177
3847 18.3936 2641(51) 2882.0449 2679.9128
3848 18.3976 2711(52) 2844.0718 2677.2080
3849 18.4016 2628(51) 2850.5601 2674.5020
3850 18.4056 2561(51) 2856.7305 2671.7983
3851 18.4096 2602(51) 2862.8787 2669.0923
3852 18.4136 2688(52) 2868.7578 2666.3887
3853 18.4176 2614(51) 2874.3271 2663.6826
3854 18.4216 2732(52) 2879.5232 2660.9780
3855 18.4256 2964(54) 2884.3027 2658.2729
3856 18.4296 2887(54) 2888.6116 2655.5669
3857 18.4336 2797(53) 2891.9175 2652.8635
3858 18.4376 2718(52) 2895.1736 2650.1572
3859 18.4416 2845(53) 2897.8550 2647.4526
3860 18.4456 2836(53) 2899.9539 2644.7476
3861 18.4496 3006(55) 2901.4626 2642.0430
3862 18.4536 2911(54) 2902.4717 2639.3381
3863 18.4576 2755(52) 2903.0361 2636.6318
3864 18.4616 2745(52) 2903.2729 2633.9285
3865 18.4656 2861(53) 2903.7295 2631.2222
3866 18.4696 3011(55) 2903.8169 2628.5176
3867 18.4736 2787(53) 2904.1475 2625.8127
3868 18.4776 2849(53) 2904.9658 2623.1079
3869 18.4816 2633(51) 2906.5535 2620.4031
3870 18.4856 2802(53) 2909.1882 2617.6968
3871 18.4896 3101(56) 2913.1455 2614.9934
3872 18.4936 3130(56) 2918.7002 2612.2874
3873 18.4976 3209(57) 2926.1099 2609.5825
3874 18.5016 3325(58) 2935.6006 2606.8777
3875 18.5056 3478(59) 2947.3647 2604.1729
3876 18.5096 3300(57) 2961.5435 2601.4680
3877 18.5136 3240(57) 2978.2180 2598.7620
3878 18.5176 3041(55) 2997.3367 2596.0583
3879 18.5216 3043(55) 3019.1663 2593.3523
3880 18.5256 3194(57) 3042.5281 2590.6475
3881 18.5296 3395(58) 3067.2175 2587.9426
3882 18.5336 3402(58) 3092.3079 2585.2366
3883 18.5376 3253(57) 3116.4465 2582.5330
3884 18.5416 3300(57) 3137.9780 2579.8269
3885 18.5456 3118(56) 3154.8630 2577.1221
3886 18.5496 3080(55) 3165.0168 2574.4172
3887 18.5536 2939(54) 3166.5857 2571.7124
3888 18.5576 2919(54) 3158.3691 2569.0076
3889 18.5616 2842(53) 3140.1523 2566.3015
3890 18.5656 2859(53) 3112.8945 2563.5979
3891 18.5696 3022(55) 3078.4397 2560.8918
3892 18.5736 3012(55) 3039.2932 2558.1870
3893 18.5776 3046(55) 2997.9805 2555.4822
3894 18.5816 2964(54) 2956.7849 2552.7773
3895 18.5856 2983(55) 2917.2290 2550.0725
3896 18.5896 2941(54) 2878.4702 2547.3665
3897 18.5936 3030(55) 2845.0266 2544.6628
3898 18.5976 3021(55) 2816.2764 2543.2451
3899 18.6016 2999(55) 2791.2698 2542.2566
3900 18.6056 2906(54) 2769.3271 2541.2683
3901 18.6096 2966(54) 2749.9822 2540.2798
3902 18.6136 2788(53) 2732.9109 2539.2913
3903 18.6176 2759(53) 2717.7473 2538.3025
3904 18.6216 2843(53) 2704.1880 2537.3145
3905 18.6256 2839(53) 2691.9275 2536.3254
3906 18.6296 2915(54) 2680.7493 2535.3369
3907 18.6336 2892(54) 2670.4446 2534.3486
3908 18.6376 2583(51) 2660.8794 2533.3596
3909 18.6416 2637(51) 2651.9370 2532.3716
3910 18.6456 2560(51) 2643.5107 2531.3828
3911 18.6496 2567(51) 2635.5508 2530.3948
3912 18.6536 2656(52) 2627.9792 2529.4058
3913 18.6576 2714(52) 2620.8083 2528.4175
3914 18.6616 2874(54) 2613.9978 2527.4290
3915 18.6656 3023(55) 2607.5332 2526.4399
3916 18.6696 2822(53) 2601.4182 2525.4519
3917 18.6736 2647(51) 2595.6389 2524.4631
3918 18.6776 2556(51) 2590.2026 2523.4746
3919 18.6816 2480(50) 2585.1157 2522.4861
3920 18.6856 2652(51) 2580.3594 2521.4978
3921 18.6896 2711(52) 2575.9312 2520.5093
3922 18.6936 2752(52) 2571.8423 2519.5203
3923 18.6976 2501(50) 2568.0850 2518.5325
3924 18.7016 2736(52) 2564.6431 2517.5435
3925 18.7056 2753(52) 2561.5127 2516.5549
3926 18.7096 2778(53) 2558.6807 2515.5667
3927 18.7136 2625(51) 2556.1343 2514.5781
3928 18.7176 2673(52) 2553.8596 2513.5896
3929 18.7216 2733(52) 2551.8420 2512.6008
3930 18.7256 2575(51) 2550.0684 2511.6128
3931 18.7296 2394(49) 2572.1448 2510.6238
3932 18.7336 2425(49) 2571.3562 2509.6353
3933 18.7376 2714(52) 2570.7810 2508.6470
3934 18.7416 2529(50) 2570.4038 2507.6584
3935 18.7456 2543(50) 2570.2026 2506.6699
3936 18.7496 2493(50) 2570.1611 2505.6812
3937 18.7536 2475(50) 2570.2603 2504.6931
3938 18.7576 2434(49) 2570.4805 2503.7041
3939 18.7616 2528(50) 2570.8022 2502.7158
3940 18.7656 2348(48) 2571.2058 2501.7273
3941 18.7696 2376(49) 2571.6733 2500.7383
3942 18.7736 2484(50) 2572.1868 2499.7502
3943 18.7776 2577(51) 2572.7322 2498.7615
3944 18.7816 2686(52) 2574.4414 2497.7734
3945 18.7856 2542(50) 2575.1646 2496.7844
3946 18.7896 2368(49) 2575.7595 2495.7961
3947 18.7936 2554(51) 2576.3477 2494.8076
3948 18.7976 2632(51) 2576.9243 2493.8186
3949 18.8016 2571(51) 2577.4846 2492.8308
3950 18.8056 2409(49) 2578.0242 2491.8418
3951 18.8096 2462(50) 2578.5806 2490.8533
3952 18.8136 2429(49) 2579.0708 2489.8647
3953 18.8176 2405(49) 2579.5024 2488.8765
3954 18.8216 2372(49) 2579.8777 2487.8879
3955 18.8256 2538(50) 2580.5339 2486.8989
3956 18.8296 2524(50) 2580.7625 2485.9111
3957 18.8336 2523(50) 2580.9084 2484.9221
3958 18.8376 2531(50) 2580.9705 2483.9336
3959 18.8416 2439(49) 2580.9541 2482.9453
3960 18.8456 2494(50) 2580.8706 2481.9568
3961 18.8496 2826(53) 2580.7129 2480.9683
3962 18.8536 2893(54) 2580.5601 2479.9795
3963 18.8576 2712(52) 2580.4170 2478.9915
3964 18.8616 2519(50) 2580.3799 2478.0024
3965 18.8656 2649(51) 2580.3711 2477.0139
3966 18.8696 2567(51) 2580.4934 2476.0256
3967 18.8736 2563(51) 2580.7905 2475.0371
3968 18.8776 2592(51) 2581.3064 2474.0486
3969 18.8816 2673(52) 2582.0845 2473.0598
3970 18.8856 2555(51) 2583.1638 2472.0718
3971 18.8896 2646(51) 2584.5837 2471.0828
3972 18.8936 2691(52) 2586.3333 2470.0945
3973 18.8976 2793(53) 2588.5303 2469.1060
3974 18.9016 2725(52) 2591.1597 2468.1169
3975 18.9056 2751(52) 2594.2415 2467.1289
3976 18.9096 2756(52) 2597.8032 2466.1401
3977 18.9136 2758(53) 2601.8582 2465.1521
3978 18.9176 2535(50) 2606.5276 2464.1631
3979 18.9216 2510(50) 2611.6384 2463.1748
3980 18.9256 2615(51) 2617.4302 2462.1863
3981 18.9296 2665(52) 2623.6960 2461.1973
3982 18.9336 2648(51) 2630.5295 2460.2095
3983 18.9376 2540(50) 2638.0894 2459.2205
3984 18.9416 2575(51) 2646.3306 2458.2319
3985 18.9456 2749(52) 2655.3855 2457.2437
3986 18.9496 2533(50) 2665.2910 2456.2551
3987 18.9536 2678(52) 2676.1287 2455.2666
3988 18.9576 2548(50) 2687.9985 2454.2776
3989 18.9616 2571(51) 2700.9895 2453.2898
3990 18.9656 2620(51) 2715.2476 2452.3008
3991 18.9696 2836(53) 2730.8943 2451.3123
3992 18.9736 2924(54) 2748.1011 2450.3240
3993 18.9776 2882(54) 2767.0669 2449.3354
3994 18.9816 2805(53) 2788.0405 2448.3469
3995 18.9856 2854(53) 2811.3628 2447.3582
3996 18.9896 2955(54) 2837.4570 2446.3701
3997 18.9936 2953(54) 2867.0469 2445.3811
3998 18.9976 3056(55) 2901.1191 2444.3926
3999 19.0016 3074(55) 2941.2761 2443.4043
4000 19.0056 3229(57) 2989.9673 2442.4158
4001 19.0096 3176(56) 3050.8970 2441.4272
4002 19.0136 3444(59) 3129.5334 2440.4385
4003 19.0176 3340(58) 3233.4456 2439.4500
4004 19.0216 3580(60) 3372.9524 2438.4614
4005 19.0256 3974(63) 3561.2378 2437.4731
4006 19.0296 4018(63) 3814.3374 2436.4846
4007 19.0336 4209(65) 4150.6855 2435.4961
4008 19.0376 4480(67) 4590.1963 2434.5076
4009 19.0416 4968(70) 5153.0820 2433.5188
4010 19.0456 5425(74) 5856.6465 2432.5303
4011 19.0496 5844(76) 6713.9199 2431.5417
4012 19.0536 6902(83) 7728.5762 2430.5535
4013 19.0576 7794(88) 8889.3926 2429.5649
4014 19.0616 9008(95) 10162.2725 2428.5764
4015 19.0656 10247(101) 11480.9639 2427.5876
4016 19.0696 11458(107) 12736.1152 2426.5991
4017 19.0736 12333(111) 13782.1885 2425.6106
4018 19.0776 12912(114) 14463.0244 2424.6223
4019 19.0816 12914(114) 14665.0938 2423.6338
4020 19.0856 12688(113) 14363.5527 2422.6453
4021 19.0896 12277(111) 13625.4238 2421.6567
4022 19.0936 11256(106) 12572.6748 2420.6680
4023 19.0976 10144(101) 11342.4141 2419.6794
4024 19.1016 9211(96) 10057.6152 2418.6909
4025 19.1056 8209(91) 8817.6777 2417.7026
4026 19.1096 7271(85) 7693.7812 2416.7141
4027 19.1136 6476(80) 6728.1274 2415.7256
4028 19.1176 5674(75) 5935.4297 2414.7368
4029 19.1216 4958(70) 5308.8032 2413.7483
4030 19.1256 4775(69) 4824.3066 2412.7598
4031 19.1296 4563(68) 4450.7588 2411.7715
4032 19.1336 4245(65) 4157.5137 2410.7830
4033 19.1376 4208(65) 3920.0000 2409.7944
4034 19.1416 3995(63) 3718.6562 2408.8059
4035 19.1456 3947(63) 3548.2349 2407.8171
4036 19.1496 3772(61) 3400.1675 2406.8286
4037 19.1536 3575(60) 3271.1143 2405.8401
4038 19.1576 3479(59) 3159.4265 2404.8518
4039 19.1616 3408(58) 3064.0259 2403.8633
4040 19.1656 3156(56) 2983.9824 2402.8748
4041 19.1696 3217(57) 2918.0710 2401.8862
4042 19.1736 2932(54) 2864.7148 2400.8975
4043 19.1776 2894(54) 2822.1807 2399.9089
4044 19.1816 2859(53) 2788.5972 2398.9204
4045 19.1856 2919(54) 2762.2246 2397.9321
4046 19.1896 2912(54) 2741.5352 2396.9436
4047 19.1936 2775(53) 2725.2686 2395.9551
4048 19.1976 2926(54) 2712.4260 2394.9663
4049 19.2016 2699(52) 2702.2612 2393.9778
4050 19.2056 2706(52) 2694.2021 2392.9893
4051 19.2096 2875(54) 2687.8281 2392.0010
4052 19.2136 2462(50) 2682.8218 2391.0125
4053 19.2176 2390(49) 2678.9387 2390.0239
4054 19.2216 2455(50) 2675.9802 2389.0356
4055 19.2256 2687(52) 2673.7883 2388.0466
4056 19.2296 2747(52) 2672.2188 2387.0581
4057 19.2336 2686(52) 2671.1414 2386.0696
4058 19.2376 2778(53) 2670.4370 2385.0813
4059 19.2416 2685(52) 2669.9946 2384.0928
4060 19.2456 2721(52) 2669.7124 2383.1042
4061 19.2496 2469(50) 2669.4985 2382.1155
4062 19.2536 2385(49) 2669.1948 2381.1270
4063 19.2576 2451(50) 2668.8894 2380.1384
4064 19.2616 2420(49) 2668.4531 2379.1501
4065 19.2656 2505(50) 2667.8481 2378.1616
4066 19.2696 2386(49) 2667.0488 2377.1731
4067 19.2736 2523(50) 2666.0413 2376.1846
4068 19.2776 2577(51) 2664.8186 2375.1958
4069 19.2816 2423(49) 2663.3813 2374.2073
4070 19.2856 2491(50) 2661.7324 2373.2188
4071 19.2896 2367(49) 2659.8774 2372.2305
4072 19.2936 2503(50) 2657.7085 2371.2419
4073 19.2976 2574(51) 2655.4624 2370.2534
4074 19.3016 2538(50) 2653.0327 2369.2646
4075 19.3056 2631(51) 2650.5261 2368.2761
4076 19.3096 2356(49) 2647.7583 2367.2876
4077 19.3136 2381(49) 2644.8323 2366.2993
4078 19.3176 2467(50) 2641.7354 2365.3108
4079 19.3216 2423(49) 2638.4929 2364.3223
4080 19.3256 2524(50) 2635.0779 2363.3337
4081 19.3296 2527(50) 2631.4663 2362.3450
4082 19.3336 2544(50) 2627.9575 2361.3564
4083 19.3376 2496(50) 2623.8457 2360.3679
4084 19.3416 2667(52) 2619.4128 2359.3796
4085 19.3456 2730(52) 2614.5603 2358.3911
4086 19.3496 2557(51) 2609.3176 2357.4026
4087 19.3536 2446(49) 2603.3623 2356.4141
4088 19.3576 2505(50) 2597.0938 2355.4253
4089 19.3616 2744(52) 2590.2554 2354.4368
4090 19.3656 2743(52) 2582.8184 2353.4482
4091 19.3696 2762(53) 2574.7725 2352.4600
4092 19.3736 2973(55) 2566.1228 2351.4714
4093 19.3776 2698(52) 2556.8933 2350.4829
4094 19.3816 2565(51) 2547.1206 2349.4941
4095 19.3856 2535(50) 2536.8718 2348.5056
4096 19.3896 2524(50) 2526.2153 2347.5171
4097 19.3936 2469(50) 2515.2576 2346.5288
4098 19.3976 2518(50) 2504.2498 2345.5403
4099 19.4016 2541(50) 2493.1709 2344.5518
4100 19.4056 2565(51) 2481.8096 2343.5632
4101 19.4096 2624(51) 2470.5134 2342.5745
4102 19.4136 2647(51) 2459.3875 2341.5859
4103 19.4176 2705(52) 2448.5129 2340.5974
4104 19.4216 2610(51) 2441.5232 2339.6091
4105 19.4256 2451(50) 2431.4536 2338.6206
4106 19.4296 2478(50) 2398.5630 2337.6321
4107 19.4336 2653(52) 2389.9954 2336.6433
4108 19.4376 2538(50) 2381.9062 2335.6548
4109 19.4416 2420(49) 2374.3491 2334.6663
4110 19.4456 2344(48) 2367.3350 2333.6780
4111 19.4496 2303(48) 2360.8794 2332.6895
4112 19.4536 2255(47) 2354.9441 2331.7009
4113 19.4576 2414(49) 2349.5298 2330.7124
4114 19.4616 2399(49) 2344.6145 2329.7236
4115 19.4656 2335(48) 2340.1785 2328.7351
4116 19.4696 2346(48) 2336.1924 2327.7466
4117 19.4736 2349(48) 2332.6274 2326.7583
4118 19.4776 2316(48) 2329.4536 2325.7698
4119 19.4816 2382(49) 2325.5293 2324.7812
4120 19.4856 2264(48) 2323.0757 2323.7930
4121 19.4896 2209(47) 2320.9258 2322.8040
4122 19.4936 2290(48) 2319.0562 2321.8154
4123 19.4976 2469(50) 2317.4417 2320.8271
4124 19.5016 2383(49) 2316.0603 2319.8386
4125 19.5056 2256(47) 2314.8918 2318.8501
4126 19.5096 2331(48) 2313.9185 2317.8616
4127 19.5136 2311(48) 2313.1238 2316.8728
4128 19.5176 2327(48) 2312.4932 2315.8843
4129 19.5216 2385(49) 2312.0139 2314.8958
4130 19.5256 2385(49) 2311.6741 2313.9075
4131 19.5296 2361(49) 2311.4631 2312.9189
4132 19.5336 2278(48) 2311.3718 2311.9304
4133 19.5376 2136(46) 2311.3936 2310.9419
4134 19.5416 2292(48) 2311.5166 2309.9531
4135 19.5456 2473(50) 2311.7349 2308.9646
4136 19.5496 2309(48) 2312.0425 2307.9761
4137 19.5536 2310(48) 2312.4331 2306.9878
4138 19.5576 2225(47) 2312.9001 2305.9993
4139 19.5616 2110(46) 2313.4387 2305.0107
4140 19.5656 2296(48) 2314.0437 2304.0220
4141 19.5696 2370(49) 2314.7090 2303.0334
4142 19.5736 2435(49) 2315.4304 2302.0449
4143 19.5776 2485(50) 2316.2036 2301.0566
4144 19.5816 2350(48) 2317.0232 2300.0681
4145 19.5856 2507(50) 2317.8840 2299.0796
4146 19.5896 2567(51) 2318.7812 2298.0911
4147 19.5936 2569(51) 2319.7095 2297.1023
4148 19.5976 2405(49) 2320.6267 2296.1138
4149 19.6016 2353(49) 2321.5781 2295.1252
4150 19.6056 2388(49) 2322.5593 2294.1370
4151 19.6096 2315(48) 2323.5444 2293.1484
4152 19.6136 2484(50) 2324.5273 2292.1599
4153 19.6176 2399(49) 2325.5024 2291.1711
4154 19.6216 2173(47) 2326.4639 2290.1826
4155 19.6256 2146(46) 2327.4092 2289.1941
4156 19.6296 2114(46) 2328.3369 2288.2058
4157 19.6336 2143(46) 2329.2485 2287.2173
4158 19.6376 2328(48) 2329.7422 2286.2288
4159 19.6416 2566(51) 2330.6404 2285.2402
4160 19.6456 2530(50) 2331.5425 2284.2515
4161 19.6496 2650(51) 2332.4578 2283.2629
4162 19.6536 2613(51) 2333.4004 2282.2744
4163 19.6576 2448(49) 2334.4036 2281.2861
4164 19.6616 2343(48) 2335.4497 2280.2976
4165 19.6656 2398(49) 2336.5784 2279.3091
4166 19.6696 2369(49) 2337.8162 2278.3208
4167 19.6736 2365(49) 2339.1978 2277.3318
4168 19.6776 2430(49) 2340.7603 2276.3433
4169 19.6816 2497(50) 2342.5806 2275.3550
4170 19.6856 2438(49) 2344.7390 2274.3665
4171 19.6896 2562(51) 2347.3604 2273.3779
4172 19.6936 2305(48) 2350.6260 2272.3894
4173 19.6976 2338(48) 2354.8000 2271.4006
4174 19.7016 2330(48) 2360.2566 2270.4121
4175 19.7056 2253(47) 2367.5369 2269.4236
4176 19.7096 2260(48) 2377.3943 2268.4353
4177 19.7136 2312(48) 2390.8540 2267.4468
4178 19.7176 2316(48) 2409.2708 2266.4583
4179 19.7216 2328(48) 2434.3669 2265.4697
4180 19.7256 2509(50) 2468.2605 2264.4810
4181 19.7296 2544(50) 2513.3528 2263.4924
4182 19.7336 2555(51) 2572.4133 2262.5039
4183 19.7376 2724(52) 2647.9404 2261.5156
4184 19.7416 2853(53) 2742.3982 2260.5271
4185 19.7456 2825(53) 2857.7207 2259.5386
4186 19.7496 2977(55) 2994.5850 2258.5498
4187 19.7536 3227(57) 3151.9185 2257.5613
4188 19.7576 3331(58) 3326.7673 2256.5728
4189 19.7616 3572(60) 3513.5593 2255.5845
4190 19.7656 3529(59) 3703.3682 2254.5959
4191 19.7696 3427(59) 3882.7830 2253.6074
4192 19.7736 3791(62) 4033.5361 2252.6191
4193 19.7776 3878(62) 4134.9819 2251.6301
4194 19.7816 4150(64) 4170.0532 2250.6416
4195 19.7856 4335(66) 4132.3818 2249.6531
4196 19.7896 4155(64) 4028.3733 2248.6648
4197 19.7936 4175(65) 3873.6414 2247.6763
4198 19.7976 3867(62) 3687.1868 2246.6877
4199 19.8016 3747(61) 3487.0088 2245.6990
4200 19.8056 3614(60) 3288.4438 2244.7104
4201 19.8096 3392(58) 3102.8608 2243.7219
4202 19.8136 3046(55) 2937.8967 2242.7334
4203 19.8176 2862(53) 2805.3777 2241.7451
4204 19.8216 2694(52) 2690.6699 2240.7566
4205 19.8256 2715(52) 2600.0112 2239.7681
4206 19.8296 2552(51) 2530.3940 2238.7793
4207 19.8336 2444(49) 2478.2063 2237.7908
4208 19.8376 2478(50) 2439.6760 2236.8022
4209 19.8416 2496(50) 2411.4336 2235.8140
4210 19.8456 2498(50) 2390.6833 2234.8254
4211 19.8496 2272(48) 2375.2522 2233.8369
4212 19.8536 2301(48) 2363.5369 2232.8486
4213 19.8576 2320(48) 2354.3950 2231.8596
4214 19.8616 2433(49) 2347.0520 2230.8711
4215 19.8656 2354(49) 2340.9705 2229.8828
4216 19.8696 2268(48) 2335.7903 2228.8943
4217 19.8736 2572(51) 2331.2644 2227.9058
4218 19.8776 2421(49) 2327.2192 2226.9172
4219 19.8816 2582(51) 2323.5271 2225.9285
4220 19.8856 2383(49) 2320.1917 2224.9409
4221 19.8896 2300(48) 2318.7229 2225.7263
4222 19.8936 2201(47) 2317.3855 2226.5117
4223 19.8976 2387(49) 2316.1357 2227.2974
4224 19.9016 2332(48) 2314.9365 2228.0828
4225 19.9056 2115(46) 2313.7598 2228.8684
4226 19.9096 2032(45) 2312.5745 2229.6541
4227 19.9136 2261(48) 2311.3750 2230.4397
4228 19.9176 2215(47) 2310.1370 2231.2251
4229 19.9216 2309(48) 2308.8464 2232.0107
4230 19.9256 2217(47) 2307.4912 2232.7961
4231 19.9296 2387(49) 2306.0620 2233.5815
4232 19.9336 2359(49) 2305.3665 2234.3674
4233 19.9376 2297(48) 2303.7859 2235.1531
4234 19.9416 2278(48) 2302.1265 2235.9385
4235 19.9456 2223(47) 2300.3945 2236.7241
4236 19.9496 2258(48) 2298.6008 2237.5095
4237 19.9536 2318(48) 2296.7598 2238.2949
4238 19.9576 2352(48) 2294.8887 2239.0806
4239 19.9616 2216(47) 2293.0061 2239.8665
4240 19.9656 2160(46) 2291.1357 2240.6519
4241 19.9696 2222(47) 2289.2991 2241.4375
4242 19.9736 2211(47) 2287.5142 2242.2229
4243 19.9776 2218(47) 2285.8091 2243.0083
4244 19.9816 2211(47) 2284.2007 2243.7939
4245 19.9856 2123(46) 2282.7056 2244.5798
4246 19.9896 2123(46) 2281.3406 2245.3652
4247 19.9936 2181(47) 2280.1177 2246.1506
4248 19.9976 2227(47) 2279.0466 2246.9363
4249 20.0016 2214(47) 2278.1340 2247.7217
4250 20.0056 2226(47) 2277.3804 2248.5073
4251 20.0096 2271(48) 2276.7947 2249.2927
4252 20.0136 2273(48) 2276.3716 2250.0786
4253 20.0176 2311(48) 2276.1084 2250.8640
4254 20.0216 2442(49) 2276.0000 2251.6497
4255 20.0256 2338(48) 2276.0388 2252.4351
4256 20.0296 2257(48) 2276.2175 2253.2207
4257 20.0336 2294(48) 2276.5266 2254.0061
4258 20.0376 2299(48) 2276.9573 2254.7915
4259 20.0416 2311(48) 2277.5005 2255.5774
4260 20.0456 2358(49) 2278.8186 2256.3630
4261 20.0496 2279(48) 2279.5723 2257.1484
4262 20.0536 2293(48) 2280.2637 2257.9341
4263 20.0576 2380(49) 2281.1836 2258.7195
4264 20.0616 2497(50) 2282.1772 2259.5049
4265 20.0656 2374(49) 2283.2407 2260.2908
4266 20.0696 2238(47) 2284.3689 2261.0764
4267 20.0736 2216(47) 2285.5601 2261.8618
4268 20.0776 2256(47) 2289.9548 2262.6472
4269 20.0816 2240(47) 2291.3394 2263.4329
4270 20.0856 2363(49) 2292.7886 2264.2183
4271 20.0896 2206(47) 2294.3054 2265.0039
4272 20.0936 2242(47) 2295.8933 2265.7898
4273 20.0976 2330(48) 2297.5537 2266.5752
4274 20.1016 2153(46) 2299.2920 2267.3606
4275 20.1056 2261(48) 2304.0532 2268.1462
4276 20.1096 2626(51) 2306.0251 2268.9316
4277 20.1136 2651(51) 2308.0911 2269.7173
4278 20.1176 2577(51) 2309.9976 2270.5032
4279 20.1216 2265(48) 2312.2729 2271.2886
4280 20.1256 2207(47) 2314.6594 2272.0740
4281 20.1296 2362(49) 2317.1643 2272.8596
4282 20.1336 2277(48) 2319.7952 2273.6450
4283 20.1376 2164(47) 2319.0090 2274.4307
4284 20.1416 2284(48) 2321.9966 2275.2161
4285 20.1456 2453(50) 2325.1846 2276.0020
4286 20.1496 2552(51) 2328.4875 2276.7874
4287 20.1536 2414(49) 2331.9648 2277.5730
4288 20.1576 2442(49) 2335.6296 2278.3584
4289 20.1616 2420(49) 2339.4937 2279.1440
4290 20.1656 2218(47) 2343.5684 2279.9294
4291 20.1696 2201(47) 2347.8672 2280.7153
4292 20.1736 2195(47) 2352.6245 2281.5007
4293 20.1776 2194(47) 2357.3948 2282.2864
4294 20.1816 2308(48) 2362.4150 2283.0718
4295 20.1856 2154(46) 2367.6921 2283.8572
4296 20.1896 2325(48) 2373.2310 2284.6428
4297 20.1936 2450(49) 2379.0337 2285.4282
4298 20.1976 2301(48) 2385.1038 2286.2141
4299 20.2016 2313(48) 2391.4216 2286.9998
4300 20.2056 2251(47) 2398.0107 2287.7852
4301 20.2096 2381(49) 2404.8525 2288.5706
4302 20.2136 2378(49) 2411.9397 2289.3562
4303 20.2176 2375(49) 2419.3726 2290.1416
4304 20.2216 2357(49) 2426.9177 2290.9272
4305 20.2256 2489(50) 2434.6770 2291.7129
4306 20.2296 2502(50) 2442.6287 2292.4985
4307 20.2336 2519(50) 2450.7598 2293.2839
4308 20.2376 2353(49) 2459.0530 2294.0696
4309 20.2416 2445(49) 2467.4856 2294.8550
4310 20.2456 2550(50) 2475.8523 2295.6406
4311 20.2496 2489(50) 2484.5264 2296.4263
4312 20.2536 2462(50) 2493.2917 2297.2119
4313 20.2576 2384(49) 2502.1426 2297.9973
4314 20.2616 2401(49) 2511.0767 2298.7830
4315 20.2656 2275(48) 2519.9546 2299.5684
4316 20.2696 2347(48) 2529.2852 2300.3538
4317 20.2736 2625(51) 2538.5459 2301.1394
4318 20.2776 2593(51) 2548.0559 2301.9253
4319 20.2816 2499(50) 2557.7241 2302.7107
4320 20.2856 2436(49) 2567.6968 2303.4963
4321 20.2896 2706(52) 2578.0618 2304.2817
4322 20.2936 2724(52) 2588.9277 2305.0671
4323 20.2976 2647(51) 2600.4238 2305.8528
4324 20.3016 2501(50) 2612.8823 2306.6387
4325 20.3056 2650(51) 2626.0774 2307.4241
4326 20.3096 2531(50) 2640.4956 2308.2095
4327 20.3136 2684(52) 2656.3325 2308.9951
4328 20.3176 2692(52) 2673.8726 2309.7805
4329 20.3216 2590(51) 2693.4397 2310.5662
4330 20.3256 2626(51) 2715.4023 2311.3516
4331 20.3296 2688(52) 2740.1904 2312.1375
4332 20.3336 2683(52) 2768.2520 2312.9229
4333 20.3376 2844(53) 2800.1292 2313.7085
4334 20.3416 2618(51) 2836.4199 2314.4939
4335 20.3456 2705(52) 2877.8213 2315.2795
4336 20.3496 2765(53) 2925.0403 2316.0649
4337 20.3536 2858(53) 2978.9690 2316.8508
4338 20.3576 2847(53) 3040.4822 2317.6362
4339 20.3616 3021(55) 3110.6060 2318.4219
4340 20.3656 3227(57) 3190.3975 2319.2073
4341 20.3696 3128(56) 3280.9297 2319.9929
4342 20.3736 3299(57) 3383.2471 2320.7783
4343 20.3776 3524(59) 3498.2512 2321.5637
4344 20.3816 3868(62) 3626.6519 2322.3496
4345 20.3856 4019(63) 3768.4805 2323.1353
4346 20.3896 4062(64) 3923.2341 2323.9207
4347 20.3936 4077(64) 4089.2808 2324.7063
4348 20.3976 4203(65) 4263.5664 2325.4917
4349 20.4016 4723(69) 4441.4805 2326.2771
4350 20.4056 4608(68) 4617.1494 2327.0627
4351 20.4096 4847(70) 4784.6157 2327.8486
4352 20.4136 5028(71) 4939.2764 2328.6340
4353 20.4176 5506(74) 5079.8525 2329.4194
4354 20.4216 5700(75) 5208.2339 2330.2051
4355 20.4256 5710(76) 5328.1460 2330.9905
4356 20.4296 5908(77) 5442.7207 2331.7761
4357 20.4336 5913(77) 5551.9111 2332.5620
4358 20.4376 5956(77) 5650.5811 2333.3474
4359 20.4416 5867(77) 5729.5098 2334.1328
4360 20.4456 5998(77) 5778.9487 2334.9185
4361 20.4496 5947(77) 5793.4941 2335.7039
4362 20.4536 6043(78) 5773.9863 2336.4895
4363 20.4576 5765(76) 5724.7495 2337.2749
4364 20.4616 5474(74) 5648.7725 2338.0608
4365 20.4656 5205(72) 5544.7451 2338.8462
4366 20.4696 4851(70) 5407.8232 2339.6318
4367 20.4736 5103(71) 5233.8691 2340.4172
4368 20.4776 5316(73) 5024.1660 2341.2029
4369 20.4816 5265(73) 4786.8721 2341.9883
4370 20.4856 4872(70) 4534.2383 2342.7742
4371 20.4896 4639(68) 4279.4893 2343.5596
4372 20.4936 4407(66) 4033.6172 2344.3452
4373 20.4976 3937(63) 3804.9805 2345.1306
4374 20.5016 3625(60) 3599.1584 2345.9160
4375 20.5056 3455(59) 3419.1914 2346.7017
4376 20.5096 3307(58) 3265.8962 2347.4871
4377 20.5136 3363(58) 3138.2144 2348.2729
4378 20.5176 3267(57) 3033.9351 2349.0586
4379 20.5216 3053(55) 2949.8608 2349.8440
4380 20.5256 2876(54) 2882.5415 2350.6294
4381 20.5296 2804(53) 2828.6943 2351.4150
4382 20.5336 2786(53) 2785.3291 2352.2004
4383 20.5376 2914(54) 2749.9951 2352.9863
4384 20.5416 2778(53) 2720.7881 2353.7720
4385 20.5456 2708(52) 2696.2449 2354.5574
4386 20.5496 2709(52) 2675.3352 2355.3428
4387 20.5536 2803(53) 2657.3032 2356.1284
4388 20.5576 2765(53) 2641.6555 2356.9138
4389 20.5616 2713(52) 2627.9902 2357.6995
4390 20.5656 2660(52) 2616.1738 2358.4854
4391 20.5696 2818(53) 2605.9954 2359.2708
4392 20.5736 2726(52) 2597.3435 2360.0562
4393 20.5776 2709(52) 2590.0981 2360.8418
4394 20.5816 2699(52) 2584.2075 2361.6272
4395 20.5856 2848(53) 2579.6189 2362.4126
4396 20.5896 2689(52) 2576.2908 2363.1982
4397 20.5936 2641(51) 2574.1880 2363.9841
4398 20.5976 2697(52) 2573.2815 2364.7695
4399 20.6016 2755(52) 2573.5444 2365.5552
4400 20.6056 2731(52) 2574.9480 2366.3406
4401 20.6096 2671(52) 2577.4617 2367.1260
4402 20.6136 2781(53) 2581.1079 2367.9116
4403 20.6176 2708(52) 2585.7297 2368.6975
4404 20.6216 2577(51) 2591.3262 2369.4829
4405 20.6256 2503(50) 2597.8311 2370.2686
4406 20.6296 2578(51) 2605.1550 2371.0540
4407 20.6336 2511(50) 2613.1838 2371.8394
4408 20.6376 2629(51) 2621.7756 2372.6250
4409 20.6416 2654(52) 2630.7292 2373.4104
4410 20.6456 2671(52) 2639.8586 2374.1963
4411 20.6496 2654(52) 2648.8655 2374.9819
4412 20.6536 2559(51) 2657.4363 2375.7673
4413 20.6576 2533(50) 2665.2190 2376.5527
4414 20.6616 2630(51) 2671.8450 2377.3384
4415 20.6656 2549(50) 2676.9585 2378.1238
4416 20.6696 2696(52) 2680.2546 2378.9097
4417 20.6736 2731(52) 2681.5100 2379.6951
4418 20.6776 2757(53) 2680.6233 2380.4807
4419 20.6816 2817(53) 2677.6155 2381.2661
4420 20.6856 2882(54) 2672.6443 2382.0518
4421 20.6896 2841(53) 2665.9551 2382.8372
4422 20.6936 2764(53) 2657.8625 2383.6226
4423 20.6976 2644(51) 2648.7041 2384.4084
4424 20.7016 2672(52) 2638.8230 2385.1941
4425 20.7056 2609(51) 2628.5186 2385.9795
4426 20.7096 2499(50) 2618.0508 2386.7651
4427 20.7136 2497(50) 2607.6279 2387.5505
4428 20.7176 2271(48) 2597.4021 2388.3359
4429 20.7216 2287(48) 2587.5127 2389.1216
4430 20.7256 2329(48) 2578.0286 2389.9075
4431 20.7296 2359(49) 2569.0137 2390.6929
4432 20.7336 2313(48) 2560.4968 2391.4785
4433 20.7376 2373(49) 2552.4929 2392.2639
4434 20.7416 2417(49) 2545.0049 2393.0493
4435 20.7456 2432(49) 2538.0242 2393.8350
4436 20.7496 2432(49) 2531.5352 2394.6208
4437 20.7536 2510(50) 2525.5122 2395.4062
4438 20.7576 2472(50) 2519.9272 2396.1917
4439 20.7616 2565(51) 2514.7468 2396.9773
4440 20.7656 2475(50) 2509.9341 2397.7627
4441 20.7696 2521(50) 2505.4509 2398.5483
4442 20.7736 2437(49) 2501.2590 2399.3337
4443 20.7776 2398(49) 2496.6582 2400.1196
4444 20.7816 2271(48) 2492.9551 2400.9050
4445 20.7856 2339(48) 2489.4673 2401.6907
4446 20.7896 2365(49) 2486.1145 2402.4761
4447 20.7936 2334(48) 2482.9021 2403.2617
4448 20.7976 2374(49) 2479.6614 2403.8955
4449 20.8016 2291(48) 2476.0757 2404.0745
4450 20.8056 2135(46) 2472.5938 2404.2532
4451 20.8096 2100(46) 2469.2146 2404.4321
4452 20.8136 2338(48) 2462.8457 2404.6108
4453 20.8176 2364(49) 2459.7363 2404.7898
4454 20.8216 2249(47) 2456.7329 2404.9685
4455 20.8256 2307(48) 2453.8420 2405.1475
4456 20.8296 2142(46) 2451.0664 2405.3264
4457 20.8336 2287(48) 2448.4634 2405.5051
4458 20.8376 2395(49) 2445.9485 2405.6841
4459 20.8416 2302(48) 2440.7058 2405.8628
4460 20.8456 2392(49) 2438.5310 2406.0417
4461 20.8496 2423(49) 2436.4993 2406.2205
4462 20.8536 2266(48) 2434.6118 2406.3994
4463 20.8576 2345(48) 2432.8711 2406.5784
4464 20.8616 2471(50) 2431.2627 2406.7571
4465 20.8656 2592(51) 2429.8098 2406.9360
4466 20.8696 2427(49) 2428.4958 2407.1147
4467 20.8736 2564(51) 2427.3179 2407.2937
4468 20.8776 2479(50) 2426.3223 2407.4724
4469 20.8816 2452(50) 2425.4001 2407.6514
4470 20.8856 2501(50) 2424.6326 2407.8303
4471 20.8896 2613(51) 2423.9460 2408.0090
4472 20.8936 2530(50) 2423.3696 2408.1880
4473 20.8976 2511(50) 2422.8975 2408.3667
4474 20.9016 2695(52) 2422.5254 2408.5457
4475 20.9056 2879(54) 2422.2488 2408.7244
4476 20.9096 2783(53) 2422.0645 2408.9033
4477 20.9136 2720(52) 2421.9692 2409.0823
4478 20.9176 2605(51) 2421.9602 2409.2610
4479 20.9216 2568(51) 2422.0356 2409.4399
4480 20.9256 2380(49) 2422.1936 2409.6187
4481 20.9296 2489(50) 2422.4331 2409.7976
4482 20.9336 2436(49) 2422.7532 2409.9766
4483 20.9376 2219(47) 2423.1382 2410.1553
4484 20.9416 2208(47) 2423.6162 2410.3342
4485 20.9456 2186(47) 2424.1724 2410.5129
4486 20.9496 2320(48) 2424.8064 2410.6919
4487 20.9536 2464(50) 2425.5173 2410.8706
4488 20.9576 2301(48) 2426.3054 2411.0496
4489 20.9616 2233(47) 2427.1709 2411.2285
4490 20.9656 2341(48) 2428.1128 2411.4072
4491 20.9696 2383(49) 2429.1318 2411.5862
4492 20.9736 2288(48) 2430.2280 2411.7649
4493 20.9776 2378(49) 2436.9075 2411.9438
4494 20.9816 2387(49) 2438.2776 2412.1226
4495 20.9856 2331(48) 2439.7310 2412.3015
4496 20.9896 2356(49) 2441.2661 2412.4805
4497 20.9936 2500(50) 2442.8882 2412.6592
4498 20.9976 2363(49) 2444.5864 2412.8381
4499 21.0016 2461(50) 2446.3633 2413.0168
4500 21.0056 2292(48) 2448.2166 2413.1958
4501 21.0096 2336(48) 2450.1414 2413.3745
4502 21.0136 2360(49) 2452.1331 2413.5535
4503 21.0176 2370(49) 2454.1829 2413.7324
4504 21.0216 2371(49) 2456.2815 2413.9111
4505 21.0256 2377(49) 2450.6943 2414.0901
4506 21.0296 2540(50) 2452.9585 2414.2688
4507 21.0336 2522(50) 2455.2336 2414.4478
4508 21.0376 2434(49) 2457.5056 2414.6267
4509 21.0416 2354(49) 2459.7571 2414.8054
4510 21.0456 2355(49) 2461.9744 2414.9844
4511 21.0496 2220(47) 2464.1426 2415.1631
4512 21.0536 2439(49) 2466.2483 2415.3420
4513 21.0576 2559(51) 2468.2783 2415.5208
4514 21.0616 2492(50) 2470.2227 2415.6997
4515 21.0656 2340(48) 2472.0718 2415.8784
4516 21.0696 2356(49) 2473.8162 2416.0574
4517 21.0736 2325(48) 2475.4475 2416.2363
4518 21.0776 2291(48) 2476.9570 2416.4150
4519 21.0816 2511(50) 2478.3474 2416.5940
4520 21.0856 2529(50) 2479.5835 2416.7727
4521 21.0896 2465(50) 2480.6655 2416.9517
4522 21.0936 2448(49) 2481.5811 2417.1304
4523 21.0976 2364(49) 2482.3171 2417.3093
4524 21.1016 2452(50) 2482.8081 2417.4880
4525 21.1056 2580(51) 2483.1575 2417.6670
4526 21.1096 2374(49) 2483.3079 2417.8459
4527 21.1136 2327(48) 2483.2620 2418.0247
4528 21.1176 2455(50) 2483.0276 2418.2036
4529 21.1216 2548(50) 2482.6108 2418.3823
4530 21.1256 2497(50) 2482.0200 2418.5613
4531 21.1296 2489(50) 2481.3630 2418.7400
4532 21.1336 2418(49) 2480.6313 2418.9189
4533 21.1376 2460(50) 2479.8669 2419.0977
4534 21.1416 2518(50) 2479.1167 2419.2766
4535 21.1456 2596(51) 2478.4290 2419.4556
4536 21.1496 2433(49) 2477.8542 2419.6343
4537 21.1536 2375(49) 2477.4426 2419.8132
4538 21.1576 2393(49) 2477.2422 2419.9919
4539 21.1616 2423(49) 2477.3003 2420.1709
4540 21.1656 2447(49) 2477.6597 2420.3496
4541 21.1696 2417(49) 2478.3611 2420.5286
4542 21.1736 2308(48) 2479.4390 2420.7075
4543 21.1776 2394(49) 2480.9167 2420.8862
4544 21.1816 2501(50) 2482.8369 2421.0652
4545 21.1856 2455(50) 2485.2126 2421.2439
4546 21.1896 2424(49) 2488.0618 2421.4229
4547 21.1936 2654(52) 2491.4001 2421.6016
4548 21.1976 2509(50) 2495.2314 2421.7805
4549 21.2016 2560(51) 2499.5605 2421.9595
4550 21.2056 2506(50) 2504.3901 2422.1382
4551 21.2096 2601(51) 2509.7188 2422.3171
4552 21.2136 2483(50) 2515.5415 2422.4958
4553 21.2176 2537(50) 2521.8516 2422.6748
4554 21.2216 2540(50) 2528.6421 2422.8538
4555 21.2256 2433(49) 2535.8958 2423.0325
4556 21.2296 2486(50) 2543.6482 2423.2114
4557 21.2336 2493(50) 2551.7944 2423.3901
4558 21.2376 2421(49) 2560.3684 2423.5691
4559 21.2416 2626(51) 2569.3586 2423.7478
4560 21.2456 2799(53) 2578.7581 2423.9268
4561 21.2496 2603(51) 2588.5720 2424.1057
4562 21.2536 2604(51) 2598.8040 2424.2844
4563 21.2576 2526(50) 2609.4932 2424.4634
4564 21.2616 2706(52) 2620.7078 2424.6421
4565 21.2656 2790(53) 2632.5706 2424.8210
4566 21.2696 2780(53) 2645.2869 2424.9998
4567 21.2736 2696(52) 2659.3013 2425.1787
4568 21.2776 2623(51) 2674.9026 2425.3577
4569 21.2816 2674(52) 2692.9458 2425.5364
4570 21.2856 2991(55) 2724.2998 2425.7153
4571 21.2896 3149(56) 2751.0686 2425.8940
4572 21.2936 3335(58) 2788.5759 2426.0730
4573 21.2976 3178(56) 2831.7200 2426.2517
4574 21.3016 3044(55) 2887.1248 2426.4307
4575 21.3056 2962(54) 2958.0408 2426.6096
4576 21.3096 3083(56) 3048.0215 2426.7883
4577 21.3136 3072(55) 3160.6060 2426.9673
4578 21.3176 3044(55) 3299.0132 2427.1460
4579 21.3216 3205(57) 3465.7188 2427.3250
4580 21.3256 3550(60) 3661.9026 2427.5037
4581 21.3296 3777(61) 3886.8826 2427.6826
4582 21.3336 4021(63) 4136.5835 2427.8616
4583 21.3376 4357(66) 4403.4072 2428.0403
4584 21.3416 4700(69) 4673.3896 2428.2192
4585 21.3456 5116(72) 4926.7539 2428.3979
4586 21.3496 5377(73) 5137.7891 2428.5769
4587 21.3536 5541(74) 5279.4448 2428.7559
4588 21.3576 5478(74) 5330.7393 2428.9346
4589 21.3616 5570(75) 5284.4478 2429.1135
4590 21.3656 5812(76) 5148.6230 2429.2922
4591 21.3696 5374(73) 4942.3564 2429.4712
4592 21.3736 4931(70) 4689.1870 2429.6499
4593 21.3776 4614(68) 4412.0903 2429.8289
4594 21.3816 4198(65) 4130.7881 2430.0078
4595 21.3856 3711(61) 3861.2861 2430.1865
4596 21.3896 3622(60) 3614.7698 2430.3655
4597 21.3936 3429(59) 3398.2173 2430.5442
4598 21.3976 3133(56) 3214.6538 2430.7231
4599 21.4016 3146(56) 3063.9702 2430.9019
4600 21.4056 3073(55) 2943.5669 2431.0808
4601 21.4096 3053(55) 2849.6262 2431.2595
4602 21.4136 3127(56) 2777.5723 2431.4385
4603 21.4176 3206(57) 2722.9446 2431.6172
4604 21.4216 3053(55) 2680.9426 2431.7961
4605 21.4256 2994(55) 2649.8403 2431.9751
4606 21.4296 2772(53) 2626.1970 2432.1538
4607 21.4336 2837(53) 2608.0168 2432.3328
4608 21.4376 2783(53) 2593.8896 2432.5115
4609 21.4416 2615(51) 2582.7769 2432.6904
4610 21.4456 2518(50) 2573.9727 2432.8691
4611 21.4496 2584(51) 2566.9810 2433.0481
4612 21.4536 2654(52) 2561.4563 2433.2268
4613 21.4576 2732(52) 2557.1523 2433.4058
4614 21.4616 2685(52) 2553.8862 2433.5847
4615 21.4656 2497(50) 2551.5237 2433.7634
4616 21.4696 2550(50) 2549.9548 2433.9424
4617 21.4736 2632(51) 2549.0933 2434.1211
4618 21.4776 2737(52) 2548.8687 2434.3000
4619 21.4816 2538(50) 2549.2219 2434.4788
4620 21.4856 2447(49) 2550.1060 2434.6577
4621 21.4896 2540(50) 2551.4810 2434.8367
4622 21.4936 2734(52) 2553.3145 2435.0154
4623 21.4976 2535(50) 2555.5823 2435.1943
4624 21.5016 2519(50) 2558.2649 2435.3730
4625 21.5056 2574(51) 2561.3489 2435.5520
4626 21.5096 2450(49) 2564.8247 2435.7307
4627 21.5136 2625(51) 2568.6902 2435.9097
4628 21.5176 2694(52) 2572.9414 2436.0886
4629 21.5216 2803(53) 2577.5830 2436.2673
4630 21.5256 2807(53) 2582.6235 2436.4463
4631 21.5296 2829(53) 2588.0745 2436.6250
4632 21.5336 2776(53) 2593.9529 2436.8040
4633 21.5376 2697(52) 2600.2849 2436.9829
4634 21.5416 2618(51) 2607.0928 2437.1616
4635 21.5456 2757(53) 2614.4163 2437.3406
4636 21.5496 2861(53) 2622.3005 2437.5193
4637 21.5536 2773(53) 2630.8010 2437.6982
4638 21.5576 2891(54) 2639.9880 2437.8770
4639 21.5616 2907(54) 2649.9482 2438.0559
4640 21.5656 2851(53) 2660.7988 2438.2349
4641 21.5696 2813(53) 2672.6799 2438.4136
4642 21.5736 2761(53) 2685.8054 2438.5925
4643 21.5776 2697(52) 2708.2368 2438.7712
4644 21.5816 2640(51) 2725.0542 2438.9502
4645 21.5856 2521(50) 2744.5232 2439.1289
4646 21.5896 2824(53) 2767.6345 2439.3079
4647 21.5936 2961(54) 2795.7959 2439.4868
4648 21.5976 3023(55) 2831.0542 2439.6655
4649 21.6016 2736(52) 2876.2280 2439.8445
4650 21.6056 2843(53) 2935.1160 2440.0232
4651 21.6096 2740(52) 3012.4756 2440.2021
4652 21.6136 3064(55) 3114.3364 2440.3809
4653 21.6176 3154(56) 3247.8008 2440.5598
4654 21.6216 3281(57) 3420.6531 2440.7388
4655 21.6256 3603(60) 3641.3496 2440.9175
4656 21.6296 3622(60) 3918.2144 2441.0964
4657 21.6336 3988(63) 4258.7197 2441.2751
4658 21.6376 4364(66) 4668.4727 2441.4541
4659 21.6416 5012(71) 5149.9131 2441.6328
4660 21.6456 5926(77) 5700.9053 2441.8118
4661 21.6496 6394(80) 6311.4844 2441.9907
4662 21.6536 6797(82) 6962.6108 2442.1694
4663 21.6576 7583(87) 7622.3076 2442.3484
4664 21.6616 8569(93) 8244.1074 2442.5271
4665 21.6656 9115(95) 8769.4668 2442.7061
4666 21.6696 8935(95) 9137.4385 2442.8850
4667 21.6736 9177(96) 9299.7559 2443.0637
4668 21.6776 9385(97) 9236.5156 2443.2427
4669 21.6816 8823(94) 8960.1670 2443.4214
4670 21.6856 8247(91) 8509.0469 2443.6003
4671 21.6896 7546(87) 7934.7021 2443.7791
4672 21.6936 6840(83) 7290.5679 2443.9580
4673 21.6976 6170(79) 6624.3813 2444.1367
4674 21.7016 5529(74) 5976.0635 2444.3157
4675 21.7056 4956(70) 5374.5322 2444.4946
4676 21.7096 4446(67) 4838.9106 2444.6733
4677 21.7136 4007(63) 4379.0415 2444.8523
4678 21.7176 3923(63) 3996.7993 2445.0310
4679 21.7216 3409(58) 3687.9248 2445.2100
4680 21.7256 3096(56) 3444.6245 2445.3887
4681 21.7296 3084(56) 3256.6467 2445.5676
4682 21.7336 3012(55) 3113.4824 2445.7466
4683 21.7376 2825(53) 2999.9534 2445.9253
4684 21.7416 2795(53) 2918.4341 2446.1042
4685 21.7456 2867(54) 2856.5574 2446.2830
4686 21.7496 2871(54) 2808.9763 2446.4619
4687 21.7536 2840(53) 2771.7739 2446.6406
4688 21.7576 2653(52) 2742.0730 2446.8196
4689 21.7616 2468(50) 2717.9355 2446.9983
4690 21.7656 2442(49) 2697.8311 2447.1772
4691 21.7696 2601(51) 2680.8660 2447.3560
4692 21.7736 2567(51) 2666.3743 2447.5349
4693 21.7776 2609(51) 2655.3809 2447.7139
4694 21.7816 2497(50) 2644.5742 2447.8926
4695 21.7856 2678(52) 2635.1782 2448.0715
4696 21.7896 2556(51) 2626.9995 2448.2502
4697 21.7936 2652(51) 2619.8884 2448.4292
4698 21.7976 2498(50) 2613.7249 2448.6079
4699 21.8016 2564(51) 2608.4116 2448.7869
4700 21.8056 2797(53) 2603.7783 2448.9658
4701 21.8096 2766(53) 2599.9565 2449.1445
4702 21.8136 2640(51) 2596.8010 2449.3235
4703 21.8176 2577(51) 2594.2737 2449.5022
4704 21.8216 2484(50) 2592.3462 2449.6812
4705 21.8256 2500(50) 2590.9993 2449.8599
4706 21.8296 2485(50) 2590.2209 2450.0388
4707 21.8336 2707(52) 2590.0068 2450.2178
4708 21.8376 2641(51) 2590.3582 2450.3965
4709 21.8416 2630(51) 2591.2832 2450.5754
4710 21.8456 2657(52) 2592.7961 2450.7542
4711 21.8496 2765(53) 2594.9194 2450.9331
4712 21.8536 2620(51) 2597.6838 2451.1121
4713 21.8576 2871(54) 2601.1274 2451.2908
4714 21.8616 2835(53) 2605.2524 2451.4697
4715 21.8656 2828(53) 2610.2458 2451.6484
4716 21.8696 2797(53) 2616.1672 2451.8274
4717 21.8736 2666(52) 2623.1843 2452.0061
4718 21.8776 2673(52) 2631.5513 2452.1851
4719 21.8816 2852(53) 2641.6555 2452.3640
4720 21.8856 2786(53) 2654.0581 2452.5427
4721 21.8896 2858(53) 2669.5979 2452.7217
4722 21.8936 2966(54) 2689.4629 2452.9004
4723 21.8976 2885(54) 2715.2917 2453.0793
4724 21.9016 2865(54) 2749.2644 2453.2581
4725 21.9056 2992(55) 2794.1963 2453.4370
4726 21.9096 3174(56) 2853.4714 2453.6160
4727 21.9136 3173(56) 2931.1277 2453.7947
4728 21.9176 3070(55) 3031.6570 2453.9736
4729 21.9216 3214(57) 3159.8005 2454.1523
4730 21.9256 3333(58) 3320.2297 2454.3313
4731 21.9296 3569(60) 3517.1042 2454.5100
4732 21.9336 3465(59) 3753.6382 2454.6890
4733 21.9376 4022(63) 4030.9146 2454.8679
4734 21.9416 4248(65) 4347.6479 2455.0466
4735 21.9456 4585(68) 4698.5723 2455.2256
4736 21.9496 5146(72) 5073.0430 2455.4043
4737 21.9536 5868(77) 5453.3169 2455.5833
4738 21.9576 6069(78) 5813.3682 2455.7620
4739 21.9616 6367(80) 6119.8389 2455.9409
4740 21.9656 7199(85) 6336.4575 2456.1199
4741 21.9696 7283(85) 6434.2051 2456.2986
4742 21.9736 7233(85) 6400.3657 2456.4775
4743 21.9776 7018(84) 6242.1582 2456.6562
4744 21.9816 6707(82) 5982.5010 2456.8352
4745 21.9856 6169(79) 5651.5557 2457.0142
4746 21.9896 5734(76) 5280.5547 2457.1929
4747 21.9936 5080(71) 4896.7275 2457.3718
4748 21.9976 4611(68) 4522.3975 2457.5505
4749 22.0016 3834(62) 4174.2915 2457.7295
4750 22.0056 3783(62) 3863.5127 2457.9082
4751 22.0096 3695(61) 3595.9084 2458.0872
4752 22.0136 3357(58) 3372.7148 2458.2661
4753 22.0176 3217(57) 3191.9746 2458.4448
4754 22.0216 3220(57) 3049.1221 2458.6238
4755 22.0256 3150(56) 2938.4326 2458.8025
4756 22.0296 3113(56) 2853.9062 2458.9814
4757 22.0336 2942(54) 2789.8914 2459.1602
4758 22.0376 2665(52) 2741.4578 2459.3391
4759 22.0416 2858(53) 2704.6365 2459.5178
4760 22.0456 2691(52) 2676.2815 2459.6968
4761 22.0496 2634(51) 2654.0630 2459.8755
4762 22.0536 2402(49) 2636.3022 2460.0544
4763 22.0576 2433(49) 2612.1799 2460.2334
4764 22.0616 2589(51) 2600.3083 2460.4121
4765 22.0656 2567(51) 2586.6221 2460.5911
4766 22.0696 2493(50) 2578.1611 2460.7698
4767 22.0736 2595(51) 2570.8972 2460.9487
4768 22.0776 2614(51) 2564.6211 2461.1274
4769 22.0816 2806(53) 2559.1833 2461.3064
4770 22.0856 2842(53) 2554.4690 2461.4854
4771 22.0896 2820(53) 2550.3857 2461.6641
4772 22.0936 3082(56) 2546.8650 2461.8430
4773 22.0976 3114(56) 2543.8433 2462.0217
4774 22.1016 2739(52) 2541.2715 2462.2007
4775 22.1056 2551(51) 2539.1033 2462.3794
4776 22.1096 2788(53) 2537.4521 2462.5583
4777 22.1136 2814(53) 2535.9836 2462.7371
4778 22.1176 2805(53) 2534.8181 2462.9160
4779 22.1216 3020(55) 2533.9294 2463.0950
4780 22.1256 2951(54) 2533.2905 2463.2737
4781 22.1296 2706(52) 2532.8782 2463.4526
4782 22.1336 2626(51) 2532.6685 2463.6313
4783 22.1376 2531(50) 2532.6404 2463.8103
4784 22.1416 2529(50) 2532.7717 2463.9890
4785 22.1456 2615(51) 2533.0427 2464.1680
4786 22.1496 2680(52) 2533.4331 2464.3469
4787 22.1536 2523(50) 2533.9238 2464.5256
4788 22.1576 2709(52) 2536.2249 2464.7046
4789 22.1616 2781(53) 2536.8845 2464.8833
4790 22.1656 2859(53) 2537.5889 2465.0623
4791 22.1696 2746(52) 2538.3303 2465.2412
4792 22.1736 2685(52) 2539.0886 2465.4199
4793 22.1776 2568(51) 2539.8501 2465.5989
4794 22.1816 2721(52) 2540.5994 2465.7776
4795 22.1856 2576(51) 2541.3230 2465.9565
4796 22.1896 2529(50) 2542.0061 2466.1353
4797 22.1936 2501(50) 2542.6218 2466.3142
4798 22.1976 2661(52) 2543.1816 2466.4932
4799 22.2016 2802(53) 2543.6584 2466.6719
4800 22.2056 2609(51) 2544.0386 2466.8508
4801 22.2096 2640(51) 2544.3086 2467.0295
4802 22.2136 2462(50) 2544.4578 2467.2085
4803 22.2176 2463(50) 2544.4722 2467.3872
4804 22.2216 2524(50) 2544.3459 2467.5662
4805 22.2256 2469(50) 2544.0723 2467.7451
4806 22.2296 2455(50) 2543.6116 2467.9238
4807 22.2336 2424(49) 2543.0347 2468.1028
4808 22.2376 2505(50) 2542.3093 2468.2815
4809 22.2416 2644(51) 2541.4419 2468.4604
4810 22.2456 2773(53) 2540.4417 2468.6392
4811 22.2496 2775(53) 2539.3208 2468.8181
4812 22.2536 2682(52) 2538.0957 2468.9971
4813 22.2576 2808(53) 2536.7825 2469.1758
4814 22.2616 2869(54) 2535.3997 2469.3547
4815 22.2656 2702(52) 2533.9663 2469.5334
4816 22.2696 2588(51) 2532.5149 2469.7124
4817 22.2736 2458(50) 2531.0388 2469.8914
4818 22.2776 2351(48) 2529.5710 2470.0701
4819 22.2816 2321(48) 2528.1287 2470.2490
4820 22.2856 2261(48) 2526.7283 2470.4277
4821 22.2896 2305(48) 2525.3850 2470.6067
4822 22.2936 2361(49) 2524.1123 2470.7854
4823 22.2976 2353(49) 2522.9221 2470.9644
4824 22.3016 2348(48) 2521.8232 2471.1433
4825 22.3056 2384(49) 2520.8245 2471.3220
4826 22.3096 2510(50) 2519.9309 2471.5010
4827 22.3136 2562(51) 2519.1501 2471.6797
4828 22.3176 2268(48) 2518.6694 2471.8586
4829 22.3216 2469(50) 2518.1021 2472.0374
4830 22.3256 2460(50) 2517.6418 2472.2163
4831 22.3296 2332(48) 2517.2844 2472.3950
4832 22.3336 2338(48) 2517.0261 2472.5740
4833 22.3376 2441(49) 2516.8613 2472.7529
4834 22.3416 2503(50) 2516.9285 2472.9316
4835 22.3456 2551(51) 2516.9333 2473.1106
4836 22.3496 2526(50) 2517.0161 2473.2893
4837 22.3536 2256(47) 2517.1965 2473.4683
4838 22.3576 2427(49) 2517.3596 2473.6470
4839 22.3616 2507(50) 2511.9624 2473.8259
4840 22.3656 2367(49) 2512.4189 2474.0049
4841 22.3696 2502(50) 2513.0354 2474.1836
4842 22.3736 2511(50) 2513.7275 2474.3625
4843 22.3776 2510(50) 2514.5002 2474.5413
4844 22.3816 2529(50) 2515.4084 2474.7202
4845 22.3856 2398(49) 2516.3672 2474.8989
4846 22.3896 2452(50) 2517.4346 2475.0779
4847 22.3936 2431(49) 2518.2893 2474.9229
4848 22.3976 2327(48) 2519.1680 2474.6565
4849 22.4016 2375(49) 2520.1875 2474.3904
4850 22.4056 2386(49) 2521.3879 2474.1240
4851 22.4096 2505(50) 2522.7773 2473.8577
4852 22.4136 2495(50) 2524.3789 2473.5916
4853 22.4176 2314(48) 2526.2170 2473.3252
4854 22.4216 2489(50) 2528.3191 2473.0591
4855 22.4256 2429(49) 2530.7151 2472.7927
4856 22.4296 2470(50) 2533.4197 2472.5266
4857 22.4336 2510(50) 2536.4165 2472.2603
4858 22.4376 2635(51) 2539.9062 2471.9939
4859 22.4416 2560(51) 2543.8435 2471.7278
4860 22.4456 2636(51) 2548.2756 2471.4614
4861 22.4496 2540(50) 2553.2554 2471.1953
4862 22.4536 2393(49) 2558.8413 2470.9290
4863 22.4576 2349(48) 2565.0884 2470.6626
4864 22.4616 2520(50) 2572.0564 2470.3965
4865 22.4656 2404(49) 2579.8108 2470.1301
4866 22.4696 2580(51) 2588.4155 2469.8640
4867 22.4736 2630(51) 2597.9312 2469.5977
4868 22.4776 2617(51) 2608.4155 2469.3315
4869 22.4816 2551(51) 2619.9185 2469.0652
4870 22.4856 2364(49) 2632.4866 2468.7988
4871 22.4896 2382(49) 2646.1343 2468.5327
4872 22.4936 2346(48) 2660.8748 2468.2664
4873 22.4976 2611(51) 2676.6929 2468.0002
4874 22.5016 2605(51) 2693.5425 2467.7339
4875 22.5056 2636(51) 2711.3413 2467.4678
4876 22.5096 2367(49) 2729.9607 2467.2014
4877 22.5136 2618(51) 2749.2271 2466.9351
4878 22.5176 2802(53) 2768.8743 2466.6689
4879 22.5216 2814(53) 2788.5549 2466.4026
4880 22.5256 2742(52) 2807.9395 2466.1365
4881 22.5296 2826(53) 2826.8757 2465.8701
4882 22.5336 2639(51) 2844.1069 2465.6040
4883 22.5376 2653(52) 2859.4109 2465.3376
4884 22.5416 2769(53) 2872.1875 2465.0713
4885 22.5456 2832(53) 2881.9097 2464.8052
4886 22.5496 2882(54) 2888.1494 2464.5388
4887 22.5536 2832(53) 2890.6450 2464.2725
4888 22.5576 2758(53) 2889.3103 2464.0063
4889 22.5616 2992(55) 2884.3081 2463.7400
4890 22.5656 3106(56) 2875.8909 2463.4736
4891 22.5696 3046(55) 2864.5496 2463.2075
4892 22.5736 2928(54) 2850.8452 2462.9412
4893 22.5776 2820(53) 2835.2952 2462.6750
4894 22.5816 2931(54) 2818.4761 2462.4087
4895 22.5856 2867(54) 2800.8882 2462.1426
4896 22.5896 2662(52) 2782.9521 2461.8762
4897 22.5936 2647(51) 2765.0369 2461.6099
4898 22.5976 2808(53) 2747.4121 2461.3438
4899 22.6016 2766(53) 2730.2881 2461.0774
4900 22.6056 2530(50) 2713.8201 2460.8113
4901 22.6096 2676(52) 2698.1152 2460.5449
4902 22.6136 2720(52) 2683.2463 2460.2788
4903 22.6176 2631(51) 2669.2512 2460.0125
4904 22.6216 2663(52) 2656.1689 2459.7461
4905 22.6256 2807(53) 2644.0249 2459.4800
4906 22.6296 2834(53) 2632.7742 2459.2136
4907 22.6336 2747(52) 2622.4392 2458.9475
4908 22.6376 2753(52) 2612.9824 2458.6812
4909 22.6416 2693(52) 2604.3877 2458.4148
4910 22.6456 2812(53) 2596.6370 2458.1487
4911 22.6496 2773(53) 2589.6970 2457.8823
4912 22.6536 2616(51) 2583.5386 2457.6162
4913 22.6576 2709(52) 2578.1323 2457.3499
4914 22.6616 2765(53) 2573.4517 2457.0837
4915 22.6656 2677(52) 2569.5273 2456.8174
4916 22.6696 2749(52) 2566.2273 2456.5510
4917 22.6736 2712(52) 2563.5959 2456.2849
4918 22.6776 2450(49) 2561.6233 2456.0186
4919 22.6816 2692(52) 2560.3081 2455.7524
4920 22.6856 2615(51) 2559.6582 2455.4861
4921 22.6896 2424(49) 2559.6877 2455.2200
4922 22.6936 2640(51) 2560.4192 2454.9536
4923 22.6976 2730(52) 2561.8845 2454.6873
4924 22.7016 2930(54) 2564.1165 2454.4211
4925 22.7056 2876(54) 2567.1721 2454.1548
4926 22.7096 2765(53) 2571.0986 2453.8884
4927 22.7136 2526(50) 2575.9561 2453.6223
4928 22.7176 2694(52) 2581.8086 2453.3560
4929 22.7216 2762(53) 2588.7290 2453.0896
4930 22.7256 2736(52) 2596.7810 2452.8235
4931 22.7296 2802(53) 2606.0386 2452.5571
4932 22.7336 2800(53) 2616.5691 2452.2910
4933 22.7376 2725(52) 2628.4314 2452.0247
4934 22.7416 2804(53) 2641.6702 2451.7585
4935 22.7456 2907(54) 2656.3049 2451.4922
4936 22.7496 2755(52) 2672.3240 2451.2258
4937 22.7536 2669(52) 2689.6555 2450.9597
4938 22.7576 2625(51) 2708.1199 2450.6934
4939 22.7616 2896(54) 2727.4780 2450.4272
4940 22.7656 2957(54) 2747.3389 2450.1609
4941 22.7696 3000(55) 2767.1526 2449.8948
4942 22.7736 3053(55) 2786.1973 2449.6284
4943 22.7776 3153(56) 2803.5864 2449.3621
4944 22.7816 2963(54) 2818.3257 2449.0959
4945 22.7856 2781(53) 2829.4065 2448.8296
4946 22.7896 2874(54) 2835.9512 2448.5635
4947 22.7936 2783(53) 2837.3706 2448.2971
4948 22.7976 2688(52) 2833.5063 2448.0310
4949 22.8016 2681(52) 2824.6621 2447.7646
4950 22.8056 2717(52) 2811.6084 2447.4983
4951 22.8096 2560(51) 2795.3997 2447.2322
4952 22.8136 2593(51) 2777.2117 2446.9658
4953 22.8176 2640(51) 2758.1655 2446.6997
4954 22.8216 2846(53) 2739.2021 2446.4333
4955 22.8256 2662(52) 2721.0168 2446.1670
4956 22.8296 2774(53) 2704.0879 2445.9009
4957 22.8336 2646(51) 2688.6460 2445.6345
4958 22.8376 2539(50) 2674.8098 2445.3684
4959 22.8416 2416(49) 2662.5210 2445.1021
4960 22.8456 2445(49) 2651.6907 2444.8359
4961 22.8496 2496(50) 2642.1797 2444.5696
4962 22.8536 2581(51) 2633.8247 2444.3032
4963 22.8576 2535(50) 2626.4875 2444.0371
4964 22.8616 2406(49) 2620.0120 2443.7708
4965 22.8656 2655(52) 2614.2654 2443.5044
4966 22.8696 2613(51) 2609.1321 2443.2383
4967 22.8736 2448(49) 2604.5049 2442.9719
4968 22.8776 2374(49) 2600.3147 2442.7058
4969 22.8816 2488(50) 2596.4839 2442.4395
4970 22.8856 2426(49) 2592.9268 2442.1731
4971 22.8896 2394(49) 2589.6655 2441.9070
4972 22.8936 2482(50) 2586.6311 2441.6406
4973 22.8976 2660(52) 2583.7979 2441.3745
4974 22.9016 2740(52) 2581.1443 2441.1082
4975 22.9056 2691(52) 2578.6538 2440.8418
4976 22.9096 2500(50) 2576.3162 2440.5757
4977 22.9136 2542(50) 2574.1187 2440.3093
4978 22.9176 2544(50) 2572.0513 2440.0432
4979 22.9216 2524(50) 2570.1033 2439.7769
4980 22.9256 2611(51) 2568.2642 2439.5107
4981 22.9296 2709(52) 2566.4521 2439.2444
4982 22.9336 2664(52) 2564.7952 2438.9780
4983 22.9376 2709(52) 2563.2087 2438.7119
4984 22.9416 2554(51) 2561.6816 2438.4456
4985 22.9456 2474(50) 2560.2034 2438.1794
4986 22.9496 2396(49) 2558.7639 2437.9131
4987 22.9536 2448(49) 2557.3574 2437.6470
4988 22.9576 2484(50) 2555.9814 2437.3806
4989 22.9616 2519(50) 2554.6328 2437.1143
4990 22.9656 2419(49) 2553.3176 2436.8481
4991 22.9696 2392(49) 2552.0342 2436.5818
4992 22.9736 2391(49) 2550.8105 2436.3157
4993 22.9776 2318(48) 2549.6543 2436.0493
4994 22.9816 2206(47) 2548.5825 2435.7832
4995 22.9856 2424(49) 2547.6157 2435.5168
4996 22.9896 2513(50) 2546.7781 2435.2505
4997 22.9936 2337(48) 2546.0959 2434.9844
4998 22.9976 2408(49) 2545.6101 2434.7180
4999 23.0016 2427(49) 2545.3223 2434.4519
5000 23.0056 2381(49) 2545.2939 2434.1855
5001 23.0096 2244(47) 2545.5583 2433.9194
5002 23.0136 2344(48) 2546.1592 2433.6531
5003 23.0176 2434(49) 2547.1436 2433.3867
5004 23.0216 2355(49) 2548.5674 2433.1206
5005 23.0256 2307(48) 2550.4875 2432.8542
5006 23.0296 2193(47) 2552.9685 2432.5879
5007 23.0336 2279(48) 2556.0796 2432.3218
5008 23.0376 2239(47) 2559.8972 2432.0554
5009 23.0416 2130(46) 2564.4973 2431.7891
5010 23.0456 2302(48) 2570.8992 2431.5229
5011 23.0496 2448(49) 2577.3403 2431.2566
5012 23.0536 2624(51) 2584.8274 2430.9905
5013 23.0576 2580(51) 2593.4504 2430.7241
5014 23.0616 2591(51) 2603.3015 2430.4580
5015 23.0656 2500(50) 2614.4731 2430.1917
5016 23.0696 2449(49) 2627.0356 2429.9253
5017 23.0736 2472(50) 2641.0728 2429.6592
5018 23.0776 2473(50) 2656.6589 2429.3928
5019 23.0816 2804(53) 2673.8140 2429.1267
5020 23.0856 2842(53) 2692.5774 2428.8604
5021 23.0896 2862(53) 2712.9587 2428.5940
5022 23.0936 2856(53) 2734.9043 2428.3279
5023 23.0976 2722(52) 2758.3457 2428.0615
5024 23.1016 2636(51) 2783.1521 2427.7954
5025 23.1056 2663(52) 2809.1289 2427.5291
5026 23.1096 2755(52) 2836.0044 2427.2629
5027 23.1136 2866(54) 2863.4182 2426.9966
5028 23.1176 2858(53) 2890.9258 2426.7302
5029 23.1216 3025(55) 2917.9316 2426.4641
5030 23.1256 3022(55) 2943.8008 2426.1978
5031 23.1296 3014(55) 2967.7954 2425.9316
5032 23.1336 2969(54) 2989.1804 2425.6653
5033 23.1376 2864(54) 3007.1775 2425.3992
5034 23.1416 2829(53) 3021.1094 2425.1328
5035 23.1456 2958(54) 3030.4170 2424.8665
5036 23.1496 2977(55) 3034.7476 2424.6003
5037 23.1536 3024(55) 3033.9568 2424.3340
5038 23.1576 2975(55) 3028.1167 2424.0679
5039 23.1616 3034(55) 3017.4983 2423.8015
5040 23.1656 3004(55) 3002.5413 2423.5354
5041 23.1696 2939(54) 2983.8044 2423.2690
5042 23.1736 3026(55) 2961.9700 2423.0027
5043 23.1776 2909(54) 2937.7461 2422.7366
5044 23.1816 2898(54) 2911.8640 2422.4702
5045 23.1856 2970(54) 2885.0254 2422.2039
5046 23.1896 2907(54) 2857.8645 2421.9377
5047 23.1936 2747(52) 2830.9185 2421.6714
5048 23.1976 2629(51) 2804.6025 2421.4050
5049 23.2016 2477(50) 2779.2590 2421.1389
5050 23.2056 2509(50) 2755.0935 2420.8726
5051 23.2096 2540(50) 2732.2419 2420.6064
5052 23.2136 2533(50) 2710.7739 2420.3401
5053 23.2176 2456(50) 2690.7122 2420.0740
5054 23.2216 2540(50) 2672.0354 2419.8076
5055 23.2256 2564(51) 2654.7156 2419.5413
5056 23.2296 2673(52) 2638.7122 2419.2751
5057 23.2336 2580(51) 2623.9529 2419.0088
5058 23.2376 2647(51) 2610.3706 2418.7427
5059 23.2416 2628(51) 2597.8938 2418.4763
5060 23.2456 2571(51) 2586.4509 2418.2102
5061 23.2496 2598(51) 2575.9648 2417.9438
5062 23.2536 2680(52) 2566.3752 2417.6775
5063 23.2576 2732(52) 2557.6086 2417.4114
5064 23.2616 2944(54) 2549.6545 2417.1450
5065 23.2656 2837(53) 2542.3406 2416.8789
5066 23.2696 2838(53) 2535.6348 2416.6125
5067 23.2736 2855(53) 2529.5374 2416.3462
5068 23.2776 2597(51) 2523.9600 2416.0801
5069 23.2816 2632(51) 2518.9014 2415.8137
5070 23.2856 2504(50) 2514.2715 2415.5476
5071 23.2896 2397(49) 2510.0845 2415.2812
5072 23.2936 2365(49) 2506.4236 2415.0151
5073 23.2976 2350(48) 2502.9199 2414.7488
5074 23.3016 2321(48) 2499.7305 2414.4824
5075 23.3056 2486(50) 2496.8342 2414.2163
5076 23.3096 2693(52) 2494.2075 2413.9500
5077 23.3136 2673(52) 2491.8318 2413.6838
5078 23.3176 2820(53) 2489.6904 2413.4175
5079 23.3216 2742(52) 2487.7554 2413.1514
5080 23.3256 2710(52) 2486.0417 2412.8850
5081 23.3296 2481(50) 2483.0364 2412.6187
5082 23.3336 2507(50) 2481.7275 2412.3525
5083 23.3376 2517(50) 2480.6030 2412.0862
5084 23.3416 2420(49) 2479.6672 2411.8198
5085 23.3456 2613(51) 2478.9036 2411.5537
5086 23.3496 2655(52) 2478.3203 2411.2874
5087 23.3536 2623(51) 2477.9229 2411.0210
5088 23.3576 2358(49) 2477.7202 2410.7549
5089 23.3616 2481(50) 2477.7266 2410.4885
5090 23.3656 2472(50) 2477.9656 2410.2224
5091 23.3696 2484(50) 2478.4722 2409.9561
5092 23.3736 2561(51) 2479.2988 2409.6899
5093 23.3776 2540(50) 2480.5208 2409.4236
5094 23.3816 2381(49) 2482.2454 2409.1572
5095 23.3856 2351(48) 2484.6155 2408.8911
5096 23.3896 2293(48) 2487.8237 2408.6248
5097 23.3936 2296(48) 2492.1257 2408.3586
5098 23.3976 2473(50) 2497.8247 2408.0923
5099 23.4016 2565(51) 2505.3188 2407.8262
5100 23.4056 2555(51) 2514.9690 2407.5598
5101 23.4096 2508(50) 2527.2551 2407.2935
5102 23.4136 2508(50) 2542.6550 2407.0273
5103 23.4176 2670(52) 2561.6262 2406.7610
5104 23.4216 2603(51) 2584.5706 2406.4949
5105 23.4256 2669(52) 2611.7820 2406.2285
5106 23.4296 2609(51) 2643.3865 2405.9624
5107 23.4336 2770(53) 2679.2805 2405.6960
5108 23.4376 2928(54) 2717.2366 2405.4297
5109 23.4416 2743(52) 2759.8264 2405.1636
5110 23.4456 2630(51) 2803.7695 2404.8972
5111 23.4496 2788(53) 2846.8113 2404.6311
5112 23.4536 2995(55) 2886.1033 2404.3647
5113 23.4576 3003(55) 2917.8704 2404.0984
5114 23.4616 2614(51) 2938.8726 2403.8323
5115 23.4656 2633(51) 2946.7822 2403.5659
5116 23.4696 2598(51) 2940.9639 2403.2998
5117 23.4736 2690(52) 2922.5825 2403.0334
5118 23.4776 2683(52) 2894.0918 2402.7673
5119 23.4816 2524(50) 2858.5098 2402.5010
5120 23.4856 2588(51) 2818.8154 2402.2346
5121 23.4896 2706(52) 2777.7312 2401.9685
5122 23.4936 2734(52) 2737.4351 2401.7021
5123 23.4976 2990(55) 2699.6160 2401.4360
5124 23.5016 2686(52) 2665.4458 2401.1697
5125 23.5056 2588(51) 2635.6055 2400.9033
5126 23.5096 2598(51) 2610.3372 2400.6370
5127 23.5136 2441(49) 2589.5400 2400.3708
5128 23.5176 2510(50) 2572.8203 2400.1045
5129 23.5216 2501(50) 2559.6958 2399.8384
5130 23.5256 2360(49) 2549.5291 2399.5720
5131 23.5296 2467(50) 2541.7246 2399.3059
5132 23.5336 2443(49) 2535.7253 2399.0396
5133 23.5376 2370(49) 2531.0476 2398.7732
5134 23.5416 2419(49) 2527.3005 2398.5071
5135 23.5456 2442(49) 2524.1716 2398.2407
5136 23.5496 2468(50) 2521.4275 2397.9746
5137 23.5536 2585(51) 2518.8987 2397.7083
5138 23.5576 2392(49) 2516.4688 2397.4421
5139 23.5616 2400(49) 2514.0591 2397.1758
5140 23.5656 2417(49) 2511.6199 2396.9094
5141 23.5696 2420(49) 2509.1008 2396.6433
5142 23.5736 2435(49) 2507.2451 2396.3770
5143 23.5776 2437(49) 2504.6208 2396.1108
5144 23.5816 2399(49) 2501.9248 2395.8445
5145 23.5856 2536(50) 2499.1975 2395.5784
5146 23.5896 2502(50) 2496.3765 2395.3120
5147 23.5936 2442(49) 2493.5063 2395.0457
5148 23.5976 2470(50) 2490.5935 2394.7795
5149 23.6016 2731(52) 2487.6301 2394.5132
5150 23.6056 2582(51) 2484.6541 2394.2471
5151 23.6096 2465(50) 2481.6577 2393.9807
5152 23.6136 2357(49) 2478.6523 2393.7146
5153 23.6176 2397(49) 2479.5635 2393.4482
5154 23.6216 2402(49) 2476.6421 2393.1819
5155 23.6256 2546(50) 2473.7603 2392.9158
5156 23.6296 2444(49) 2470.9263 2392.6494
5157 23.6336 2506(50) 2468.1809 2392.3833
5158 23.6376 2362(49) 2465.5557 2392.1169
5159 23.6416 2382(49) 2463.0884 2391.8506
5160 23.6456 2512(50) 2460.8652 2391.5845
5161 23.6496 2503(50) 2458.9429 2391.3181
5162 23.6536 2458(50) 2457.4038 2391.0518
5163 23.6576 2547(50) 2456.3398 2390.7856
5164 23.6616 2452(50) 2455.8499 2390.5195
5165 23.6656 2444(49) 2456.0342 2390.2532
5166 23.6696 2469(50) 2456.9917 2389.9868
5167 23.6736 2772(53) 2458.8062 2389.7205
5168 23.6776 2764(53) 2461.5432 2389.4543
5169 23.6816 2568(51) 2465.2332 2389.1880
5170 23.6856 2599(51) 2469.8611 2388.9219
5171 23.6896 2377(49) 2475.3457 2388.6555
5172 23.6936 2382(49) 2481.5234 2388.3892
5173 23.6976 2415(49) 2488.1086 2388.1230
5174 23.7016 2356(49) 2494.6863 2387.8567
5175 23.7056 2354(49) 2500.6943 2387.5906
5176 23.7096 2485(50) 2505.4590 2387.3242
5177 23.7136 2458(50) 2508.3025 2387.0581
5178 23.7176 2464(50) 2508.7036 2386.7917
5179 23.7216 2614(51) 2506.4485 2386.5254
5180 23.7256 2582(51) 2501.6831 2386.2593
5181 23.7296 2607(51) 2494.8345 2385.9929
5182 23.7336 2430(49) 2486.4763 2385.7268
5183 23.7376 2462(50) 2477.2048 2385.4604
5184 23.7416 2446(49) 2467.5667 2385.1943
5185 23.7456 2548(50) 2458.0234 2384.9280
5186 23.7496 2448(49) 2448.9355 2384.6616
5187 23.7536 2481(50) 2440.5757 2384.3955
5188 23.7576 2448(49) 2433.1091 2384.1292
5189 23.7616 2497(50) 2426.6155 2383.8630
5190 23.7656 2537(50) 2421.1013 2383.5967
5191 23.7696 2569(51) 2416.5173 2383.3306
5192 23.7736 2387(49) 2412.7737 2383.0642
5193 23.7776 2322(48) 2409.7656 2382.7979
5194 23.7816 2304(48) 2407.3782 2382.5317
5195 23.7856 2299(48) 2405.5017 2382.2654
5196 23.7896 2407(49) 2404.0408 2381.9993
5197 23.7936 2360(49) 2402.9138 2381.7329
5198 23.7976 2320(48) 2402.0554 2381.4668
5199 23.8016 2379(49) 2401.3962 2381.2004
5200 23.8056 2561(51) 2400.9348 2380.9341
5201 23.8096 2458(50) 2400.6270 2380.6680
5202 23.8136 2465(50) 2400.4512 2380.4016
5203 23.8176 2594(51) 2400.4250 2380.1353
5204 23.8216 2463(50) 2400.1240 2379.8691
5205 23.8256 2476(50) 2400.2817 2379.6028
5206 23.8296 2649(51) 2400.5371 2379.3364
5207 23.8336 2700(52) 2400.8877 2379.0703
5208 23.8376 2468(50) 2401.3318 2378.8040
5209 23.8416 2333(48) 2401.8699 2378.5378
5210 23.8456 2662(52) 2402.5022 2378.2715
5211 23.8496 2556(51) 2403.2310 2378.0054
5212 23.8536 2674(52) 2404.0586 2377.7390
5213 23.8576 2499(50) 2404.9873 2377.4727
5214 23.8616 2275(48) 2406.0222 2377.2065
5215 23.8656 2517(50) 2407.1677 2376.9402
5216 23.8696 2631(51) 2408.4302 2376.6741
5217 23.8736 2558(51) 2409.8162 2376.4077
5218 23.8776 2408(49) 2411.3347 2376.1414
5219 23.8816 2244(47) 2412.9941 2375.8752
5220 23.8856 2336(48) 2413.8984 2375.6089
5221 23.8896 2307(48) 2415.8953 2375.3428
5222 23.8936 2411(49) 2418.0762 2375.0764
5223 23.8976 2376(49) 2420.4641 2374.8103
5224 23.9016 2451(50) 2423.0740 2374.5439
5225 23.9056 2348(48) 2425.9739 2374.2776
5226 23.9096 2449(49) 2429.1990 2374.0115
5227 23.9136 2600(51) 2432.8193 2373.7451
5228 23.9176 2458(50) 2436.9275 2373.4790
5229 23.9216 2374(49) 2441.6313 2373.2126
5230 23.9256 2291(48) 2447.1125 2372.9465
5231 23.9296 2487(50) 2453.5718 2372.6802
5232 23.9336 2677(52) 2461.2288 2372.4138
5233 23.9376 2491(50) 2468.4922 2372.1477
5234 23.9416 2462(50) 2479.5090 2371.8813
5235 23.9456 2533(50) 2492.7998 2371.6152
5236 23.9496 2562(51) 2508.8008 2371.3489
5237 23.9536 2691(52) 2528.0122 2371.0828
5238 23.9576 2611(51) 2550.9448 2370.8164
5239 23.9616 2675(52) 2578.2097 2370.5500
5240 23.9656 2800(53) 2610.2935 2370.2839
5241 23.9696 2758(53) 2648.0527 2370.0176
5242 23.9736 2884(54) 2691.9441 2369.7515
5243 23.9776 3014(55) 2742.4905 2369.4851
5244 23.9816 3104(56) 2800.0703 2369.2188
5245 23.9856 3353(58) 2864.8511 2368.9524
5246 23.9896 3324(58) 2936.5774 2368.6863
5247 23.9936 3012(55) 3014.7175 2368.4199
5248 23.9976 3341(58) 3098.7388 2368.1538
5249 24.0016 3618(60) 3188.2295 2367.8875
5250 24.0056 3744(61) 3283.5444 2367.6213
5251 24.0096 3774(61) 3385.9126 2367.3550
5252 24.0136 3747(61) 3496.8955 2367.0886
5253 24.0176 3856(62) 3617.9551 2366.8225
5254 24.0216 3983(63) 3749.4351 2366.5562
5255 24.0256 4085(64) 3889.8413 2366.2900
5256 24.0296 4064(64) 4035.1672 2366.0237
5257 24.0336 4187(65) 4178.4414 2365.7576
5258 24.0376 4325(66) 4309.3037 2365.4912
5259 24.0416 4491(67) 4415.0693 2365.2249
5260 24.0456 4801(69) 4482.8877 2364.9587
5261 24.0496 4965(70) 4502.7974 2364.6924
5262 24.0536 4908(70) 4470.6924 2364.4263
5263 24.0576 4870(70) 4389.3599 2364.1599
5264 24.0616 4696(69) 4266.9116 2363.8936
5265 24.0656 4455(67) 4114.5117 2363.6274
5266 24.0696 4316(66) 3943.6548 2363.3611
5267 24.0736 3872(62) 3764.9368 2363.0950
5268 24.0776 3614(60) 3587.3379 2362.8286
5269 24.0816 3314(58) 3417.9746 2362.5625
5270 24.0856 3058(55) 3262.0437 2362.2961
5271 24.0896 2822(53) 3123.4573 2362.0298
5272 24.0936 2709(52) 3002.6650 2361.7637
5273 24.0976 2652(51) 2900.4277 2361.4973
5274 24.1016 2617(51) 2815.6348 2361.2312
5275 24.1056 2625(51) 2746.5662 2360.9648
5276 24.1096 2645(51) 2691.0298 2360.6987
5277 24.1136 2640(51) 2646.7148 2360.4324
5278 24.1176 2637(51) 2612.9666 2360.1660
5279 24.1216 2572(51) 2584.7759 2359.8999
5280 24.1256 2632(51) 2562.0232 2359.6335
5281 24.1296 2538(50) 2543.4004 2359.3672
5282 24.1336 2606(51) 2527.8975 2359.1011
5283 24.1376 2635(51) 2514.7529 2358.8350
5284 24.1416 2585(51) 2506.6924 2358.5684
5285 24.1456 2484(50) 2496.8003 2358.3022
5286 24.1496 2396(49) 2487.9644 2358.0359
5287 24.1536 2493(50) 2480.0415 2357.7698
5288 24.1576 2389(49) 2472.8396 2357.5034
5289 24.1616 2471(50) 2466.2400 2357.2373
5290 24.1656 2375(49) 2460.1538 2356.9709
5291 24.1696 2453(50) 2454.5107 2356.7046
5292 24.1736 2350(48) 2449.2637 2356.4385
5293 24.1776 2354(49) 2444.3677 2356.1721
5294 24.1816 2283(48) 2439.7898 2355.9060
5295 24.1856 2322(48) 2435.5034 2355.6396
5296 24.1896 2193(47) 2431.4871 2355.3735
5297 24.1936 2161(46) 2427.7217 2355.1072
5298 24.1976 2305(48) 2424.1960 2354.8408
5299 24.2016 2382(49) 2420.8975 2354.5747
5300 24.2056 2649(51) 2417.8149 2354.3083
5301 24.2096 2841(53) 2414.9407 2354.0422
5302 24.2136 2959(54) 2412.2671 2353.7759
5303 24.2176 2693(52) 2409.8147 2353.5098
5304 24.2216 2614(51) 2407.5208 2353.2434
5305 24.2256 2437(49) 2405.4097 2352.9771
5306 24.2296 2437(49) 2403.4255 2352.7109
5307 24.2336 2428(49) 2401.6948 2352.4446
5308 24.2376 2316(48) 2400.0933 2352.1785
5309 24.2416 2422(49) 2398.6477 2351.9121
5310 24.2456 2272(48) 2397.3469 2351.6460
5311 24.2496 2244(47) 2396.1768 2351.3796
5312 24.2536 2144(46) 2395.1592 2351.1133
5313 24.2576 2269(48) 2394.2710 2350.8472
5314 24.2616 2379(49) 2393.4990 2350.5808
5315 24.2656 2371(49) 2392.8474 2350.3147
5316 24.2696 2401(49) 2392.3035 2350.0483
5317 24.2736 2583(51) 2391.8752 2349.7820
5318 24.2776 2564(51) 2391.5271 2349.5159
5319 24.2816 2477(50) 2391.2676 2349.2495
5320 24.2856 2441(49) 2391.0913 2348.9834
5321 24.2896 2383(49) 2390.9927 2348.7170
5322 24.2936 2330(48) 2391.5840 2349.0671
5323 24.2976 2279(48) 2392.2063 2349.4175
5324 24.3016 2508(50) 2392.9316 2349.7678
5325 24.3056 2627(51) 2393.7073 2350.1179
5326 24.3096 2562(51) 2394.5498 2350.4683
5327 24.3136 2522(50) 2395.4451 2350.8184
5328 24.3176 2369(49) 2396.3809 2351.1685
5329 24.3216 2358(49) 2397.3716 2351.5188
5330 24.3256 2518(50) 2398.4092 2351.8691
5331 24.3296 2420(49) 2399.4761 2352.2192
5332 24.3336 2366(49) 2400.5771 2352.5693
5333 24.3376 2399(49) 2401.7102 2352.9197
5334 24.3416 2435(49) 2402.8733 2353.2698
5335 24.3456 2643(51) 2404.0657 2353.6199
5336 24.3496 2502(50) 2405.2886 2353.9702
5337 24.3536 2391(49) 2406.5442 2354.3206
5338 24.3576 2362(49) 2407.8345 2354.6707
5339 24.3616 2640(51) 2409.1653 2355.0210
5340 24.3656 2651(51) 2410.5420 2355.3711
5341 24.3696 2634(51) 2411.9719 2355.7212
5342 24.3736 2415(49) 2413.4634 2356.0715
5343 24.3776 2377(49) 2415.0264 2356.4219
5344 24.3816 2479(50) 2416.6689 2356.7720
5345 24.3856 2580(51) 2418.4033 2357.1223
5346 24.3896 2545(50) 2420.2183 2357.4724
5347 24.3936 2492(50) 2422.1694 2357.8225
5348 24.3976 2373(49) 2424.2417 2358.1729
5349 24.4016 2321(48) 2426.4592 2358.5229
5350 24.4056 2276(48) 2428.8110 2358.8733
5351 24.4096 2327(48) 2431.3496 2359.2234
5352 24.4136 2312(48) 2434.0723 2359.5737
5353 24.4176 2248(47) 2436.9844 2359.9238
5354 24.4216 2416(49) 2440.1323 2360.2739
5355 24.4256 2452(50) 2443.5447 2360.6243
5356 24.4296 2535(50) 2447.2278 2360.9744
5357 24.4336 2547(50) 2450.5544 2361.3247
5358 24.4376 2582(51) 2454.9700 2361.6750
5359 24.4416 2554(51) 2459.8545 2362.0251
5360 24.4456 2551(51) 2465.3154 2362.3752
5361 24.4496 2446(49) 2471.4937 2362.7256
5362 24.4536 2483(50) 2478.5718 2363.0757
5363 24.4576 2547(50) 2486.7886 2363.4260
5364 24.4616 2606(51) 2496.4302 2363.7764
5365 24.4656 2581(51) 2507.8757 2364.1265
5366 24.4696 2706(52) 2521.5386 2364.4766
5367 24.4736 2745(52) 2537.9551 2364.8269
5368 24.4776 2550(50) 2557.7363 2365.1770
5369 24.4816 2635(51) 2577.6797 2365.5271
5370 24.4856 2469(50) 2606.4751 2365.8774
5371 24.4896 2596(51) 2640.9956 2366.2278
5372 24.4936 2443(49) 2682.1963 2366.5779
5373 24.4976 2602(51) 2731.0596 2366.9280
5374 24.5016 2802(53) 2788.5908 2367.2783
5375 24.5056 3021(55) 2855.6018 2367.6284
5376 24.5096 3065(55) 2932.8611 2367.9788
5377 24.5136 3118(56) 3020.6760 2368.3291
5378 24.5176 3041(55) 3119.0466 2368.6792
5379 24.5216 3067(55) 3227.5093 2369.0293
5380 24.5256 3175(56) 3345.3081 2369.3796
5381 24.5296 3398(58) 3471.6501 2369.7297
5382 24.5336 3433(59) 3605.8999 2370.0798
5383 24.5376 3403(58) 3747.5381 2370.4302
5384 24.5416 3264(57) 3900.9951 2370.7805
5385 24.5456 3343(58) 4053.1013 2371.1306
5386 24.5496 3617(60) 4205.7744 2371.4810
5387 24.5536 3936(63) 4353.9556 2371.8311
5388 24.5576 3956(63) 4493.0850 2372.1812
5389 24.5616 4061(64) 4614.7910 2372.5315
5390 24.5656 4473(67) 4714.1836 2372.8818
5391 24.5696 4536(67) 4785.1191 2373.2319
5392 24.5736 4521(67) 4820.9824 2373.5820
5393 24.5776 4641(68) 4815.5791 2373.9324
5394 24.5816 4723(69) 4765.0010 2374.2825
5395 24.5856 4645(68) 4669.5938 2374.6328
5396 24.5896 4488(67) 4534.3066 2374.9832
5397 24.5936 4636(68) 4368.3379 2375.3333
5398 24.5976 4364(66) 4182.0820 2375.6833
5399 24.6016 3867(62) 3985.9756 2376.0337
5400 24.6056 3756(61) 3789.1914 2376.3838
5401 24.6096 3516(59) 3599.1836 2376.7339
5402 24.6136 3230(57) 3421.5850 2377.0842
5403 24.6176 3039(55) 3260.2097 2377.4346
5404 24.6216 2818(53) 3117.4785 2377.7847
5405 24.6256 2881(54) 2994.1614 2378.1350
5406 24.6296 2870(54) 2889.9387 2378.4851
5407 24.6336 2678(52) 2803.5989 2378.8352
5408 24.6376 2722(52) 2733.3003 2379.1855
5409 24.6416 2644(51) 2676.9380 2379.5359
5410 24.6456 2617(51) 2632.3750 2379.8860
5411 24.6496 2782(53) 2597.3047 2380.2361
5412 24.6536 2599(51) 2569.9500 2380.5864
5413 24.6576 2496(50) 2548.4692 2380.9365
5414 24.6616 2519(50) 2531.5808 2381.2869
5415 24.6656 2544(50) 2518.1909 2381.6370
5416 24.6696 2496(50) 2507.4490 2381.9873
5417 24.6736 2538(50) 2498.7256 2382.3374
5418 24.6776 2563(51) 2491.5398 2382.6877
5419 24.6816 2574(51) 2485.5435 2383.0378
5420 24.6856 2359(49) 2480.4824 2383.3879
5421 24.6896 2343(48) 2476.1709 2383.7383
5422 24.6936 2399(49) 2472.4800 2384.0886
5423 24.6976 2279(48) 2469.2886 2384.4387
5424 24.7016 2535(50) 2466.5269 2384.7891
5425 24.7056 2526(50) 2464.1111 2385.1392
5426 24.7096 2713(52) 2462.0320 2385.4893
5427 24.7136 2687(52) 2460.2271 2385.8396
5428 24.7176 2618(51) 2458.6609 2386.1897
5429 24.7216 2478(50) 2457.3025 2386.5400
5430 24.7256 2499(50) 2456.1448 2386.8901
5431 24.7296 2588(51) 2455.1448 2387.2405
5432 24.7336 2668(52) 2454.2622 2387.5906
5433 24.7376 2437(49) 2453.4985 2387.9409
5434 24.7416 2489(50) 2452.8359 2388.2910
5435 24.7456 2614(51) 2452.2598 2388.6414
5436 24.7496 2672(52) 2451.7573 2388.9915
5437 24.7536 2683(52) 2451.3162 2389.3418
5438 24.7576 2504(50) 2450.9258 2389.6919
5439 24.7616 2512(50) 2450.5769 2390.0420
5440 24.7656 2379(49) 2450.2622 2390.3923
5441 24.7696 2267(48) 2449.9739 2390.7424
5442 24.7736 2412(49) 2449.5579 2391.0928
5443 24.7776 2387(49) 2449.3079 2391.4431
5444 24.7816 2417(49) 2449.0688 2391.7932
5445 24.7856 2496(50) 2448.8369 2392.1433
5446 24.7896 2345(48) 2448.6089 2392.4937
5447 24.7936 2256(47) 2448.3816 2392.8438
5448 24.7976 2322(48) 2448.1528 2393.1938
5449 24.8016 2278(48) 2447.9202 2393.5442
5450 24.8056 2359(49) 2447.6824 2393.8945
5451 24.8096 2365(49) 2447.4377 2394.2446
5452 24.8136 2571(51) 2447.1858 2394.5950
5453 24.8176 2478(50) 2446.9233 2394.9451
5454 24.8216 2699(52) 2449.6152 2395.2952
5455 24.8256 2534(50) 2449.4094 2395.6455
5456 24.8296 2576(51) 2449.1533 2395.9958
5457 24.8336 2418(49) 2448.8972 2396.3459
5458 24.8376 2548(50) 2448.6431 2396.6960
5459 24.8416 2672(52) 2448.3892 2397.0464
5460 24.8456 2436(49) 2448.1372 2397.3965
5461 24.8496 2293(48) 2447.8909 2397.7468
5462 24.8536 2290(48) 2447.6528 2398.0972
5463 24.8576 2512(50) 2447.4272 2398.4473
5464 24.8616 2489(50) 2447.2200 2398.7974
5465 24.8656 2460(50) 2447.0300 2399.1477
5466 24.8696 2513(50) 2446.8635 2399.4978
5467 24.8736 2727(52) 2446.7244 2399.8479
5468 24.8776 2522(50) 2446.6167 2400.1982
5469 24.8816 2533(50) 2446.5449 2400.5486
5470 24.8856 2580(51) 2446.5127 2400.8987
5471 24.8896 2511(50) 2446.5244 2401.2490
5472 24.8936 2436(49) 2446.5840 2401.5991
5473 24.8976 2438(49) 2446.6958 2401.9492
5474 24.9016 2440(49) 2446.8638 2402.2996
5475 24.9056 2583(51) 2447.0923 2402.6499
5476 24.9096 2589(51) 2447.3853 2403.0000
5477 24.9136 2344(48) 2447.7456 2403.3501
5478 24.9176 2365(49) 2448.1794 2403.7004
5479 24.9216 2515(50) 2448.6892 2404.0505
5480 24.9256 2370(49) 2449.2788 2404.4009
5481 24.9296 2524(50) 2449.9519 2404.7512
5482 24.9336 2550(50) 2450.7112 2405.1013
5483 24.9376 2396(49) 2451.5601 2405.4514
5484 24.9416 2477(50) 2452.5017 2405.8018
5485 24.9456 2490(50) 2453.5381 2406.1519
5486 24.9496 2570(51) 2454.6726 2406.5020
5487 24.9536 2464(50) 2455.9072 2406.8523
5488 24.9576 2458(50) 2457.2446 2407.2026
5489 24.9616 2332(48) 2458.6851 2407.5527
5490 24.9656 2383(49) 2460.1875 2407.9031
5491 24.9696 2440(49) 2461.1997 2408.2532
5492 24.9736 2333(48) 2462.9751 2408.6033
5493 24.9776 2437(49) 2464.8618 2408.9536
5494 24.9816 2323(48) 2466.8606 2409.3037
5495 24.9856 2420(49) 2468.9746 2409.6541
5496 24.9896 2536(50) 2471.2039 2410.0042
5497 24.9936 2407(49) 2473.5513 2410.3545
5498 24.9976 2488(50) 2474.4702 2410.7046
5499 25.0016 2349(48) 2477.0884 2411.0549
5500 25.0056 2337(48) 2479.8293 2411.4050
5501 25.0096 2422(49) 2482.6990 2411.7554
5502 25.0136 2431(49) 2485.6973 2412.1055
5503 25.0176 2450(49) 2488.8298 2412.4558
5504 25.0216 2713(52) 2488.6863 2412.8059
5505 25.0256 2565(51) 2492.1655 2413.1560
5506 25.0296 2353(49) 2495.7876 2413.5063
5507 25.0336 2417(49) 2499.5647 2413.8564
5508 25.0376 2417(49) 2503.5081 2414.2068
5509 25.0416 2312(48) 2507.6255 2414.5571
5510 25.0456 2333(48) 2511.9319 2414.9072
5511 25.0496 2538(50) 2516.4443 2415.2573
5512 25.0536 2542(50) 2521.1846 2415.6077
5513 25.0576 2581(51) 2526.1763 2415.9578
5514 25.0616 2599(51) 2531.4524 2416.3081
5515 25.0656 2610(51) 2537.0425 2416.6582
5516 25.0696 2771(53) 2542.9910 2417.0085
5517 25.0736 2680(52) 2549.3293 2417.3586
5518 25.0776 2587(51) 2556.1448 2417.7090
5519 25.0816 2770(53) 2563.4844 2418.0591
5520 25.0856 2746(52) 2571.4197 2418.4092
5521 25.0896 2694(52) 2580.0361 2418.7595
5522 25.0936 2659(52) 2589.4150 2419.1099
5523 25.0976 2597(51) 2599.6604 2419.4600
5524 25.1016 2679(52) 2610.8821 2419.8101
5525 25.1056 2702(52) 2623.2063 2420.1604
5526 25.1096 2597(51) 2636.7537 2420.5105
5527 25.1136 2728(52) 2651.6787 2420.8608
5528 25.1176 2712(52) 2668.1208 2421.2112
5529 25.1216 2691(52) 2686.2502 2421.5613
5530 25.1256 2605(51) 2706.2407 2421.9114
5531 25.1296 2672(52) 2728.2773 2422.2617
5532 25.1336 2788(53) 2760.6494 2422.6118
5533 25.1376 2916(54) 2787.5066 2422.9619
5534 25.1416 2758(53) 2817.0295 2423.3123
5535 25.1456 2807(53) 2849.3362 2423.6626
5536 25.1496 2956(54) 2884.7209 2424.0127
5537 25.1536 2875(54) 2923.4221 2424.3628
5538 25.1576 2793(53) 2965.5620 2424.7131
5539 25.1616 3051(55) 3011.2732 2425.0632
5540 25.1656 2970(54) 3060.6396 2425.4136
5541 25.1696 3054(55) 3113.6772 2425.7639
5542 25.1736 3133(56) 3170.1667 2426.1140
5543 25.1776 3351(58) 3229.8081 2426.4641
5544 25.1816 3445(59) 3292.0183 2426.8145
5545 25.1856 3472(59) 3355.8960 2427.1646
5546 25.1896 3603(60) 3420.1531 2427.5146
5547 25.1936 3999(63) 3483.1011 2427.8652
5548 25.1976 3786(62) 3542.5015 2428.2153
5549 25.2016 3922(63) 3595.8469 2428.5654
5550 25.2056 4007(63) 3640.3911 2428.9158
5551 25.2096 3810(62) 3673.4429 2429.2659
5552 25.2136 3649(60) 3692.7678 2429.6160
5553 25.2176 3785(62) 3696.9536 2429.9663
5554 25.2216 3580(60) 3685.6804 2430.3167
5555 25.2256 3440(59) 3659.8975 2430.6667
5556 25.2296 3470(59) 3621.6689 2431.0171
5557 25.2336 3502(59) 3573.7393 2431.3672
5558 25.2376 3588(60) 3519.2861 2431.7173
5559 25.2416 3334(58) 3461.3735 2432.0676
5560 25.2456 3233(57) 3402.6426 2432.4180
5561 25.2496 3242(57) 3345.2517 2432.7681
5562 25.2536 3141(56) 3290.6711 2433.1182
5563 25.2576 3021(55) 3239.8435 2433.4685
5564 25.2616 2999(55) 3193.2654 2433.8186
5565 25.2656 3069(55) 3151.0886 2434.1687
5566 25.2696 2951(54) 3113.2390 2434.5190
5567 25.2736 2945(54) 3079.4827 2434.8694
5568 25.2776 3040(55) 3049.6069 2435.2195
5569 25.2816 2935(54) 3023.1794 2435.5698
5570 25.2856 2885(54) 2999.9307 2435.9199
5571 25.2896 2771(53) 2979.5684 2436.2700
5572 25.2936 2878(54) 2961.8315 2436.6204
5573 25.2976 3061(55) 2946.4968 2436.9705
5574 25.3016 2983(55) 2933.3730 2437.3208
5575 25.3056 3240(57) 2922.2563 2437.6709
5576 25.3096 2949(54) 2913.1499 2438.0212
5577 25.3136 2949(54) 2905.8943 2438.3713
5578 25.3176 3015(55) 2900.4160 2438.7217
5579 25.3216 2883(54) 2896.6633 2439.0718
5580 25.3256 2840(53) 2894.5703 2439.4221
5581 25.3296 2981(55) 2894.0981 2439.7722
5582 25.3336 2990(55) 2895.1970 2440.1226
5583 25.3376 2713(52) 2897.8083 2440.4727
5584 25.3416 2783(53) 2901.8589 2440.8228
5585 25.3456 2765(53) 2907.2539 2441.1731
5586 25.3496 2787(53) 2913.8701 2441.5232
5587 25.3536 2868(54) 2921.5601 2441.8735
5588 25.3576 3022(55) 2930.1042 2442.2239
5589 25.3616 2990(55) 2939.2715 2442.5740
5590 25.3656 3079(55) 2948.7671 2442.9241
5591 25.3696 3092(56) 2958.2915 2443.2744
5592 25.3736 2865(54) 2967.4888 2443.6245
5593 25.3776 2898(54) 2976.0156 2443.9749
5594 25.3816 2787(53) 2983.5410 2444.3250
5595 25.3856 2979(55) 2989.8030 2444.6753
5596 25.3896 3049(55) 2994.6252 2445.0254
5597 25.3936 3007(55) 2997.9431 2445.3757
5598 25.3976 2880(54) 2999.8208 2445.7258
5599 25.4016 3049(55) 3000.4465 2446.0759
5600 25.4056 3141(56) 3000.0896 2446.4263
5601 25.4096 2945(54) 2999.1912 2446.7766
5602 25.4136 2864(54) 2998.1562 2447.1267
5603 25.4176 2870(54) 2997.4419 2447.4768
5604 25.4216 2908(54) 2997.4976 2447.8271
5605 25.4256 3028(55) 2998.7488 2448.1772
5606 25.4296 3259(57) 3001.5884 2448.5276
5607 25.4336 3205(57) 3006.3542 2448.8779
5608 25.4376 3077(55) 3013.3464 2449.2280
5609 25.4416 2892(54) 3022.8127 2449.5781
5610 25.4456 2999(55) 3034.9495 2449.9285
5611 25.4496 3162(56) 3049.8945 2450.2786
5612 25.4536 3266(57) 3067.7183 2450.6287
5613 25.4576 3137(56) 3088.4185 2450.9790
5614 25.4616 2989(55) 3111.8599 2451.3293
5615 25.4656 2705(52) 3137.8000 2451.6794
5616 25.4696 2867(54) 3165.8279 2452.0298
5617 25.4736 3126(56) 3195.3379 2452.3799
5618 25.4776 3333(58) 3225.5127 2452.7300
5619 25.4816 3284(57) 3255.3279 2453.0803
5620 25.4856 3415(58) 3283.6047 2453.4307
5621 25.4896 3382(58) 3309.0571 2453.7808
5622 25.4936 3451(59) 3330.5554 2454.1309
5623 25.4976 3525(59) 3347.2207 2454.4812
5624 25.5016 3438(59) 3358.7090 2454.8313
5625 25.5056 3453(59) 3365.4658 2455.1816
5626 25.5096 3351(58) 3368.7710 2455.5320
5627 25.5136 3203(57) 3370.7568 2455.8821
5628 25.5176 3380(58) 3374.2993 2456.2322
5629 25.5216 3008(55) 3382.8225 2456.5825
5630 25.5256 3397(58) 3400.0659 2456.9326
5631 25.5296 3413(58) 3430.0129 2457.2827
5632 25.5336 3546(60) 3476.5674 2457.6331
5633 25.5376 3524(59) 3543.5835 2457.9834
5634 25.5416 3370(58) 3634.5835 2458.3335
5635 25.5456 3582(60) 3752.8159 2458.6838
5636 25.5496 3571(60) 3900.9678 2459.0339
5637 25.5536 3903(62) 4080.9697 2459.3840
5638 25.5576 4001(63) 4293.7344 2459.7344
5639 25.5616 4323(66) 4538.9121 2460.0847
5640 25.5656 4525(67) 4813.9897 2460.4348
5641 25.5696 4979(71) 5114.4492 2460.7849
5642 25.5736 5468(74) 5432.6611 2461.1353
5643 25.5776 5783(76) 5757.2832 2461.4854
5644 25.5816 6250(79) 6072.6934 2461.8357
5645 25.5856 6590(81) 6359.0747 2462.1858
5646 25.5896 7185(85) 6593.9263 2462.5361
5647 25.5936 7110(84) 6754.9102 2462.8862
5648 25.5976 7128(84) 6825.1963 2463.2366
5649 25.6016 7066(84) 6797.1768 2463.5867
5650 25.6056 7011(84) 6674.2119 2463.9368
5651 25.6096 6639(81) 6469.0186 2464.2871
5652 25.6136 6251(79) 6199.6890 2464.6375
5653 25.6176 5669(75) 5886.5332 2464.9875
5654 25.6216 5396(73) 5548.6279 2465.3379
5655 25.6256 4812(69) 5202.9131 2465.6880
5656 25.6296 4490(67) 4863.4922 2466.0381
5657 25.6336 4414(66) 4541.4438 2466.3884
5658 25.6376 4080(64) 4244.8223 2466.7385
5659 25.6416 3747(61) 3978.6763 2467.0889
5660 25.6456 3495(59) 3745.7979 2467.4390
5661 25.6496 3485(59) 3546.3481 2467.7893
5662 25.6536 3278(57) 3378.8872 2468.1394
5663 25.6576 3085(56) 3240.6396 2468.4897
5664 25.6616 2941(54) 3128.1802 2468.8398
5665 25.6656 2915(54) 3037.6887 2469.1899
5666 25.6696 3089(56) 2965.4038 2469.5403
5667 25.6736 3060(55) 2907.9216 2469.8906
5668 25.6776 2986(55) 2862.1653 2470.2407
5669 25.6816 2847(53) 2825.5491 2470.5908
5670 25.6856 2899(54) 2796.0010 2470.9412
5671 25.6896 2726(52) 2771.8777 2471.2913
5672 25.6936 2747(52) 2751.8828 2471.6416
5673 25.6976 2777(53) 2735.0979 2471.9919
5674 25.7016 2620(51) 2720.8489 2472.3420
5675 25.7056 2639(51) 2708.5791 2472.6921
5676 25.7096 2733(52) 2697.9053 2473.0425
5677 25.7136 2884(54) 2688.5576 2473.3926
5678 25.7176 2809(53) 2680.2498 2473.7427
5679 25.7216 2998(55) 2672.9226 2474.0930
5680 25.7256 2779(53) 2666.4116 2474.4434
5681 25.7296 2568(51) 2660.6035 2474.7935
5682 25.7336 2588(51) 2655.4324 2475.1438
5683 25.7376 2627(51) 2650.8201 2475.4939
5684 25.7416 2621(51) 2646.7075 2475.8440
5685 25.7456 2684(52) 2643.0239 2476.1943
5686 25.7496 2673(52) 2639.7615 2476.5447
5687 25.7536 2692(52) 2636.8596 2476.8948
5688 25.7576 2659(52) 2634.2815 2477.2449
5689 25.7616 2665(52) 2631.9934 2477.5952
5690 25.7656 2670(52) 2629.9636 2477.9453
5691 25.7696 2533(50) 2628.1646 2478.2954
5692 25.7736 2635(51) 2626.5647 2478.6460
5693 25.7776 2507(50) 2625.1499 2478.9961
5694 25.7816 2517(50) 2623.8950 2479.3462
5695 25.7856 2492(50) 2622.7810 2479.6965
5696 25.7896 2632(51) 2621.7834 2480.0466
5697 25.7936 2662(52) 2620.8896 2480.3967
5698 25.7976 2659(52) 2620.0854 2480.7471
5699 25.8016 2655(52) 2619.3582 2481.0974
5700 25.8056 2691(52) 2618.6958 2481.4475
5701 25.8096 2704(52) 2618.0879 2481.7979
5702 25.8136 2843(53) 2617.5247 2482.1479
5703 25.8176 2749(52) 2616.9973 2482.4980
5704 25.8216 2570(51) 2616.4988 2482.8484
5705 25.8256 2627(51) 2616.0208 2483.1987
5706 25.8296 2762(53) 2615.5564 2483.5488
5707 25.8336 2757(53) 2615.0984 2483.8989
5708 25.8376 2781(53) 2614.6404 2484.2493
5709 25.8416 2797(53) 2614.1741 2484.5994
5710 25.8456 2898(54) 2613.6917 2484.9497
5711 25.8496 2737(52) 2613.1685 2485.2998
5712 25.8536 2667(52) 2612.6313 2485.6501
5713 25.8576 2689(52) 2612.0532 2486.0002
5714 25.8616 2698(52) 2611.4272 2486.3506
5715 25.8656 2703(52) 2610.7439 2486.7007
5716 25.8696 2758(53) 2609.9949 2487.0508
5717 25.8736 2649(51) 2609.1729 2487.4011
5718 25.8776 2752(52) 2608.2708 2487.7515
5719 25.8816 2633(51) 2607.2839 2488.1016
5720 25.8856 2660(52) 2606.2087 2488.4517
5721 25.8896 2592(51) 2605.0493 2488.8020
5722 25.8936 2439(49) 2603.7932 2489.1521
5723 25.8976 2471(50) 2602.4487 2489.5024
5724 25.9016 2588(51) 2595.4758 2489.8525
5725 25.9056 2470(50) 2594.0291 2490.2029
5726 25.9096 2682(52) 2602.4954 2490.5530
5727 25.9136 2555(51) 2601.0764 2490.9033
5728 25.9176 2767(53) 2599.6030 2491.2534
5729 25.9216 2645(51) 2598.0605 2491.6035
5730 25.9256 2543(50) 2596.5078 2491.9539
5731 25.9296 2497(50) 2594.9497 2492.3042
5732 25.9336 2492(50) 2593.3584 2492.6543
5733 25.9376 2563(51) 2591.7505 2493.0046
5734 25.9416 2634(51) 2590.1621 2493.3547
5735 25.9456 2561(51) 2588.5894 2493.7048
5736 25.9496 2628(51) 2587.0427 2494.0552
5737 25.9536 2644(51) 2585.5298 2494.4053
5738 25.9576 2488(50) 2584.0581 2494.7556
5739 25.9616 2577(51) 2583.0366 2495.5061
5740 25.9656 2625(51) 2582.4683 2496.6565
5741 25.9696 2443(49) 2581.9631 2497.8069
5742 25.9736 2533(50) 2581.5232 2498.9573
5743 25.9776 2430(49) 2581.1516 2500.1077
5744 25.9816 2443(49) 2580.8503 2501.2585
5745 25.9856 2485(50) 2580.6453 2502.4089
5746 25.9896 2374(49) 2580.4858 2503.5591
5747 25.9936 2253(47) 2580.3955 2504.7095
5748 25.9976 2355(49) 2580.3716 2505.8599
5749 26.0016 2558(51) 2580.4084 2507.0103
5750 26.0056 2649(51) 2580.5012 2508.1606
5751 26.0096 2449(49) 2580.6436 2509.3115
5752 26.0136 2391(49) 2580.8286 2510.4619
5753 26.0176 2579(51) 2581.0481 2511.6123
5754 26.0216 2601(51) 2581.3103 2512.7627
5755 26.0256 2690(52) 2581.5576 2513.9131
5756 26.0296 2653(52) 2581.8359 2515.0635
5757 26.0336 2463(50) 2582.0908 2516.2136
5758 26.0376 2452(50) 2582.3799 2517.3647
5759 26.0416 2673(52) 2582.6670 2518.5149
5760 26.0456 2794(53) 2582.9478 2519.6653
5761 26.0496 2772(53) 2583.2275 2520.8157
5762 26.0536 2744(52) 2583.5042 2521.9661
5763 26.0576 2795(53) 2583.7803 2523.1165
5764 26.0616 3020(55) 2576.0723 2524.2673
5765 26.0656 2831(53) 2576.5068 2525.4177
5766 26.0696 2825(53) 2576.9404 2526.5681
5767 26.0736 2657(52) 2577.3892 2527.7185
5768 26.0776 2466(50) 2577.8679 2528.8689
5769 26.0816 2437(49) 2578.3811 2530.0190
5770 26.0856 2585(51) 2578.9355 2531.1694
5771 26.0896 2537(50) 2580.3762 2532.3203
5772 26.0936 2482(50) 2581.0537 2533.4707
5773 26.0976 2513(50) 2581.8000 2534.6211
5774 26.1016 2599(51) 2582.6230 2535.7715
5775 26.1056 2511(50) 2583.5298 2536.9219
5776 26.1096 2535(50) 2584.5271 2538.0723
5777 26.1136 2559(51) 2585.6206 2539.2231
5778 26.1176 2653(52) 2586.8149 2540.3735
5779 26.1216 2782(53) 2588.1150 2541.5239
5780 26.1256 2718(52) 2589.5239 2542.6743
5781 26.1296 2657(52) 2591.0454 2543.8247
5782 26.1336 2803(53) 2592.6760 2544.9749
5783 26.1376 2757(53) 2594.4302 2546.1252
5784 26.1416 2894(54) 2596.3047 2547.2761
5785 26.1456 2747(52) 2598.2998 2548.4265
5786 26.1496 2652(51) 2600.4185 2549.5769
5787 26.1536 2718(52) 2602.6621 2550.7273
5788 26.1576 2752(52) 2605.0334 2551.8777
5789 26.1616 2790(53) 2607.5344 2553.0281
5790 26.1656 2758(53) 2610.1692 2554.1790
5791 26.1696 2858(53) 2612.9211 2555.3293
5792 26.1736 2741(52) 2615.8291 2556.4797
5793 26.1776 2851(53) 2618.8794 2557.6301
5794 26.1816 2768(53) 2622.0771 2558.7805
5795 26.1856 2921(54) 2625.4272 2559.9307
5796 26.1896 2775(53) 2625.9958 2561.0811
5797 26.1936 2652(51) 2629.7065 2562.2319
5798 26.1976 2691(52) 2633.5889 2563.3823
5799 26.2016 2714(52) 2637.6536 2564.5327
5800 26.2056 2783(53) 2641.9111 2565.6831
5801 26.2096 2747(52) 2646.3735 2566.8335
5802 26.2136 2709(52) 2651.0537 2567.9839
5803 26.2176 2772(53) 2655.9673 2569.1343
5804 26.2216 2699(52) 2661.1333 2570.2852
5805 26.2256 2566(51) 2665.3665 2571.4355
5806 26.2296 2524(50) 2671.0996 2572.5859
5807 26.2336 2515(50) 2677.1465 2573.7361
5808 26.2376 2594(51) 2683.5330 2574.8865
5809 26.2416 2690(52) 2690.3062 2576.0369
5810 26.2456 2705(52) 2697.4678 2577.1877
5811 26.2496 2751(52) 2705.0366 2578.3381
5812 26.2536 2701(52) 2713.1211 2579.4885
5813 26.2576 2765(53) 2721.7495 2580.6389
5814 26.2616 2691(52) 2730.9937 2581.7893
5815 26.2656 2906(54) 2740.9490 2582.9397
5816 26.2696 2837(53) 2751.7434 2584.0901
5817 26.2736 2663(52) 2763.5579 2585.2410
5818 26.2776 2854(53) 2776.6160 2586.3914
5819 26.2816 2743(52) 2791.2737 2587.5417
5820 26.2856 2697(52) 2807.9822 2588.6919
5821 26.2896 2892(54) 2827.3657 2589.8423
5822 26.2936 2798(53) 2850.2546 2590.9927
5823 26.2976 2827(53) 2877.7490 2592.1436
5824 26.3016 2928(54) 2911.2104 2593.2939
5825 26.3056 2808(53) 2952.3811 2594.4443
5826 26.3096 3066(55) 3003.3594 2595.5947
5827 26.3136 3037(55) 3066.6196 2596.7451
5828 26.3176 2916(54) 3144.9937 2597.8955
5829 26.3216 3028(55) 3241.6079 2599.0459
5830 26.3256 3270(57) 3359.8501 2600.1968
5831 26.3296 3468(59) 3502.9927 2601.3472
5832 26.3336 3600(60) 3674.3389 2602.4976
5833 26.3376 3945(63) 3876.7759 2603.6477
5834 26.3416 3823(62) 4112.5527 2604.7981
5835 26.3456 4213(65) 4382.9448 2605.9485
5836 26.3496 4337(66) 4688.0723 2607.0994
5837 26.3536 5113(72) 5025.7100 2608.2498
5838 26.3576 5528(74) 5391.8320 2609.4001
5839 26.3616 5869(77) 5779.2764 2610.5505
5840 26.3656 6538(81) 6177.1904 2611.7009
5841 26.3696 6911(83) 6570.3848 2612.8513
5842 26.3736 7394(86) 6939.1123 2614.0017
5843 26.3776 7796(88) 7259.9697 2615.1526
5844 26.3816 8033(90) 7507.8779 2616.3030
5845 26.3856 8158(90) 7661.1685 2617.4531
5846 26.3896 8507(92) 7705.7744 2618.6035
5847 26.3936 8259(91) 7638.6934 2619.7539
5848 26.3976 7987(89) 7468.1030 2620.9043
5849 26.4016 7419(86) 7210.6699 2622.0547
5850 26.4056 6977(84) 6887.2598 2623.2056
5851 26.4096 6112(78) 6520.0586 2624.3560
5852 26.4136 5615(75) 6129.3984 2625.5063
5853 26.4176 4788(69) 5733.0381 2626.6567
5854 26.4216 4626(68) 5345.7207 2627.8071
5855 26.4256 4420(66) 4979.1665 2628.9575
5856 26.4296 4171(65) 4641.3496 2630.1084
5857 26.4336 3815(62) 4338.1177 2631.2588
5858 26.4376 3561(60) 4071.9600 2632.4089
5859 26.4416 3375(58) 3843.2002 2633.5593
5860 26.4456 3175(56) 3650.3052 2634.7097
5861 26.4496 3156(56) 3490.4116 2635.8601
5862 26.4536 3148(56) 3359.8699 2637.0105
5863 26.4576 3194(57) 3254.4551 2638.1614
5864 26.4616 3148(56) 3170.2344 2639.3118
5865 26.4656 3180(56) 3103.2915 2640.4622
5866 26.4696 3223(57) 3050.1853 2641.6125
5867 26.4736 3177(56) 3007.9658 2642.7629
5868 26.4776 2991(55) 2974.1921 2643.9131
5869 26.4816 2840(53) 2946.8940 2645.0642
5870 26.4856 2727(52) 2924.5559 2646.2144
5871 26.4896 2734(52) 2910.1697 2647.3647
5872 26.4936 2967(54) 2894.5569 2648.5151
5873 26.4976 2930(54) 2881.1968 2649.6655
5874 26.5016 2968(54) 2869.5857 2650.8159
5875 26.5056 2899(54) 2859.3789 2651.9663
5876 26.5096 2927(54) 2850.3123 2653.1172
5877 26.5136 2794(53) 2842.2019 2654.2676
5878 26.5176 2755(52) 2834.8997 2655.4180
5879 26.5216 2679(52) 2828.3145 2656.5684
5880 26.5256 2887(54) 2822.3237 2657.7188
5881 26.5296 2881(54) 2816.8792 2658.8689
5882 26.5336 2951(54) 2811.9263 2660.0193
5883 26.5376 2677(52) 2807.4185 2661.1702
5884 26.5416 2733(52) 2803.3223 2662.3206
5885 26.5456 2705(52) 2799.6023 2663.4709
5886 26.5496 2855(53) 2796.2322 2664.6213
5887 26.5536 2639(51) 2793.1863 2665.7717
5888 26.5576 2659(52) 2790.4426 2666.9221
5889 26.5616 2800(53) 2787.9795 2668.0730
5890 26.5656 2825(53) 2785.7808 2669.2234
5891 26.5696 2915(54) 2783.8267 2670.3738
5892 26.5736 2787(53) 2782.1028 2671.5242
5893 26.5776 2692(52) 2780.5918 2672.6743
5894 26.5816 2687(52) 2779.2793 2673.8247
5895 26.5856 2755(52) 2778.1499 2674.9751
5896 26.5896 2805(53) 2777.1892 2676.1260
5897 26.5936 2803(53) 2776.3835 2677.2764
5898 26.5976 2887(54) 2775.7185 2678.4268
5899 26.6016 2696(52) 2775.1799 2679.5771
5900 26.6056 2824(53) 2774.7539 2680.7275
5901 26.6096 2744(52) 2774.4270 2681.8779
5902 26.6136 2902(54) 2776.8147 2683.0288
5903 26.6176 2948(54) 2776.6880 2684.1792
5904 26.6216 2921(54) 2776.5945 2685.3296
5905 26.6256 2733(52) 2776.5771 2686.4800
5906 26.6296 2743(52) 2776.6267 2687.6301
5907 26.6336 3102(56) 2776.6702 2688.7805
5908 26.6376 3038(55) 2776.7300 2689.9309
5909 26.6416 2986(55) 2776.7983 2691.0818
5910 26.6456 2852(53) 2776.8682 2692.2322
5911 26.6496 2766(53) 2777.1565 2693.3826
5912 26.6536 2709(52) 2777.2190 2694.5330
5913 26.6576 2760(53) 2777.2720 2695.6833
5914 26.6616 2888(54) 2777.3147 2696.8337
5915 26.6656 2767(53) 2777.3479 2697.9846
5916 26.6696 2645(51) 2777.3733 2699.1350
5917 26.6736 2443(49) 2777.3940 2700.2854
5918 26.6776 2583(51) 2777.4136 2701.4355
5919 26.6816 2773(53) 2777.4377 2702.5859
5920 26.6856 2742(52) 2777.4678 2703.7363
5921 26.6896 2735(52) 2777.5115 2704.8867
5922 26.6936 2709(52) 2777.5803 2706.0376
5923 26.6976 2775(53) 2777.6765 2707.1880
5924 26.7016 2802(53) 2777.8057 2708.3384
5925 26.7056 2663(52) 2777.9731 2709.4888
5926 26.7096 2536(50) 2778.1853 2710.6392
5927 26.7136 2442(49) 2778.4941 2711.7896
5928 26.7176 2468(50) 2778.8079 2712.9399
5929 26.7216 2524(50) 2777.4434 2712.3555
5930 26.7256 2540(50) 2775.5627 2711.1941
5931 26.7296 2613(51) 2773.7456 2710.0327
5932 26.7336 2720(52) 2771.9980 2708.8713
5933 26.7376 2774(53) 2770.3301 2707.7100
5934 26.7416 2947(54) 2768.7158 2706.5486
5935 26.7456 2966(54) 2767.1716 2705.3865
5936 26.7496 2699(52) 2765.7065 2704.2251
5937 26.7536 2623(51) 2764.3105 2703.0637
5938 26.7576 2901(54) 2762.9910 2701.9023
5939 26.7616 2954(54) 2761.7500 2700.7410
5940 26.7656 2800(53) 2760.5906 2699.5796
5941 26.7696 2736(52) 2759.5132 2698.4180
5942 26.7736 2614(51) 2758.5254 2697.2561
5943 26.7776 2483(50) 2757.6301 2696.0947
5944 26.7816 2810(53) 2756.8323 2694.9333
5945 26.7856 2697(52) 2756.1375 2693.7720
5946 26.7896 2559(51) 2755.5901 2692.6104
5947 26.7936 2686(52) 2755.1218 2691.4490
5948 26.7976 2706(52) 2754.7727 2690.2871
5949 26.8016 2655(52) 2754.5752 2689.1257
5950 26.8056 2809(53) 2754.5142 2687.9644
5951 26.8096 2900(54) 2754.6111 2686.8027
5952 26.8136 2836(53) 2754.8958 2685.6414
5953 26.8176 2651(51) 2755.3496 2684.4800
5954 26.8216 2775(53) 2756.0054 2683.3186
5955 26.8256 2907(54) 2756.8752 2682.1567
5956 26.8296 2781(53) 2757.9863 2680.9951
5957 26.8336 2867(54) 2759.2954 2679.8337
5958 26.8376 2901(54) 2760.9404 2678.6724
5959 26.8416 2940(54) 2762.8845 2677.5110
5960 26.8456 2988(55) 2765.1501 2676.3496
5961 26.8496 2827(53) 2767.7622 2675.1877
5962 26.8536 2758(53) 2770.7422 2674.0261
5963 26.8576 2733(52) 2774.1157 2672.8647
5964 26.8616 2635(51) 2777.9050 2671.7034
5965 26.8656 2804(53) 2782.1384 2670.5420
5966 26.8696 2774(53) 2777.1150 2669.3806
5967 26.8736 2967(54) 2782.4575 2668.2192
5968 26.8776 2885(54) 2788.3074 2667.0571
5969 26.8816 2703(52) 2794.6753 2665.8958
5970 26.8856 2703(52) 2801.5771 2664.7344
5971 26.8896 2625(51) 2809.0217 2663.5730
5972 26.8936 2769(53) 2817.0322 2662.4116
5973 26.8976 2779(53) 2825.5464 2661.2502
5974 26.9016 2692(52) 2834.5974 2660.0886
5975 26.9056 2696(52) 2844.1543 2658.9268
5976 26.9096 2643(51) 2854.1528 2657.7654
5977 26.9136 2706(52) 2864.5615 2656.6040
5978 26.9176 2783(53) 2875.2554 2655.4426
5979 26.9216 2545(50) 2886.1633 2654.2812
5980 26.9256 2743(52) 2898.7659 2653.1196
5981 26.9296 2986(55) 2909.6606 2651.9578
5982 26.9336 3012(55) 2920.2544 2650.7964
5983 26.9376 3262(57) 2930.3621 2649.6350
5984 26.9416 3316(58) 2939.7458 2648.4736
5985 26.9456 3079(55) 2948.1770 2647.3120
5986 26.9496 3205(57) 2955.4412 2646.1506
5987 26.9536 3120(56) 2961.3542 2644.9893
5988 26.9576 3074(55) 2965.7844 2643.8274
5989 26.9616 3030(55) 2968.6528 2642.6660
5990 26.9656 2970(54) 2969.9702 2641.5044
5991 26.9696 3040(55) 2969.8064 2640.3430
5992 26.9736 3014(55) 2968.2991 2639.1816
5993 26.9776 2863(54) 2965.6389 2638.0203
5994 26.9816 3088(56) 2962.0498 2636.8584
5995 26.9856 3175(56) 2957.7815 2635.6968
5996 26.9896 2956(54) 2953.0757 2634.5354
5997 26.9936 2818(53) 2948.2107 2633.3740
5998 26.9976 2796(53) 2943.4844 2632.2126
5999 27.0016 2755(52) 2939.0239 2631.0513
6000 27.0056 2862(53) 2935.1504 2629.8899
6001 27.0096 2933(54) 2932.1431 2628.7278
6002 27.0136 2765(53) 2930.3044 2627.5664
6003 27.0176 2700(52) 2929.9814 2626.4050
6004 27.0216 2808(53) 2931.5815 2625.2437
6005 27.0256 2780(53) 2935.5823 2624.0823
6006 27.0296 2826(53) 2942.5408 2622.9209
6007 27.0336 2975(55) 2953.1023 2621.7588
6008 27.0376 2833(53) 2967.9756 2620.5974
6009 27.0416 2791(53) 2987.9529 2619.4360
6010 27.0456 2926(54) 3013.8679 2618.2747
6011 27.0496 3023(55) 3046.5725 2617.1133
6012 27.0536 2874(54) 3086.8950 2615.9519
6013 27.0576 3128(56) 3135.5889 2614.7903
6014 27.0616 3288(57) 3193.3035 2613.6284
6015 27.0656 3386(58) 3260.3960 2612.4670
6016 27.0696 3099(56) 3337.0034 2611.3057
6017 27.0736 3248(57) 3422.8894 2610.1443
6018 27.0776 3413(58) 3517.3235 2608.9829
6019 27.0816 3480(59) 3618.8215 2607.8213
6020 27.0856 3543(60) 3725.2209 2606.6599
6021 27.0896 3866(62) 3833.4355 2605.4980
6022 27.0936 4173(65) 3939.1526 2604.3367
6023 27.0976 4321(66) 4037.2422 2603.1753
6024 27.1016 4562(68) 4121.9316 2602.0137
6025 27.1056 4381(66) 4187.6626 2600.8523
6026 27.1096 4389(66) 4230.8076 2599.6909
6027 27.1136 4497(67) 4247.9863 2598.5291
6028 27.1176 4577(68) 4240.2246 2597.3677
6029 27.1216 4515(67) 4210.5356 2596.2061
6030 27.1256 4296(66) 4163.3130 2595.0447
6031 27.1296 3978(63) 4103.5566 2593.8833
6032 27.1336 3788(62) 4036.1504 2592.7219
6033 27.1376 3913(63) 3965.4604 2591.5605
6034 27.1416 3699(61) 3895.1587 2590.3984
6035 27.1456 3690(61) 3828.3115 2589.2371
6036 27.1496 3699(61) 3770.6353 2588.0757
6037 27.1536 3649(60) 3717.4248 2586.9143
6038 27.1576 3633(60) 3673.1211 2585.7529
6039 27.1616 3383(58) 3638.2964 2584.5916
6040 27.1656 3541(60) 3612.8623 2583.4294
6041 27.1696 3666(61) 3596.1125 2582.2681
6042 27.1736 3890(62) 3586.6094 2581.1067
6043 27.1776 3821(62) 3582.4883 2579.9453
6044 27.1816 3672(61) 3581.4590 2578.7839
6045 27.1856 3615(60) 3581.0020 2577.6226
6046 27.1896 3564(60) 3578.5757 2576.4612
6047 27.1936 3653(60) 3571.8931 2575.2991
6048 27.1976 3656(60) 3559.1450 2574.1377
6049 27.2016 3543(60) 3539.2285 2572.9763
6050 27.2056 3358(58) 3511.8633 2571.8149
6051 27.2096 3244(57) 3477.5723 2570.6536
6052 27.2136 3320(58) 3437.5349 2569.4922
6053 27.2176 3291(57) 3393.3247 2568.3301
6054 27.2216 3368(58) 3346.7305 2567.1687
6055 27.2256 3270(57) 3299.3960 2566.0073
6056 27.2296 3312(58) 3252.7310 2564.8459
6057 27.2336 3434(59) 3207.8320 2563.6846
6058 27.2376 3303(57) 3165.4700 2562.5229
6059 27.2416 3191(56) 3126.0991 2561.3616
6060 27.2456 3083(56) 3089.8574 2560.1997
6061 27.2496 2967(54) 3056.8081 2559.0383
6062 27.2536 3062(55) 3026.8115 2557.8770
6063 27.2576 2949(54) 2999.6643 2556.7153
6064 27.2616 2892(54) 2975.1201 2555.5540
6065 27.2656 2928(54) 2953.3079 2554.3926
6066 27.2696 2907(54) 2933.2036 2553.2312
6067 27.2736 3029(55) 2914.9580 2552.0693
6068 27.2776 3008(55) 2898.2708 2550.9077
6069 27.2816 3023(55) 2882.9858 2549.7463
6070 27.2856 2845(53) 2868.9270 2548.5850
6071 27.2896 2941(54) 2855.9431 2547.4236
6072 27.2936 2783(53) 2843.8999 2546.2622
6073 27.2976 2789(53) 2832.7075 2545.1001
6074 27.3016 2902(54) 2822.2876 2543.9387
6075 27.3056 2732(52) 2812.5764 2542.7773
6076 27.3096 2983(55) 2803.5312 2541.6160
6077 27.3136 2827(53) 2795.1458 2540.4546
6078 27.3176 2763(53) 2787.4253 2539.2932
6079 27.3216 3006(55) 2780.4023 2538.1318
6080 27.3256 2852(53) 2774.1365 2536.9697
6081 27.3296 2837(53) 2768.7314 2535.8083
6082 27.3336 2856(53) 2764.3184 2534.6470
6083 27.3376 2808(53) 2761.0762 2533.4856
6084 27.3416 2966(54) 2759.2329 2532.3242
6085 27.3456 2705(52) 2759.0674 2531.1628
6086 27.3496 2827(53) 2760.9131 2530.0007
6087 27.3536 2979(55) 2765.1519 2528.8394
6088 27.3576 2737(52) 2772.2124 2527.6780
6089 27.3616 2827(53) 2782.5564 2526.5166
6090 27.3656 2869(54) 2796.6658 2525.3552
6091 27.3696 3047(55) 2815.0115 2524.1938
6092 27.3736 2994(55) 2838.0381 2523.0322
6093 27.3776 3078(55) 2866.1313 2521.8704
6094 27.3816 2964(54) 2899.5085 2520.7090
6095 27.3856 3051(55) 2938.3911 2519.5476
6096 27.3896 3198(57) 2982.6431 2518.3862
6097 27.3936 3144(56) 3031.9473 2517.2246
6098 27.3976 3095(56) 3085.6411 2516.0632
6099 27.4016 3458(59) 3142.6726 2514.9014
6100 27.4056 3540(59) 3201.4062 2513.7400
6101 27.4096 3601(60) 3259.7014 2512.5786
6102 27.4136 3704(61) 3314.7715 2511.4170
6103 27.4176 3786(62) 3363.3000 2510.2556
6104 27.4216 3883(62) 3401.7319 2509.0942
6105 27.4256 3694(61) 3426.7881 2507.9329
6106 27.4296 3616(60) 3436.0962 2506.7710
6107 27.4336 3720(61) 3428.6975 2505.6094
6108 27.4376 3698(61) 3405.2346 2504.4480
6109 27.4416 3623(60) 3367.6782 2503.2866
6110 27.4456 3557(60) 3318.8411 2502.1252
6111 27.4496 3575(60) 3261.8577 2500.9639
6112 27.4536 3471(59) 3199.8003 2499.8025
6113 27.4576 3474(59) 3135.4248 2498.6404
6114 27.4616 3031(55) 3071.1892 2497.4790
6115 27.4656 2851(53) 3009.0298 2496.3176
6116 27.4696 2813(53) 2950.4788 2495.1562
6117 27.4736 2772(53) 2896.6414 2493.9949
6118 27.4776 2961(54) 2848.2205 2492.8335
6119 27.4816 3038(55) 2805.5391 2491.6714
6120 27.4856 2965(54) 2768.6707 2490.5100
6121 27.4896 2936(54) 2737.3806 2489.3486
6122 27.4936 2971(55) 2711.2771 2488.1873
6123 27.4976 2822(53) 2689.8574 2487.0259
6124 27.5016 2920(54) 2672.5669 2485.8645
6125 27.5056 2775(53) 2658.8477 2484.7029
6126 27.5096 2663(52) 2648.1755 2483.5410
6127 27.5136 2722(52) 2640.1011 2482.3796
6128 27.5176 2574(51) 2634.2390 2481.2183
6129 27.5216 2544(50) 2630.2952 2480.0569
6130 27.5256 2525(50) 2628.0671 2478.8955
6131 27.5296 2586(51) 2627.4370 2477.7339
6132 27.5336 2620(51) 2628.4153 2476.5720
6133 27.5376 2676(52) 2630.9570 2475.4106
6134 27.5416 2752(52) 2635.2261 2474.2493
6135 27.5456 2779(53) 2641.4131 2473.0879
6136 27.5496 2689(52) 2649.7751 2471.9263
6137 27.5536 2697(52) 2660.6362 2470.7649
6138 27.5576 2669(52) 2674.3813 2469.6035
6139 27.5616 2835(53) 2691.7825 2468.4417
6140 27.5656 2837(53) 2712.6948 2467.2803
6141 27.5696 2825(53) 2737.9868 2466.1187
6142 27.5736 3004(55) 2768.2441 2464.9573
6143 27.5776 3292(57) 2804.0703 2463.7959
6144 27.5816 3228(57) 2846.0593 2462.6345
6145 27.5856 3041(55) 2894.7549 2461.4731
6146 27.5896 2855(53) 2950.6277 2460.3110
6147 27.5936 2914(54) 3014.0286 2459.1497
6148 27.5976 3031(55) 3084.7412 2457.9883
6149 27.6016 3224(57) 3162.6113 2456.8269
6150 27.6056 3408(58) 3245.8794 2455.6655
6151 27.6096 3521(59) 3335.9585 2454.5042
6152 27.6136 3590(60) 3430.5864 2453.3420
6153 27.6176 3531(59) 3528.6235 2452.1807
6154 27.6216 3649(60) 3629.1128 2451.0193
6155 27.6256 3711(61) 3731.1309 2449.8579
6156 27.6296 3853(62) 3833.5776 2448.6965
6157 27.6336 3881(62) 3934.7993 2447.5352
6158 27.6376 3963(63) 4032.2075 2446.3735
6159 27.6416 4117(64) 4122.0571 2445.2117
6160 27.6456 4034(64) 4199.0674 2444.0503
6161 27.6496 4102(64) 4257.9424 2442.8889
6162 27.6536 4373(66) 4292.7559 2441.7275
6163 27.6576 4625(68) 4298.9839 2440.5662
6164 27.6616 4698(69) 4274.4595 2439.4048
6165 27.6656 4352(66) 4219.8174 2438.2427
6166 27.6696 4342(66) 4138.3906 2437.0813
6167 27.6736 4129(64) 4035.2324 2435.9199
6168 27.6776 3831(62) 3916.2188 2434.7585
6169 27.6816 3725(61) 3787.2290 2433.5972
6170 27.6856 3430(59) 3653.6548 2432.4355
6171 27.6896 3195(57) 3520.1562 2431.2742
6172 27.6936 3058(55) 3390.5264 2430.1123
6173 27.6976 3048(55) 3267.9146 2428.9509
6174 27.7016 2808(53) 3154.4758 2427.7896
6175 27.7056 2838(53) 3051.6638 2426.6279
6176 27.7096 2538(50) 2960.2344 2425.4666
6177 27.7136 2577(51) 2880.3328 2424.3052
6178 27.7176 2657(52) 2811.5762 2423.1433
6179 27.7216 2520(50) 2753.2974 2421.9819
6180 27.7256 2435(49) 2704.4746 2420.8203
6181 27.7296 2567(51) 2663.9790 2419.6589
6182 27.7336 2680(52) 2630.7493 2418.4976
6183 27.7376 2710(52) 2603.4204 2417.3362
6184 27.7416 2816(53) 2581.0510 2416.1748
6185 27.7456 2702(52) 2562.6953 2415.0127
6186 27.7496 2663(52) 2547.5708 2413.8513
6187 27.7536 2619(51) 2534.9919 2412.6899
6188 27.7576 2679(52) 2524.4189 2411.5286
6189 27.7616 2662(52) 2515.4194 2410.3672
6190 27.7656 2435(49) 2507.6565 2409.2058
6191 27.7696 2494(50) 2500.8708 2408.0444
6192 27.7736 2509(50) 2494.8618 2406.8823
6193 27.7776 2484(50) 2489.4863 2405.7209
6194 27.7816 2571(51) 2484.6274 2404.5596
6195 27.7856 2626(51) 2480.2000 2403.3982
6196 27.7896 2536(50) 2476.1379 2402.2368
6197 27.7936 2660(52) 2472.3901 2401.0752
6198 27.7976 2479(50) 2468.9158 2399.9133
6199 27.8016 2323(48) 2465.6853 2398.7520
6200 27.8056 2409(49) 2462.6714 2397.5906
6201 27.8096 2381(49) 2459.8525 2396.4292
6202 27.8136 2384(49) 2457.2109 2395.2678
6203 27.8176 2509(50) 2454.7300 2394.1064
6204 27.8216 2573(51) 2452.4004 2392.9448
6205 27.8256 2560(51) 2450.2117 2391.7830
6206 27.8296 2585(51) 2448.1475 2390.6216
6207 27.8336 2536(50) 2445.3838 2389.4602
6208 27.8376 2359(49) 2443.5720 2388.2988
6209 27.8416 2361(49) 2441.8740 2387.1372
6210 27.8456 2385(49) 2440.2866 2385.9758
6211 27.8496 2646(51) 2438.8064 2384.8140
6212 27.8536 2474(50) 2437.4343 2383.6526
6213 27.8576 2287(48) 2436.1714 2382.4912
6214 27.8616 2349(48) 2435.0146 2381.3296
6215 27.8656 2579(51) 2433.9690 2380.1682
6216 27.8696 2580(51) 2433.0374 2379.0068
6217 27.8736 2448(49) 2432.2241 2377.8455
6218 27.8776 2395(49) 2431.5559 2376.6836
6219 27.8816 2443(49) 2430.9963 2375.5220
6220 27.8856 2448(49) 2430.5757 2374.3606
6221 27.8896 2581(51) 2430.3013 2373.1992
6222 27.8936 2659(52) 2430.1833 2372.0378
6223 27.8976 2505(50) 2430.2305 2370.8765
6224 27.9016 2497(50) 2430.4595 2369.7144
6225 27.9056 2511(50) 2430.8801 2368.5530
6226 27.9096 2546(50) 2431.5708 2367.3916
6227 27.9136 2462(50) 2432.4153 2366.2302
6228 27.9176 2433(49) 2429.3662 2365.0688
6229 27.9216 2519(50) 2430.7351 2363.9075
6230 27.9256 2466(50) 2432.3621 2362.7461
6231 27.9296 2640(51) 2434.2581 2361.5840
6232 27.9336 2680(52) 2434.8123 2360.4226
6233 27.9376 2496(50) 2437.2864 2359.2612
6234 27.9416 2465(50) 2440.0332 2358.0999
6235 27.9456 2469(50) 2443.0386 2356.9385
6236 27.9496 2697(52) 2446.2759 2355.7769
6237 27.9536 2758(53) 2449.7024 2354.6155
6238 27.9576 2547(50) 2453.2581 2353.4536
6239 27.9616 2483(50) 2456.8560 2352.2922
6240 27.9656 2356(49) 2460.3936 2351.1309
6241 27.9696 2500(50) 2463.7463 2349.9695
6242 27.9736 2420(49) 2466.7793 2348.8081
6243 27.9776 2538(50) 2469.3691 2347.6465
6244 27.9816 2483(50) 2471.3816 2346.4846
6245 27.9856 2361(49) 2472.7527 2345.3232
6246 27.9896 2291(48) 2473.4697 2344.1619
6247 27.9936 2071(46) 2473.5869 2343.0005
6248 27.9976 2123(46) 2473.2544 2341.8389
6249 28.0016 2303(48) 2472.6741 2340.6775
6250 28.0056 2512(50) 2472.1062 2339.5161
6251 28.0096 2625(51) 2471.8435 2338.3542
6252 28.0136 2506(50) 2472.1909 2337.1929
6253 28.0176 2406(49) 2473.4492 2336.0312
6254 28.0216 2423(49) 2475.9255 2334.8699
6255 28.0256 2556(51) 2479.8584 2333.7085
6256 28.0296 2466(50) 2485.5264 2332.5471
6257 28.0336 2439(49) 2493.1790 2331.3853
6258 28.0376 2402(49) 2503.0452 2330.2236
6259 28.0416 2449(49) 2515.3533 2329.0623
6260 28.0456 2478(50) 2530.3110 2327.9009
6261 28.0496 2413(49) 2548.1008 2326.7395
6262 28.0536 2415(49) 2568.8601 2325.5781
6263 28.0576 2406(49) 2592.6616 2324.4167
6264 28.0616 2327(48) 2619.5005 2323.2546
6265 28.0656 2432(49) 2649.2207 2322.0933
6266 28.0696 2622(51) 2681.5894 2320.9319
6267 28.0736 2711(52) 2716.2712 2319.7705
6268 28.0776 2805(53) 2752.9001 2318.6091
6269 28.0816 2732(52) 2791.1448 2317.4478
6270 28.0856 2689(52) 2830.7817 2316.2856
6271 28.0896 2847(53) 2871.5986 2315.1243
6272 28.0936 2887(54) 2913.4163 2313.9629
6273 28.0976 3043(55) 2955.8716 2312.8015
6274 28.1016 2930(54) 2998.2756 2311.6401
6275 28.1056 2960(54) 3039.4702 2310.4785
6276 28.1096 2880(54) 3077.7976 2309.3171
6277 28.1136 2901(54) 3111.0708 2308.1553
6278 28.1176 2942(54) 3136.7327 2306.9939
6279 28.1216 3174(56) 3152.3142 2305.8325
6280 28.1256 3158(56) 3155.1025 2304.6711
6281 28.1296 3270(57) 3145.4949 2303.5098
6282 28.1336 2903(54) 3122.9087 2302.3481
6283 28.1376 2960(54) 3088.5999 2301.1868
6284 28.1416 2767(53) 3044.5918 2300.0249
6285 28.1456 2696(52) 2993.3694 2298.8635
6286 28.1496 2461(50) 2937.3992 2297.7021
6287 28.1536 2436(49) 2879.0269 2296.5405
6288 28.1576 2605(51) 2820.2280 2295.3792
6289 28.1616 2544(50) 2762.7285 2294.2178
6290 28.1656 2400(49) 2705.0811 2293.5068
6291 28.1696 2500(50) 2654.4678 2292.7964
6292 28.1736 2380(49) 2608.2661 2292.0857
6293 28.1776 2589(51) 2566.8887 2291.3752
6294 28.1816 2606(51) 2530.4814 2290.6646
6295 28.1856 2486(50) 2498.9619 2289.9541
6296 28.1896 2387(49) 2472.0881 2289.2434
6297 28.1936 2256(47) 2449.4668 2288.5325
6298 28.1976 2371(49) 2430.6633 2287.8220
6299 28.2016 2436(49) 2415.1609 2287.1113
6300 28.2056 2189(47) 2402.4963 2286.4009
6301 28.2096 2283(48) 2392.1899 2285.6902
6302 28.2136 2397(49) 2383.8198 2284.9797
6303 28.2176 2306(48) 2377.0137 2284.2688
6304 28.2216 2385(49) 2371.4639 2283.5583
6305 28.2256 2466(50) 2366.9070 2282.8477
6306 28.2296 2506(50) 2363.1345 2282.1372
6307 28.2336 2209(47) 2359.9792 2281.4265
6308 28.2376 2217(47) 2357.3125 2280.7161
6309 28.2416 2283(48) 2355.0632 2280.0054
6310 28.2456 2557(51) 2353.0979 2279.2944
6311 28.2496 2581(51) 2351.3899 2278.5840
6312 28.2536 2768(53) 2350.5222 2277.8733
6313 28.2576 2642(51) 2349.2195 2277.1628
6314 28.2616 2472(50) 2348.0713 2276.4521
6315 28.2656 2366(49) 2347.0659 2275.7417
6316 28.2696 2303(48) 2346.1838 2275.0308
6317 28.2736 2301(48) 2345.4128 2274.3203
6318 28.2776 2290(48) 2344.7393 2273.6096
6319 28.2816 2225(47) 2344.1484 2272.8992
6320 28.2856 2252(47) 2343.6226 2272.1885
6321 28.2896 2387(49) 2343.1404 2271.4780
6322 28.2936 2404(49) 2342.6731 2270.7673
6323 28.2976 2362(49) 2342.1860 2270.0564
6324 28.3016 2544(50) 2341.6375 2269.3459
6325 28.3056 2429(49) 2340.9700 2268.6353
6326 28.3096 2197(47) 2340.1514 2267.9248
6327 28.3136 2272(48) 2339.1218 2267.2141
6328 28.3176 2207(47) 2337.8394 2266.5037
6329 28.3216 2372(49) 2336.2739 2265.7930
6330 28.3256 2463(50) 2334.4141 2265.0820
6331 28.3296 2217(47) 2332.2729 2264.3716
6332 28.3336 2177(47) 2329.8809 2263.6611
6333 28.3376 2234(47) 2327.3113 2262.9504
6334 28.3416 2363(49) 2324.5725 2262.2400
6335 28.3456 2319(48) 2321.7849 2261.5293
6336 28.3496 2251(47) 2318.9360 2260.8184
6337 28.3536 2348(48) 2316.1130 2260.1079
6338 28.3576 2298(48) 2313.3530 2259.3972
6339 28.3616 2258(48) 2310.6851 2258.6868
6340 28.3656 2153(46) 2308.1729 2257.9761
6341 28.3696 2207(47) 2305.7349 2257.2656
6342 28.3736 2179(47) 2303.4207 2256.5549
6343 28.3776 2275(48) 2301.2288 2255.8440
6344 28.3816 2385(49) 2299.1646 2255.1335
6345 28.3856 2303(48) 2297.2048 2254.4229
6346 28.3896 2317(48) 2295.3506 2253.7124
6347 28.3936 2199(47) 2293.5938 2253.0020
6348 28.3976 2209(47) 2291.9431 2252.2913
6349 28.4016 2289(48) 2290.3494 2251.5803
6350 28.4056 2135(46) 2288.8376 2250.8699
6351 28.4096 2082(46) 2287.3931 2250.1592
6352 28.4136 2208(47) 2286.0095 2249.4487
6353 28.4176 2347(48) 2284.6558 2248.7380
6354 28.4216 2392(49) 2283.3777 2248.0276
6355 28.4256 2379(49) 2282.1448 2247.3169
6356 28.4296 2305(48) 2280.9573 2246.6060
6357 28.4336 2240(47) 2279.8040 2245.8955
6358 28.4376 2377(49) 2278.6858 2245.1848
6359 28.4416 2427(49) 2277.6006 2244.4744
6360 28.4456 2480(50) 2276.5427 2243.7637
6361 28.4496 2473(50) 2275.5027 2243.0532
6362 28.4536 2468(50) 2274.5042 2242.3423
6363 28.4576 2388(49) 2273.5278 2241.6318
6364 28.4616 2398(49) 2272.5801 2240.9211
6365 28.4656 2357(49) 2271.6597 2240.2107
6366 28.4696 2324(48) 2271.0281 2239.5000
6367 28.4736 2395(49) 2270.1572 2238.7896
6368 28.4776 2388(49) 2269.2822 2238.0789
6369 28.4816 2363(49) 2268.4507 2237.3679
6370 28.4856 2566(51) 2271.0750 2236.6575
6371 28.4896 2515(50) 2270.8660 2235.9468
6372 28.4936 2469(50) 2270.1580 2235.2363
6373 28.4976 2524(50) 2269.4678 2234.5256
6374 28.5016 2406(49) 2268.7952 2233.8152
6375 28.5056 2424(49) 2268.1382 2233.1045
6376 28.5096 2325(48) 2267.4968 2232.3938
6377 28.5136 2253(47) 2266.8833 2231.6831
6378 28.5176 2322(48) 2266.2668 2230.9727
6379 28.5216 2218(47) 2265.6631 2230.2620
6380 28.5256 2266(48) 2265.0693 2229.5515
6381 28.5296 2240(47) 2264.4861 2228.8408
6382 28.5336 2318(48) 2263.9121 2228.1299
6383 28.5376 2341(48) 2263.3445 2227.4194
6384 28.5416 2341(48) 2262.7896 2226.7087
6385 28.5456 2287(48) 2262.2441 2225.9983
6386 28.5496 2241(47) 2261.7021 2225.2876
6387 28.5536 2234(47) 2261.1743 2224.5771
6388 28.5576 2277(48) 2260.6511 2223.8665
6389 28.5616 2146(46) 2260.6736 2223.1558
6390 28.5656 2203(47) 2260.1777 2222.4451
6391 28.5696 2398(49) 2259.6899 2221.7346
6392 28.5736 2505(50) 2259.2056 2221.0239
6393 28.5776 2349(48) 2258.7319 2220.3135
6394 28.5816 2336(48) 2258.2698 2219.6028
6395 28.5856 2257(48) 2257.8096 2218.8918
6396 28.5896 2340(48) 2257.3557 2218.1814
6397 28.5936 2298(48) 2256.9282 2217.4707
6398 28.5976 2253(47) 2256.4915 2216.7603
6399 28.6016 2372(49) 2255.7510 2216.0496
6400 28.6056 2485(50) 2255.3396 2215.3391
6401 28.6096 2265(48) 2254.9539 2214.6284
6402 28.6136 2274(48) 2254.5698 2213.9175
6403 28.6176 2194(47) 2254.2036 2213.2070
6404 28.6216 2129(46) 2253.8547 2212.4963
6405 28.6256 2222(47) 2253.5325 2211.7859
6406 28.6296 2377(49) 2253.2368 2211.0752
6407 28.6336 2462(50) 2252.9717 2210.3647
6408 28.6376 2367(49) 2252.7410 2209.6538
6409 28.6416 2282(48) 2252.5520 2208.9434
6410 28.6456 2351(48) 2250.9368 2208.2327
6411 28.6496 2367(49) 2250.8535 2207.5222
6412 28.6536 2427(49) 2250.8315 2206.8115
6413 28.6576 2358(49) 2250.8728 2206.1011
6414 28.6616 2285(48) 2250.9863 2205.3904
6415 28.6656 2254(47) 2251.1760 2204.6794
6416 28.6696 2204(47) 2251.4761 2203.9690
6417 28.6736 2298(48) 2251.8982 2203.2583
6418 28.6776 2406(49) 2252.4697 2202.5479
6419 28.6816 2387(49) 2253.2256 2201.8372
6420 28.6856 2458(50) 2254.2109 2201.1267
6421 28.6896 2428(49) 2255.4810 2200.4160
6422 28.6936 2401(49) 2257.1067 2199.7053
6423 28.6976 2373(49) 2259.1687 2198.9946
6424 28.7016 2438(49) 2261.7673 2198.2842
6425 28.7056 2265(48) 2265.0159 2197.5735
6426 28.7096 2427(49) 2269.7285 2196.8630
6427 28.7136 2513(50) 2274.6770 2196.1523
6428 28.7176 2486(50) 2280.3140 2195.4414
6429 28.7216 2496(50) 2287.5972 2194.7310
6430 28.7256 2411(49) 2296.2209 2194.0203
6431 28.7296 2378(49) 2306.3604 2193.3098
6432 28.7336 2495(50) 2318.1284 2192.5991
6433 28.7376 2463(50) 2331.6172 2191.8887
6434 28.7416 2663(52) 2346.8677 2191.1780
6435 28.7456 2529(50) 2363.8821 2190.4673
6436 28.7496 2368(49) 2382.5542 2189.7566
6437 28.7536 2292(48) 2402.7136 2189.0461
6438 28.7576 2258(48) 2424.0679 2188.3354
6439 28.7616 2265(48) 2446.1846 2187.6250
6440 28.7656 2333(48) 2468.4751 2186.9143
6441 28.7696 2646(51) 2490.1741 2186.2034
6442 28.7736 2479(50) 2510.3120 2185.4929
6443 28.7776 2452(50) 2527.8115 2184.7822
6444 28.7816 2413(49) 2542.8679 2184.0718
6445 28.7856 2638(51) 2551.8989 2183.3611
6446 28.7896 2561(51) 2555.5168 2182.6506
6447 28.7936 2333(48) 2553.4783 2181.9399
6448 28.7976 2305(48) 2546.0071 2181.2290
6449 28.8016 2616(51) 2533.7346 2180.5186
6450 28.8056 2555(51) 2517.5398 2179.8081
6451 28.8096 2447(49) 2498.4124 2179.0974
6452 28.8136 2533(50) 2477.3364 2178.3870
6453 28.8176 2535(50) 2455.2197 2177.6763
6454 28.8216 2605(51) 2432.8584 2176.9658
6455 28.8256 2529(50) 2410.9124 2176.2549
6456 28.8296 2431(49) 2389.9441 2175.5442
6457 28.8336 2348(48) 2370.3560 2174.8337
6458 28.8376 2405(49) 2352.4385 2174.1230
6459 28.8416 2597(51) 2336.3687 2173.4126
6460 28.8456 2646(51) 2322.2222 2172.7019
6461 28.8496 2409(49) 2309.9841 2171.9910
6462 28.8536 2409(49) 2299.5901 2171.2805
6463 28.8576 2373(49) 2290.9084 2170.5698
6464 28.8616 2345(48) 2283.7808 2169.8594
6465 28.8656 2293(48) 2278.0439 2169.1489
6466 28.8696 2316(48) 2273.5413 2168.4382
6467 28.8736 2381(49) 2270.0728 2167.7278
6468 28.8776 2257(48) 2267.5229 2167.0168
6469 28.8816 2346(48) 2265.7527 2166.3062
6470 28.8856 2341(48) 2264.6868 2165.5957
6471 28.8896 2182(47) 2264.2524 2164.8850
6472 28.8936 2311(48) 2264.4006 2164.1746
6473 28.8976 2290(48) 2265.1162 2163.4639
6474 28.9016 2414(49) 2266.4114 2162.7529
6475 28.9056 2562(51) 2268.3137 2162.0425
6476 28.9096 2552(51) 2270.9473 2161.3318
6477 28.9136 2460(50) 2274.4133 2160.6213
6478 28.9176 2367(49) 2278.8831 2159.9106
6479 28.9216 2244(47) 2284.5862 2159.2002
6480 28.9256 2335(48) 2291.8176 2158.4897
6481 28.9296 2265(48) 2300.9541 2157.7788
6482 28.9336 2308(48) 2312.4436 2157.0681
6483 28.9376 2266(48) 2326.8374 2156.3577
6484 28.9416 2384(49) 2344.7783 2155.6470
6485 28.9456 2388(49) 2367.0024 2154.9365
6486 28.9496 2401(49) 2394.3298 2154.2258
6487 28.9536 2546(50) 2427.6677 2153.5149
6488 28.9576 2574(51) 2467.9482 2152.8044
6489 28.9616 2569(51) 2516.0720 2152.0938
6490 28.9656 2485(50) 2572.9727 2151.3833
6491 28.9696 2605(51) 2639.5159 2150.6726
6492 28.9736 2548(50) 2716.3774 2149.9622
6493 28.9776 2567(51) 2804.0396 2149.2515
6494 28.9816 2670(52) 2902.7419 2148.5408
6495 28.9856 2752(52) 3012.2236 2147.8301
6496 28.9896 2652(51) 3131.8799 2147.1196
6497 28.9936 2902(54) 3260.4561 2146.4089
6498 28.9976 2918(54) 3396.0010 2145.6985
6499 29.0016 3296(57) 3535.6887 2144.9878
6500 29.0056 3414(58) 3675.6853 2144.2773
6501 29.0096 3778(61) 3811.1367 2143.5664
6502 29.0136 3891(62) 3935.9751 2142.8557
6503 29.0176 4145(64) 4043.6553 2142.1453
6504 29.0216 4387(66) 4127.5684 2141.4346
6505 29.0256 4155(64) 4182.0854 2140.7241
6506 29.0296 4301(66) 4203.5669 2140.0134
6507 29.0336 4006(63) 4191.0498 2139.3027
6508 29.0376 3965(63) 4146.3721 2138.5920
6509 29.0416 3802(62) 4073.6519 2137.8816
6510 29.0456 3644(60) 3978.4475 2137.1709
6511 29.0496 3428(59) 3866.8896 2136.4604
6512 29.0536 3290(57) 3745.0234 2135.7498
6513 29.0576 3086(56) 3618.2549 2135.0393
6514 29.0616 2990(55) 3491.6055 2134.3284
6515 29.0656 2879(54) 3369.0664 2133.6177
6516 29.0696 2707(52) 3253.6919 2132.9072
6517 29.0736 2717(52) 3147.7729 2132.1965
6518 29.0776 2520(50) 3052.7046 2131.4861
6519 29.0816 2497(50) 2969.0710 2130.7754
6520 29.0856 2454(50) 2896.6631 2130.0645
6521 29.0896 2391(49) 2834.7034 2129.3540
6522 29.0936 2469(50) 2781.7766 2128.6436
6523 29.0976 2453(50) 2736.1560 2127.9329
6524 29.1016 2556(51) 2696.0090 2127.2222
6525 29.1056 2620(51) 2659.6121 2126.5117
6526 29.1096 2550(50) 2625.5686 2125.8013
6527 29.1136 2632(51) 2592.8823 2125.0903
6528 29.1176 2488(50) 2561.0825 2124.3796
6529 29.1216 2619(51) 2529.8484 2123.6692
6530 29.1256 2483(50) 2499.2656 2122.9585
6531 29.1296 2495(50) 2469.5098 2122.2480
6532 29.1336 2569(51) 2440.8264 2121.5374
6533 29.1376 2457(50) 2413.4734 2120.8264
6534 29.1416 2406(49) 2387.7439 2120.1160
6535 29.1456 2388(49) 2363.8684 2119.4053
6536 29.1496 2349(48) 2342.0576 2118.6948
6537 29.1536 2309(48) 2322.4805 2117.9841
6538 29.1576 2265(48) 2305.2610 2117.2737
6539 29.1616 2251(47) 2290.4790 2116.5630
6540 29.1656 2254(47) 2278.1724 2115.8523
6541 29.1696 2357(49) 2268.3591 2115.1416
6542 29.1736 2342(48) 2261.0374 2114.4312
6543 29.1776 2142(46) 2256.1848 2113.7205
6544 29.1816 2270(48) 2253.7798 2113.0100
6545 29.1856 2191(47) 2253.8064 2112.2993
6546 29.1896 2104(46) 2256.2617 2111.5889
6547 29.1936 2163(47) 2261.1780 2110.8779
6548 29.1976 2309(48) 2268.4351 2110.1672
6549 29.2016 2277(48) 2278.0752 2109.4568
6550 29.2056 2129(46) 2290.0493 2108.7461
6551 29.2096 2190(47) 2304.2769 2108.0356
6552 29.2136 2370(49) 2320.6235 2107.3250
6553 29.2176 2368(49) 2338.8984 2106.6143
6554 29.2216 2202(47) 2358.7690 2105.9036
6555 29.2256 2371(49) 2379.8391 2105.1931
6556 29.2296 2442(49) 2401.5229 2104.4824
6557 29.2336 2405(49) 2423.0952 2103.7720
6558 29.2376 2439(49) 2443.6438 2103.0613
6559 29.2416 2332(48) 2462.1030 2102.3508
6560 29.2456 2525(50) 2477.3325 2101.6399
6561 29.2496 2515(50) 2488.2158 2100.9292
6562 29.2536 2615(51) 2493.8950 2100.2188
6563 29.2576 2437(49) 2493.8706 2099.5081
6564 29.2616 2550(50) 2488.1021 2098.7976
6565 29.2656 2441(49) 2477.0369 2098.0869
6566 29.2696 2521(50) 2461.4204 2097.3760
6567 29.2736 2547(50) 2442.2280 2096.6655
6568 29.2776 2442(49) 2420.4756 2095.9551
6569 29.2816 2362(49) 2397.1453 2095.2444
6570 29.2856 2327(48) 2373.1313 2094.5339
6571 29.2896 2333(48) 2349.2080 2093.8232
6572 29.2936 2286(48) 2326.0210 2093.1128
6573 29.2976 2168(47) 2304.0767 2092.4019
6574 29.3016 2411(49) 2283.7876 2091.6912
6575 29.3056 2411(49) 2265.4116 2090.9807
6576 29.3096 2209(47) 2249.1025 2090.2700
6577 29.3136 2062(45) 2234.9236 2089.5596
6578 29.3176 2120(46) 2222.8318 2088.8489
6579 29.3216 2094(46) 2212.7576 2088.1379
6580 29.3256 2056(45) 2203.9424 2087.4275
6581 29.3296 2343(48) 2197.4495 2086.7168
6582 29.3336 2183(47) 2192.4675 2086.0063
6583 29.3376 2210(47) 2188.8062 2085.2959
6584 29.3416 2172(47) 2186.2800 2084.5852
6585 29.3456 2091(46) 2184.7161 2083.8748
6586 29.3496 1881(43) 2183.9563 2083.1638
6587 29.3536 1941(44) 2183.8591 2082.4531
6588 29.3576 2001(45) 2184.2983 2081.7427
6589 29.3616 2035(45) 2185.1606 2081.0320
6590 29.3656 1999(45) 2186.3452 2080.3215
6591 29.3696 2122(46) 2187.7593 2079.6108
6592 29.3736 2241(47) 2189.3438 2078.9004
6593 29.3776 2220(47) 2190.9668 2078.1895
6594 29.3816 2138(46) 2192.5862 2077.4788
6595 29.3856 2225(47) 2194.1152 2076.7683
6596 29.3896 2250(47) 2195.5122 2076.0576
6597 29.3936 2366(49) 2196.7256 2075.3472
6598 29.3976 2312(48) 2197.7229 2074.6367
6599 29.4016 2209(47) 2198.4900 2073.9258
6600 29.4056 2134(46) 2199.0315 2073.2151
6601 29.4096 2101(46) 2199.3677 2072.5046
6602 29.4136 2138(46) 2199.5542 2071.7939
6603 29.4176 2302(48) 2199.6467 2071.0835
6604 29.4216 2178(47) 2199.7180 2070.3728
6605 29.4256 2137(46) 2199.8506 2069.6624
6606 29.4296 2239(47) 2200.1309 2068.9514
6607 29.4336 2140(46) 2200.6460 2068.2407
6608 29.4376 2071(46) 2201.4817 2067.5303
6609 29.4416 2196(47) 2202.7209 2066.8196
6610 29.4456 2196(47) 2204.4480 2066.1091
6611 29.4496 2096(46) 2206.7192 2065.3984
6612 29.4536 2005(45) 2209.6094 2064.6877
6613 29.4576 2109(46) 2213.1746 2063.9771
6614 29.4616 2228(47) 2217.4683 2063.2666
6615 29.4656 2272(48) 2222.5344 2062.5559
6616 29.4696 2296(48) 2228.4067 2061.8455
6617 29.4736 2312(48) 2235.1057 2061.1348
6618 29.4776 2332(48) 2242.6360 2060.4243
6619 29.4816 2449(49) 2250.9829 2059.7134
6620 29.4856 2350(48) 2260.0913 2059.0027
6621 29.4896 2309(48) 2269.8804 2058.2922
6622 29.4936 2122(46) 2280.2175 2057.5815
6623 29.4976 2072(46) 2290.9141 2056.8711
6624 29.5016 2302(48) 2301.7153 2056.1604
6625 29.5056 2326(48) 2312.3020 2055.4497
6626 29.5096 2424(49) 2322.2708 2054.7390
6627 29.5136 2462(50) 2331.1794 2054.0286
6628 29.5176 2338(48) 2338.5505 2053.3179
6629 29.5216 2344(48) 2343.9192 2052.6074
6630 29.5256 2195(47) 2346.8826 2051.8967
6631 29.5296 2169(47) 2347.1560 2051.1863
6632 29.5336 2212(47) 2344.6138 2050.4753
6633 29.5376 2357(49) 2339.3240 2049.7646
6634 29.5416 2229(47) 2331.5281 2049.0542
6635 29.5456 2310(48) 2321.6216 2048.3435
6636 29.5496 2361(49) 2310.0933 2047.6331
6637 29.5536 2297(48) 2297.4675 2046.9225
6638 29.5576 2224(47) 2284.2456 2046.2119
6639 29.5616 2153(46) 2270.8621 2045.5010
6640 29.5656 2265(48) 2257.6851 2044.7904
6641 29.5696 2317(48) 2241.5869 2044.0798
6642 29.5736 2309(48) 2229.0376 2043.3693
6643 29.5776 2314(48) 2217.7700 2042.6587
6644 29.5816 2170(47) 2207.2930 2041.9481
6645 29.5856 2153(46) 2197.6011 2041.2372
6646 29.5896 2059(45) 2188.6782 2040.5266
6647 29.5936 2059(45) 2180.4695 2039.8162
6648 29.5976 2044(45) 2172.9207 2039.1055
6649 29.6016 1999(45) 2165.9570 2038.3950
6650 29.6056 1989(45) 2159.5784 2037.6843
6651 29.6096 2030(45) 2153.6057 2036.9739
6652 29.6136 2223(47) 2148.0386 2036.2629
6653 29.6176 2106(46) 2142.8306 2035.5524
6654 29.6216 2159(46) 2137.9333 2034.8418
6655 29.6256 2361(49) 2133.3076 2034.1312
6656 29.6296 2217(47) 2128.9197 2033.4207
6657 29.6336 2166(47) 2124.7417 2032.7101
6658 29.6376 2148(46) 2120.7515 2031.9991
6659 29.6416 2132(46) 2116.9302 2031.2886
6660 29.6456 2163(47) 2113.2649 2030.5780
6661 29.6496 2070(45) 2109.2185 2029.8674
6662 29.6536 2051(45) 2105.8508 2029.1570
6663 29.6576 2034(45) 2102.6208 2028.4463
6664 29.6616 2133(46) 2099.5315 2027.7358
6665 29.6656 2228(47) 2096.5847 2027.0249
6666 29.6696 2136(46) 2093.7832 2026.3143
6667 29.6736 2286(48) 2091.1467 2025.6038
6668 29.6776 2075(46) 2088.6924 2024.8932
6669 29.6816 1974(44) 2086.4026 2024.1826
6670 29.6856 1947(44) 2084.3020 2023.4720
6671 29.6896 2011(45) 2082.4009 2022.7611
6672 29.6936 2042(45) 2080.7100 2022.0505
6673 29.6976 2071(46) 2079.2366 2021.3400
6674 29.7016 2129(46) 2077.9866 2020.6294
6675 29.7056 2117(46) 2076.9578 2019.9188
6676 29.7096 2296(48) 2076.1482 2019.2083
6677 29.7136 2146(46) 2075.5339 2018.4978
6678 29.7176 2195(47) 2075.1353 2017.7869
6679 29.7216 2123(46) 2074.8904 2017.0763
6680 29.7256 2260(48) 2074.7712 2016.3657
6681 29.7296 2147(46) 2074.7273 2015.6552
6682 29.7336 2377(49) 2074.6917 2014.9446
6683 29.7376 2269(48) 2074.6001 2014.2340
6684 29.7416 2150(46) 2074.3611 2013.5234
6685 29.7456 2169(47) 2073.8892 2012.8125
6686 29.7496 2167(47) 2073.1150 2012.1019
6687 29.7536 2393(49) 2071.9817 2011.3914
6688 29.7576 2370(49) 2070.6450 2010.8500
6689 29.7616 2216(47) 2069.1226 2010.4777
6690 29.7656 2214(47) 2067.2930 2010.1055
6691 29.7696 2271(48) 2065.2217 2009.7329
6692 29.7736 2267(48) 2062.9863 2009.3606
6693 29.7776 2204(47) 2060.6621 2008.9883
6694 29.7816 2245(47) 2058.3328 2008.6161
6695 29.7856 2281(48) 2056.0356 2008.2438
6696 29.7896 2204(47) 2053.8372 2007.8715
6697 29.7936 2099(46) 2051.7866 2007.4991
6698 29.7976 2232(47) 2049.9133 2007.1267
6699 29.8016 2299(48) 2047.5630 2006.7544
6700 29.8056 2290(48) 2046.1033 2006.3821
6701 29.8096 2214(47) 2047.2900 2006.0098
6702 29.8136 2196(47) 2046.9094 2005.6375
6703 29.8176 2298(48) 2046.1639 2005.2651
6704 29.8216 2237(47) 2045.6254 2004.8927
6705 29.8256 2354(49) 2045.2783 2004.5204
6706 29.8296 2404(49) 2045.1034 2004.1481
6707 29.8336 2092(46) 2045.0743 2003.7758
6708 29.8376 1915(44) 2045.1769 2003.4034
6709 29.8416 1870(43) 2045.6361 2003.0311
6710 29.8456 1973(44) 2045.9192 2002.6589
6711 29.8496 2031(45) 2046.2473 2002.2864
6712 29.8536 2097(46) 2046.5964 2001.9141
6713 29.8576 2105(46) 2046.9363 2001.5417
6714 29.8616 2138(46) 2047.2273 2001.1696
6715 29.8656 2137(46) 2047.4717 2000.7972
6716 29.8696 2232(47) 2047.6508 2000.4249
6717 29.8736 2099(46) 2047.7220 2000.0524
6718 29.8776 2026(45) 2047.7047 1999.6802
6719 29.8816 1944(44) 2047.5958 1999.3079
6720 29.8856 1898(44) 2047.4099 1998.9355
6721 29.8896 1791(42) 2047.1587 1998.5632
6722 29.8936 1790(42) 2046.8503 1998.1909
6723 29.8976 1887(43) 2046.5065 1997.8186
6724 29.9016 2058(45) 2046.1388 1997.4462
6725 29.9056 2142(46) 2045.7633 1997.0739
6726 29.9096 2112(46) 2045.3857 1996.7015
6727 29.9136 2079(46) 2045.0109 1996.3292
6728 29.9176 1959(44) 2044.6406 1995.9569
6729 29.9216 2101(46) 2044.2750 1995.5846
6730 29.9256 2042(45) 2043.9124 1995.2124
6731 29.9296 2118(46) 2043.5491 1994.8398
6732 29.9336 2001(45) 2043.1821 1994.4675
6733 29.9376 1920(44) 2042.8075 1994.0952
6734 29.9416 1983(45) 2042.4213 1993.7230
6735 29.9456 1999(45) 2042.0193 1993.3507
6736 29.9496 2007(45) 2041.5981 1992.9784
6737 29.9536 1916(44) 2041.1649 1992.6058
6738 29.9576 1889(43) 2040.7068 1992.2336
6739 29.9616 1983(45) 2040.2104 1991.8613
6740 29.9656 1966(44) 2039.6846 1991.4890
6741 29.9696 1894(44) 2039.1278 1991.1167
6742 29.9736 1813(43) 2038.5452 1990.7444
6743 29.9776 1745(42) 2037.9240 1990.3721
6744 29.9816 1799(42) 2037.2700 1989.9996
6745 29.9856 1857(43) 2036.5844 1989.6273
6746 29.9896 1852(43) 2035.8676 1989.2550
6747 29.9936 2021(45) 2035.1212 1988.8827
6748 29.9976 2058(45) 2034.3470 1988.5104
6749 30.0016 2311(48) 2033.5549 1988.1381
6750 30.0056 2415(49) 2032.7318 1987.7656
6751 30.0096 2360(49) 2031.8893 1987.3933
6752 30.0136 2115(46) 2031.0302 1987.0210
6753 30.0176 2034(45) 2030.1580 1986.6487
6754 30.0216 2039(45) 2029.2765 1986.2764
6755 30.0256 2120(46) 2028.3896 1985.9042
6756 30.0296 1986(45) 2027.5010 1985.5319
6757 30.0336 2048(45) 2026.6127 1985.1593
6758 30.0376 2138(46) 2025.7325 1984.7871
6759 30.0416 1985(45) 2024.8622 1984.4148
6760 30.0456 1893(44) 2024.0137 1984.0425
6761 30.0496 1966(44) 2023.1705 1983.6702
6762 30.0536 1993(45) 2022.3629 1983.2979
6763 30.0576 2107(46) 2021.5651 1982.9255
6764 30.0616 2073(46) 2020.7922 1982.5531
6765 30.0656 2227(47) 2020.0472 1982.1808
6766 30.0696 2237(47) 2019.3319 1981.8085
6767 30.0736 2086(46) 2018.6478 1981.4362
6768 30.0776 2054(45) 2017.9940 1981.0638
6769 30.0816 2095(46) 2017.3766 1980.6915
6770 30.0856 2358(49) 2016.7938 1980.3191
6771 30.0896 2360(49) 2016.2467 1979.9468
6772 30.0936 2153(46) 2015.7356 1979.5745
6773 30.0976 2087(46) 2015.2609 1979.2021
6774 30.1016 2113(46) 2014.8226 1978.8298
6775 30.1056 1975(44) 2014.4211 1978.4576
6776 30.1096 2068(45) 2014.0562 1978.0853
6777 30.1136 2011(45) 2013.7274 1977.7128
6778 30.1176 2014(45) 2013.4354 1977.3405
6779 30.1216 2014(45) 2013.1890 1976.9683
6780 30.1256 1987(45) 2012.9695 1976.5959
6781 30.1296 1999(45) 2012.7845 1976.2236
6782 30.1336 1986(45) 2012.6375 1975.8513
6783 30.1376 1958(44) 2012.5315 1975.4789
6784 30.1416 2049(45) 2012.4553 1975.1066
6785 30.1456 1897(44) 2012.4110 1974.7343
6786 30.1496 2093(46) 2012.4102 1974.3619
6787 30.1536 2292(48) 2012.4469 1973.9896
6788 30.1576 2196(47) 2012.5219 1973.6173
6789 30.1616 2212(47) 2012.6359 1973.2450
6790 30.1656 2135(46) 2012.7902 1972.8726
6791 30.1696 2013(45) 2012.9857 1972.5002
6792 30.1736 2156(46) 2013.2244 1972.1279
6793 30.1776 2056(45) 2013.5077 1971.7556
6794 30.1816 2086(46) 2013.8379 1971.3833
6795 30.1856 2200(47) 2014.2174 1971.0111
6796 30.1896 2148(46) 2014.6365 1970.6385
6797 30.1936 2089(46) 2015.1227 1970.2662
6798 30.1976 2051(45) 2015.6669 1969.8939
6799 30.2016 2042(45) 2016.2737 1969.5217
6800 30.2056 1994(45) 2016.9467 1969.1494
6801 30.2096 1976(44) 2017.6906 1968.7771
6802 30.2136 1864(43) 2018.5277 1968.4048
6803 30.2176 1847(43) 2019.4746 1968.0323
6804 30.2216 1969(44) 2020.4673 1967.6600
6805 30.2256 2132(46) 2021.5671 1967.2877
6806 30.2296 2121(46) 2022.7728 1966.9154
6807 30.2336 2076(46) 2024.0962 1966.5431
6808 30.2376 2112(46) 2025.5588 1966.1708
6809 30.2416 2123(46) 2027.1920 1965.7985
6810 30.2456 2028(45) 2029.4625 1965.4260
6811 30.2496 2144(46) 2031.5038 1965.0537
6812 30.2536 2193(47) 2034.1708 1964.6814
6813 30.2576 2076(46) 2036.8236 1964.3091
6814 30.2616 2063(45) 2039.8877 1963.9368
6815 30.2656 2018(45) 2043.4655 1963.5646
6816 30.2696 1968(44) 2047.6838 1963.1920
6817 30.2736 1998(45) 2052.7031 1962.8197
6818 30.2776 2038(45) 2058.7188 1962.4474
6819 30.2816 1930(44) 2065.9670 1962.0752
6820 30.2856 1881(43) 2074.7292 1961.7029
6821 30.2896 1974(44) 2084.7954 1961.3306
6822 30.2936 1998(45) 2097.6389 1960.9583
6823 30.2976 1999(45) 2113.1248 1960.5858
6824 30.3016 2000(45) 2131.6921 1960.2135
6825 30.3056 2031(45) 2153.8313 1959.8412
6826 30.3096 2114(46) 2180.0569 1959.4689
6827 30.3136 2094(46) 2210.8071 1959.0966
6828 30.3176 2091(46) 2246.6675 1958.7242
6829 30.3216 2054(45) 2288.0339 1958.3518
6830 30.3256 2049(45) 2335.2188 1957.9795
6831 30.3296 2241(47) 2388.9358 1957.6072
6832 30.3336 2364(49) 2448.3804 1957.2349
6833 30.3376 2411(49) 2513.6450 1956.8625
6834 30.3416 2254(47) 2584.9307 1956.4902
6835 30.3456 2219(47) 2661.3494 1956.1179
6836 30.3496 2503(50) 2741.9944 1955.7455
6837 30.3536 2631(51) 2825.3950 1955.3732
6838 30.3576 2684(52) 2909.7290 1955.0009
6839 30.3616 2895(54) 2992.5916 1954.6287
6840 30.3656 2897(54) 3071.0759 1954.2563
6841 30.3696 3112(56) 3141.8423 1953.8840
6842 30.3736 3220(57) 3201.4258 1953.5115
6843 30.3776 3110(56) 3246.5112 1953.1393
6844 30.3816 3088(56) 3274.5874 1952.7670
6845 30.3856 3193(57) 3284.2290 1952.3947
6846 30.3896 3034(55) 3275.3271 1952.0223
6847 30.3936 2979(55) 3249.0044 1951.6500
6848 30.3976 3056(55) 3207.3037 1951.2777
6849 30.4016 3085(56) 3152.7612 1950.9053
6850 30.4056 2627(51) 3088.1646 1950.5330
6851 30.4096 2521(50) 3016.1538 1950.1606
6852 30.4136 2413(49) 2939.2112 1949.7883
6853 30.4176 2444(49) 2859.5950 1949.4160
6854 30.4216 2336(48) 2779.3403 1949.0437
6855 30.4256 2220(47) 2700.2505 1948.6714
6856 30.4296 2356(49) 2623.8230 1948.2990
6857 30.4336 2256(47) 2551.3782 1947.9266
6858 30.4376 2097(46) 2483.8174 1947.5543
6859 30.4416 2239(47) 2421.7717 1947.1821
6860 30.4456 2266(48) 2365.5825 1946.8098
6861 30.4496 2103(46) 2315.3398 1946.4375
6862 30.4536 2104(46) 2270.9065 1946.0649
6863 30.4576 2136(46) 2232.0486 1945.6926
6864 30.4616 2368(49) 2198.3540 1945.3204
6865 30.4656 2371(49) 2169.3647 1944.9481
6866 30.4696 2256(47) 2144.5793 1944.5758
6867 30.4736 2380(49) 2123.4973 1944.2035
6868 30.4776 2313(48) 2105.6499 1943.8312
6869 30.4816 2296(48) 2090.5308 1943.4587
6870 30.4856 2048(45) 2077.7546 1943.0864
6871 30.4896 1965(44) 2066.9390 1942.7141
6872 30.4936 1984(45) 2057.7380 1942.3418
6873 30.4976 2134(46) 2049.9045 1941.9695
6874 30.5016 2105(46) 2043.1819 1941.5972
6875 30.5056 2015(45) 2037.3674 1941.2247
6876 30.5096 2011(45) 2032.3003 1940.8524
6877 30.5136 1927(44) 2027.8455 1940.4801
6878 30.5176 1908(44) 2023.8925 1940.1078
6879 30.5216 1942(44) 2020.3540 1939.7355
6880 30.5256 2105(46) 2017.2367 1939.3633
6881 30.5296 2121(46) 2014.3342 1938.9910
6882 30.5336 2141(46) 2011.6613 1938.6184
6883 30.5376 2160(46) 2009.2184 1938.2461
6884 30.5416 2018(45) 2006.9617 1937.8739
6885 30.5456 1826(43) 2004.8699 1937.5016
6886 30.5496 1903(44) 2002.9268 1937.1293
6887 30.5536 1906(44) 2001.1188 1936.7570
6888 30.5576 1967(44) 1999.4364 1936.3845
6889 30.5616 1995(45) 1997.8724 1936.0122
6890 30.5656 2027(45) 1996.4200 1935.6399
6891 30.5696 2075(46) 1995.0702 1935.2676
6892 30.5736 2149(46) 1993.8275 1934.8953
6893 30.5776 2300(48) 1992.6852 1934.5229
6894 30.5816 2221(47) 1991.6407 1934.1506
6895 30.5856 2128(46) 1990.6936 1933.7782
6896 30.5896 1943(44) 1989.8435 1933.4059
6897 30.5936 1994(45) 1989.0898 1933.0336
6898 30.5976 2006(45) 1988.4335 1932.6613
6899 30.6016 2152(46) 1987.8754 1932.2889
6900 30.6056 2084(46) 1987.4175 1931.9167
6901 30.6096 2017(45) 1987.0663 1931.5444
6902 30.6136 2073(46) 1986.8171 1931.1719
6903 30.6176 1939(44) 1986.6771 1930.7996
6904 30.6216 2014(45) 1986.6516 1930.4274
6905 30.6256 1960(44) 1986.7465 1930.0551
6906 30.6296 2009(45) 1986.9667 1929.6827
6907 30.6336 1925(44) 1987.3203 1929.3104
6908 30.6376 1885(43) 1987.7666 1928.9380
6909 30.6416 1786(42) 1988.4130 1928.5657
6910 30.6456 1844(43) 1989.2185 1928.1934
6911 30.6496 2047(45) 1990.1967 1927.8210
6912 30.6536 2207(47) 1991.3577 1927.4487
6913 30.6576 2260(48) 1992.7137 1927.0764
6914 30.6616 2134(46) 1994.2766 1926.7041
6915 30.6656 2016(45) 1996.0636 1926.3317
6916 30.6696 2252(47) 1998.0853 1925.9594
6917 30.6736 2415(49) 2000.3527 1925.5870
6918 30.6776 2198(47) 2002.8807 1925.2147
6919 30.6816 2136(46) 2005.6945 1924.8424
6920 30.6856 2311(48) 2009.1868 1924.4702
6921 30.6896 2322(48) 2012.6047 1924.0977
6922 30.6936 2355(49) 2016.3389 1923.7253
6923 30.6976 2229(47) 2020.4019 1923.3530
6924 30.7016 2300(48) 2024.8063 1922.9808
6925 30.7056 2075(46) 2029.5568 1922.6085
6926 30.7096 2145(46) 2034.6624 1922.2362
6927 30.7136 2127(46) 2040.1277 1921.8639
6928 30.7176 2154(46) 2045.9636 1921.4915
6929 30.7216 2174(47) 2052.1592 1921.1191
6930 30.7256 2052(45) 2058.7122 1920.7468
6931 30.7296 1873(43) 2065.6191 1920.3745
6932 30.7336 2036(45) 2072.8728 1920.0022
6933 30.7376 1956(44) 2080.4604 1919.6299
6934 30.7416 2078(46) 2088.3699 1919.2574
6935 30.7456 2153(46) 2096.5752 1918.8851
6936 30.7496 2159(46) 2105.0583 1918.5128
6937 30.7536 2198(47) 2113.7974 1918.1405
6938 30.7576 2137(46) 2122.7732 1917.7682
6939 30.7616 2038(45) 2131.9697 1917.3959
6940 30.7656 2201(47) 2141.3887 1917.0237
6941 30.7696 2111(46) 2151.0466 1916.6511
6942 30.7736 2057(45) 2160.9717 1916.2788
6943 30.7776 2015(45) 2171.2285 1915.9065
6944 30.7816 2260(48) 2181.9192 1915.5342
6945 30.7856 2309(48) 2193.1660 1915.1620
6946 30.7896 2255(47) 2205.1240 1914.7897
6947 30.7936 2353(49) 2217.9578 1914.4174
6948 30.7976 2282(48) 2231.8486 1914.0449
6949 30.8016 2162(46) 2246.9592 1913.6726
6950 30.8056 2151(46) 2263.4363 1913.3003
6951 30.8096 2059(45) 2281.3662 1912.9280
6952 30.8136 2156(46) 2300.7688 1912.5557
6953 30.8176 2041(45) 2321.5757 1912.1833
6954 30.8216 2292(48) 2343.6282 1911.8109
6955 30.8256 2551(51) 2366.6345 1911.4386
6956 30.8296 2628(51) 2390.2476 1911.0663
6957 30.8336 2748(52) 2414.0576 1910.6940
6958 30.8376 2455(50) 2437.6509 1910.3217
6959 30.8416 2520(50) 2460.6521 1909.9493
6960 30.8456 2564(51) 2482.7498 1909.5771
6961 30.8496 2633(51) 2503.6914 1909.2046
6962 30.8536 2628(51) 2523.1995 1908.8323
6963 30.8576 2663(52) 2540.9673 1908.4600
6964 30.8616 2554(51) 2556.5742 1908.0876
6965 30.8656 2657(52) 2569.4846 1907.7155
6966 30.8696 2645(51) 2579.1179 1907.3431
6967 30.8736 2538(50) 2584.9226 1906.9706
6968 30.8776 2654(52) 2586.5066 1906.5984
6969 30.8816 2648(51) 2583.7363 1906.2261
6970 30.8856 2637(51) 2576.7612 1905.8538
6971 30.8896 2608(51) 2565.9675 1905.4814
6972 30.8936 2600(51) 2551.8582 1905.1091
6973 30.8976 2652(51) 2534.9526 1904.7368
6974 30.9016 2497(50) 2515.6526 1904.3644
6975 30.9056 2325(48) 2494.2683 1903.9921
6976 30.9096 2336(48) 2470.9436 1903.6198
6977 30.9136 2435(49) 2445.7568 1903.2474
6978 30.9176 2252(47) 2418.7822 1902.8751
6979 30.9216 2218(47) 2390.1733 1902.5028
6980 30.9256 2185(47) 2360.1919 1902.1304
6981 30.9296 2372(49) 2329.2815 1901.7581
6982 30.9336 2449(49) 2297.8936 1901.3857
6983 30.9376 2440(49) 2266.7454 1901.0134
6984 30.9416 2360(49) 2235.9585 1900.6411
6985 30.9456 2340(48) 2206.1528 1900.2689
6986 30.9496 2110(46) 2177.6821 1899.8966
6987 30.9536 1950(44) 2150.8042 1899.5240
6988 30.9576 1883(43) 2123.3672 1899.1519
6989 30.9616 1909(44) 2100.2520 1898.7795
6990 30.9656 1943(44) 2079.1174 1898.4072
6991 30.9696 2011(45) 2059.9731 1898.0349
6992 30.9736 1979(44) 2042.7844 1897.6626
6993 30.9776 1993(45) 2027.4800 1897.2903
6994 30.9816 1958(44) 2013.9525 1896.9178
6995 30.9856 2083(46) 2002.0917 1896.5455
6996 30.9896 2026(45) 1991.4998 1896.1732
6997 30.9936 1950(44) 1982.5360 1895.8009
6998 30.9976 1865(43) 1974.7949 1895.4286
6999 31.0016 2015(45) 1968.1292 1895.0563
7000 31.0056 1990(45) 1962.3949 1894.6838
7001 31.0096 2018(45) 1957.4692 1894.3115
7002 31.0136 2057(45) 1953.2307 1893.9392
7003 31.0176 2091(46) 1949.5756 1893.5669
7004 31.0216 2106(46) 1946.4138 1893.1946
7005 31.0256 1997(45) 1943.6804 1892.8224
7006 31.0296 2090(46) 1941.2886 1892.4501
7007 31.0336 1982(45) 1939.1967 1892.0775
7008 31.0376 2012(45) 1937.3690 1891.7052
7009 31.0416 2024(45) 1935.7621 1891.3330
7010 31.0456 2087(46) 1934.3674 1890.9607
7011 31.0496 2250(47) 1933.1385 1890.5884
7012 31.0536 2196(47) 1932.0739 1890.2161
7013 31.0576 2176(47) 1931.1622 1889.8436
7014 31.0616 2107(46) 1930.3936 1889.4713
7015 31.0656 2104(46) 1929.7719 1889.0990
7016 31.0696 2039(45) 1929.2869 1888.7267
7017 31.0736 1982(45) 1928.9403 1888.3544
7018 31.0776 1972(44) 1928.7330 1887.9821
7019 31.0816 2148(46) 1928.6674 1887.6097
7020 31.0856 1945(44) 1928.7543 1887.2373
7021 31.0896 1993(45) 1928.9836 1886.8650
7022 31.0936 2009(45) 1929.3682 1886.4927
7023 31.0976 2020(45) 1929.9141 1886.1204
7024 31.1016 2131(46) 1930.6283 1885.7480
7025 31.1056 1958(44) 1931.5184 1885.3757
7026 31.1096 1976(44) 1932.5909 1885.0035
7027 31.1136 1980(44) 1933.8672 1884.6310
7028 31.1176 1966(44) 1935.3351 1884.2587
7029 31.1216 2006(45) 1937.0129 1883.8865
7030 31.1256 1990(45) 1938.9104 1883.5142
7031 31.1296 1877(43) 1941.0500 1883.1418
7032 31.1336 1993(45) 1943.4010 1882.7695
7033 31.1376 1905(44) 1946.0122 1882.3970
7034 31.1416 1894(44) 1948.8776 1882.0248
7035 31.1456 2035(45) 1952.0065 1881.6525
7036 31.1496 2099(46) 1955.4075 1881.2802
7037 31.1536 1990(45) 1959.0861 1880.9078
7038 31.1576 1963(44) 1963.0544 1880.5355
7039 31.1616 1752(42) 1967.3181 1880.1632
7040 31.1656 1790(42) 1971.8866 1879.7908
7041 31.1696 1928(44) 1976.7622 1879.4185
7042 31.1736 1899(44) 1981.9536 1879.0461
7043 31.1776 1996(45) 1987.4659 1878.6738
7044 31.1816 1897(44) 1993.3035 1878.3015
7045 31.1856 1754(42) 1999.4681 1877.9292
7046 31.1896 1995(45) 2005.9629 1877.5568
7047 31.1936 2103(46) 2012.7776 1877.1844
7048 31.1976 2180(47) 2019.9106 1876.8121
7049 31.2016 2080(46) 2027.3452 1876.4399
7050 31.2056 1991(45) 2035.0686 1876.0676
7051 31.2096 2103(46) 2043.0635 1875.6953
7052 31.2136 1998(45) 2051.3108 1875.3230
7053 31.2176 2035(45) 2059.7959 1874.9504
7054 31.2216 2042(45) 2068.4944 1874.5782
7055 31.2256 2110(46) 2077.3970 1874.2059
7056 31.2296 2116(46) 2086.4934 1873.8336
7057 31.2336 1916(44) 2095.7747 1873.4613
7058 31.2376 2189(47) 2105.2271 1873.0890
7059 31.2416 2117(46) 2114.8174 1872.7166
7060 31.2456 1994(45) 2124.5237 1872.3442
7061 31.2496 2057(45) 2134.2363 1871.9719
7062 31.2536 2192(47) 2143.8320 1871.5996
7063 31.2576 2238(47) 2153.1150 1871.2273
7064 31.2616 2227(47) 2161.8157 1870.8550
7065 31.2656 2236(47) 2169.5876 1870.4827
7066 31.2696 2258(48) 2176.0225 1870.1102
7067 31.2736 2260(48) 2180.6689 1869.7379
7068 31.2776 2258(48) 2183.1033 1869.3656
7069 31.2816 2159(46) 2182.9792 1868.9934
7070 31.2856 2091(46) 2180.0901 1868.6211
7071 31.2896 2095(46) 2174.4067 1868.2488
7072 31.2936 2199(47) 2166.0771 1867.8765
7073 31.2976 2173(47) 2155.3889 1867.5039
7074 31.3016 2276(48) 2142.7429 1867.1317
7075 31.3056 2064(45) 2128.5703 1866.7594
7076 31.3096 2048(45) 2113.3115 1866.3871
7077 31.3136 2206(47) 2097.3850 1866.0148
7078 31.3176 2065(45) 2081.1821 1865.6425
7079 31.3216 2066(45) 2065.0344 1865.2700
7080 31.3256 2085(46) 2049.2522 1864.8977
7081 31.3296 2087(46) 2034.0728 1864.5254
7082 31.3336 1888(43) 2019.6899 1864.1531
7083 31.3376 1913(44) 2006.2463 1863.7808
7084 31.3416 1891(43) 1993.8342 1863.4084
7085 31.3456 2029(45) 1982.5013 1863.0361
7086 31.3496 2006(45) 1972.2433 1862.6637
7087 31.3536 2182(47) 1963.0597 1862.2914
7088 31.3576 2220(47) 1954.8800 1861.9191
7089 31.3616 2004(45) 1947.6357 1861.5469
7090 31.3656 1968(44) 1941.2428 1861.1746
7091 31.3696 1983(45) 1935.6371 1860.8022
7092 31.3736 1929(44) 1930.6747 1860.4297
7093 31.3776 1978(44) 1926.2980 1860.0574
7094 31.3816 1981(45) 1922.4226 1859.6852
7095 31.3856 1856(43) 1918.9734 1859.3129
7096 31.3896 1871(43) 1915.8846 1858.9406
7097 31.3936 1918(44) 1913.0981 1858.5682
7098 31.3976 1831(43) 1910.5642 1858.1959
7099 31.4016 1822(43) 1908.2449 1857.8235
7100 31.4056 1904(44) 1906.1102 1857.4512
7101 31.4096 1894(44) 1904.1150 1857.0789
7102 31.4136 2009(45) 1902.2407 1856.7065
7103 31.4176 2077(46) 1900.4775 1856.3342
7104 31.4216 1945(44) 1898.8074 1855.9619
7105 31.4256 2018(45) 1896.8606 1855.5895
7106 31.4296 1916(44) 1895.3396 1855.2172
7107 31.4336 1794(42) 1893.8781 1854.8448
7108 31.4376 1988(45) 1892.4957 1854.4725
7109 31.4416 1981(45) 1891.1367 1854.1002
7110 31.4456 1975(44) 1889.8148 1853.7280
7111 31.4496 2010(45) 1888.5295 1853.3557
7112 31.4536 2034(45) 1887.2769 1852.9832
7113 31.4576 1963(44) 1886.0547 1852.6108
7114 31.4616 1803(42) 1884.8597 1852.2385
7115 31.4656 1776(42) 1882.9445 1851.8663
7116 31.4696 1875(43) 1881.8070 1851.4940
7117 31.4736 1855(43) 1880.6906 1851.1217
7118 31.4776 1872(43) 1879.5707 1850.7494
7119 31.4816 1742(42) 1878.4918 1850.3770
7120 31.4856 1855(43) 1877.4310 1850.0046
7121 31.4896 1843(43) 1876.3875 1849.6323
7122 31.4936 1711(41) 1875.3608 1849.2600
7123 31.4976 1767(42) 1874.3508 1848.8877
7124 31.5016 1750(42) 1873.3577 1848.5154
7125 31.5056 1751(42) 1872.9045 1848.1429
7126 31.5096 1867(43) 1871.5055 1847.7706
7127 31.5136 1943(44) 1870.5758 1847.3983
7128 31.5176 1913(44) 1869.6716 1847.0260
7129 31.5216 2042(45) 1868.7810 1846.6537
7130 31.5256 2046(45) 1867.9108 1846.2815
7131 31.5296 1825(43) 1867.0559 1845.9092
7132 31.5336 1944(44) 1866.2241 1845.5366
7133 31.5376 2007(45) 1865.4172 1845.1643
7134 31.5416 1898(44) 1864.6339 1844.7920
7135 31.5456 1890(43) 1863.8765 1844.4198
7136 31.5496 1796(42) 1863.1370 1844.0475
7137 31.5536 1883(43) 1862.4291 1843.6752
7138 31.5576 1981(45) 1861.7521 1843.3027
7139 31.5616 1827(43) 1861.1003 1842.9304
7140 31.5656 1809(43) 1860.4863 1842.5581
7141 31.5696 1765(42) 1859.8942 1842.1858
7142 31.5736 1703(41) 1859.8743 1841.8135
7143 31.5776 1937(44) 1859.3585 1841.4412
7144 31.5816 2011(45) 1858.8795 1841.0688
7145 31.5856 1913(44) 1858.4390 1840.6964
7146 31.5896 1879(43) 1858.0392 1840.3241
7147 31.5936 1784(42) 1857.6823 1839.9518
7148 31.5976 1753(42) 1857.3734 1839.5795
7149 31.6016 1952(44) 1857.1088 1839.2072
7150 31.6056 1874(43) 1856.8959 1838.8350
7151 31.6096 1989(45) 1856.7363 1838.4624
7152 31.6136 2006(45) 1856.6334 1838.0901
7153 31.6176 1882(43) 1856.5905 1837.7178
7154 31.6216 1894(44) 1856.6106 1837.3455
7155 31.6256 1864(43) 1856.6978 1836.9733
7156 31.6296 1672(41) 1856.8617 1836.6010
7157 31.6336 1839(43) 1857.0936 1836.2286
7158 31.6376 1985(45) 1857.4039 1835.8562
7159 31.6416 2116(46) 1857.7965 1835.4839
7160 31.6456 2023(45) 1858.2845 1835.1116
7161 31.6496 2215(47) 1858.8538 1834.7393
7162 31.6536 2013(45) 1859.5170 1834.3669
7163 31.6576 1919(44) 1860.2775 1833.9946
7164 31.6616 1789(42) 1861.1378 1833.6223
7165 31.6656 1778(42) 1862.1003 1833.2499
7166 31.6696 1877(43) 1863.1639 1832.8776
7167 31.6736 1772(42) 1864.3262 1832.5052
7168 31.6776 1886(43) 1865.5840 1832.1329
7169 31.6816 1874(43) 1866.9277 1831.7606
7170 31.6856 1936(44) 1868.3440 1831.3884
7171 31.6896 2022(45) 1869.8136 1831.0159
7172 31.6936 1976(44) 1871.3245 1830.6436
7173 31.6976 2008(45) 1872.8169 1830.2712
7174 31.7016 1860(43) 1874.2522 1829.8989
7175 31.7056 1763(42) 1875.5859 1829.5267
7176 31.7096 1730(42) 1876.7615 1829.1544
7177 31.7136 1790(42) 1877.7202 1828.7821
7178 31.7176 1726(42) 1878.4055 1828.4097
7179 31.7216 1886(43) 1878.7684 1828.0374
7180 31.7256 1915(44) 1878.7749 1827.6650
7181 31.7296 1870(43) 1878.4098 1827.2927
7182 31.7336 1952(44) 1877.6825 1826.9204
7183 31.7376 2001(45) 1876.6152 1826.5481
7184 31.7416 1920(44) 1875.2533 1826.1757
7185 31.7456 1914(44) 1873.6637 1825.8033
7186 31.7496 2019(45) 1871.9064 1825.4310
7187 31.7536 2060(45) 1869.4688 1825.0587
7188 31.7576 1924(44) 1867.5658 1824.6864
7189 31.7616 1898(44) 1865.6628 1824.3141
7190 31.7656 1804(42) 1863.8022 1823.9419
7191 31.7696 1892(43) 1862.0085 1823.5693
7192 31.7736 2082(46) 1860.3018 1823.1970
7193 31.7776 1860(43) 1858.6914 1822.8247
7194 31.7816 1903(44) 1857.1813 1822.4524
7195 31.7856 1891(43) 1855.7703 1822.0802
7196 31.7896 1848(43) 1854.5806 1821.7079
7197 31.7936 1908(44) 1853.3573 1821.3353
7198 31.7976 1841(43) 1852.2180 1820.9631
7199 31.8016 1740(42) 1851.1544 1820.5908
7200 31.8056 1999(45) 1850.1593 1820.2185
7201 31.8096 2025(45) 1849.2224 1819.8462
7202 31.8136 1882(43) 1848.3423 1819.4739
7203 31.8176 2012(45) 1847.5116 1819.1016
7204 31.8216 1963(44) 1846.7241 1818.7291
7205 31.8256 1744(42) 1845.9756 1818.3568
7206 31.8296 1755(42) 1845.2621 1817.9845
7207 31.8336 1811(43) 1844.5801 1817.6122
7208 31.8376 1989(45) 1843.9270 1817.2399
7209 31.8416 1956(44) 1843.3008 1816.8676
7210 31.8456 1914(44) 1842.6997 1816.4952
7211 31.8496 1936(44) 1842.1223 1816.1228
7212 31.8536 1877(43) 1841.5669 1815.7505
7213 31.8576 1881(43) 1841.0350 1815.3782
7214 31.8616 1935(44) 1840.5250 1815.0059
7215 31.8656 1860(43) 1840.0367 1814.6335
7216 31.8696 1911(44) 1839.5735 1814.2614
7217 31.8736 1907(44) 1839.1287 1813.8888
7218 31.8776 1955(44) 1838.7063 1813.5166
7219 31.8816 2035(45) 1837.9266 1813.1443
7220 31.8856 1972(44) 1837.5540 1812.7720
7221 31.8896 1694(41) 1837.2180 1812.3997
7222 31.8936 1631(40) 1836.8965 1812.0273
7223 31.8976 1798(42) 1836.5924 1811.6550
7224 31.9016 1808(43) 1836.3115 1811.2826
7225 31.9056 1844(43) 1836.0542 1810.9103
7226 31.9096 1866(43) 1835.8207 1810.5380
7227 31.9136 1963(44) 1835.6021 1810.1656
7228 31.9176 2065(45) 1835.4381 1809.7933
7229 31.9216 2002(45) 1835.2760 1809.4210
7230 31.9256 1856(43) 1835.1381 1809.0486
7231 31.9296 1991(45) 1835.0227 1808.6763
7232 31.9336 1994(45) 1835.1929 1808.3040
7233 31.9376 1913(44) 1835.1302 1807.9316
7234 31.9416 1802(42) 1835.0927 1807.5593
7235 31.9456 1800(42) 1835.0803 1807.1870
7236 31.9496 1867(43) 1835.0865 1806.8148
7237 31.9536 1940(44) 1835.1266 1806.4423
7238 31.9576 1917(44) 1835.1943 1806.0699
7239 31.9616 1775(42) 1835.2911 1805.6978
7240 31.9656 1803(42) 1835.4187 1805.3254
7241 31.9696 1867(43) 1835.5720 1804.9531
7242 31.9736 1868(43) 1835.7615 1804.5808
7243 31.9776 1937(44) 1836.0023 1804.2083
7244 31.9816 1949(44) 1836.3044 1803.8361
7245 31.9856 1943(44) 1836.6433 1803.4637
7246 31.9896 1875(43) 1837.0422 1803.0914
7247 31.9936 1883(43) 1837.5208 1802.7191
7248 31.9976 1918(44) 1838.0908 1802.3468
7249 32.0016 1829(43) 1838.7777 1801.9745
7250 32.0056 1794(42) 1839.5903 1801.6021
7251 32.0096 1780(42) 1840.5718 1801.2300
7252 32.0136 1779(42) 1841.7551 1800.8574
7253 32.0176 1878(43) 1843.1825 1800.4850
7254 32.0216 2030(45) 1844.9020 1800.1128
7255 32.0256 1868(43) 1846.9727 1799.7407
7256 32.0296 1808(43) 1849.4624 1799.3683
7257 32.0336 1728(42) 1852.4419 1798.9957
7258 32.0376 1770(42) 1855.9875 1798.6237
7259 32.0416 1757(42) 1860.1873 1798.2512
7260 32.0456 1844(43) 1865.1343 1797.8787
7261 32.0496 1816(43) 1870.9099 1797.5066
7262 32.0536 1843(43) 1877.6077 1797.1344
7263 32.0576 2040(45) 1885.3289 1796.7616
7264 32.0616 2234(47) 1894.1219 1796.3895
7265 32.0656 1953(44) 1904.0682 1796.0173
7266 32.0696 1876(43) 1915.2269 1795.6449
7267 32.0736 1793(42) 1927.6163 1795.2725
7268 32.0776 1906(44) 1942.4263 1794.9003
7269 32.0816 2080(46) 1957.2576 1794.5282
7270 32.0856 2030(45) 1973.2582 1794.1553
7271 32.0896 1835(43) 1990.2566 1793.7832
7272 32.0936 1980(44) 2008.0999 1793.4111
7273 32.0976 1865(43) 2026.5104 1793.0386
7274 32.1016 2005(45) 2045.2834 1792.6661
7275 32.1056 1880(43) 2063.9470 1792.2939
7276 32.1096 2143(46) 2082.0759 1791.9220
7277 32.1136 2048(45) 2099.5986 1792.0043
7278 32.1176 2063(45) 2115.5391 1792.0864
7279 32.1216 2013(45) 2129.4729 1792.1687
7280 32.1256 1913(44) 2141.0935 1792.2510
7281 32.1296 1966(44) 2151.3542 1792.3334
7282 32.1336 1952(44) 2158.1472 1792.4155
7283 32.1376 1891(43) 2162.8257 1792.4978
7284 32.1416 2029(45) 2165.7656 1792.5802
7285 32.1456 1961(44) 2167.4233 1792.6624
7286 32.1496 2029(45) 2168.2529 1792.7446
7287 32.1536 2092(46) 2168.6487 1792.8269
7288 32.1576 2070(45) 2168.9124 1792.9092
7289 32.1616 2062(45) 2169.2239 1792.9915
7290 32.1656 2107(46) 2169.6301 1793.0737
7291 32.1696 2248(47) 2170.0325 1793.1560
7292 32.1736 2132(46) 2170.1824 1793.2383
7293 32.1776 2091(46) 2169.7258 1793.3206
7294 32.1816 2246(47) 2168.1975 1793.4028
7295 32.1856 2125(46) 2165.1079 1793.4851
7296 32.1896 2033(45) 2160.0229 1793.5674
7297 32.1936 2103(46) 2152.6094 1793.6497
7298 32.1976 2125(46) 2142.7258 1793.7319
7299 32.2016 2110(46) 2130.4346 1793.8142
7300 32.2056 2085(46) 2115.9575 1793.8964
7301 32.2096 1948(44) 2099.6438 1793.9788
7302 32.2136 1982(45) 2081.4680 1794.0610
7303 32.2176 2012(45) 2062.8245 1794.1432
7304 32.2216 2081(46) 2043.6562 1794.2256
7305 32.2256 2202(47) 2024.3842 1794.3079
7306 32.2296 2053(45) 2005.3795 1794.3901
7307 32.2336 2019(45) 1986.9327 1794.4723
7308 32.2376 2006(45) 1969.2804 1794.5546
7309 32.2416 2113(46) 1952.6326 1794.6370
7310 32.2456 2164(47) 1937.1565 1794.7191
7311 32.2496 1969(44) 1922.9237 1794.8015
7312 32.2536 1938(44) 1910.0000 1794.8838
7313 32.2576 1995(45) 1898.4176 1794.9659
7314 32.2616 2061(45) 1888.1387 1795.0482
7315 32.2656 2001(45) 1879.1033 1795.1305
7316 32.2696 1911(44) 1871.2476 1795.2128
7317 32.2736 1768(42) 1864.4869 1795.2950
7318 32.2776 1885(43) 1858.7083 1795.3773
7319 32.2816 1998(45) 1853.8147 1795.4597
7320 32.2856 1876(43) 1849.7064 1795.5419
7321 32.2896 1791(42) 1846.2805 1795.6241
7322 32.2936 1789(42) 1843.4420 1795.7065
7323 32.2976 2060(45) 1841.1178 1795.7887
7324 32.3016 2110(46) 1839.2390 1795.8710
7325 32.3056 1943(44) 1837.7438 1795.9532
7326 32.3096 2079(46) 1836.5851 1796.0355
7327 32.3136 1886(43) 1835.7346 1796.1178
7328 32.3176 1886(43) 1835.1514 1796.2000
7329 32.3216 1782(42) 1834.8236 1796.2823
7330 32.3256 1673(41) 1834.7430 1796.3646
7331 32.3296 1577(40) 1834.9032 1796.4469
7332 32.3336 1758(42) 1835.3069 1796.5292
7333 32.3376 1671(41) 1835.9594 1796.6115
7334 32.3416 1763(42) 1836.8679 1796.6937
7335 32.3456 1755(42) 1838.0417 1796.7759
7336 32.3496 1794(42) 1839.4933 1796.8583
7337 32.3536 1843(43) 1841.2257 1796.9406
7338 32.3576 1802(42) 1843.2448 1797.0227
7339 32.3616 1693(41) 1845.5551 1797.1051
7340 32.3656 1759(42) 1848.1521 1797.1874
7341 32.3696 1807(43) 1851.0171 1797.2695
7342 32.3736 1761(42) 1854.1375 1797.3519
7343 32.3776 1818(43) 1857.4918 1797.4342
7344 32.3816 1986(45) 1861.0076 1797.5165
7345 32.3856 1938(44) 1864.6416 1797.5986
7346 32.3896 1770(42) 1868.3223 1797.6809
7347 32.3936 1914(44) 1871.9514 1797.7633
7348 32.3976 1923(44) 1875.4126 1797.8455
7349 32.4016 1848(43) 1878.5830 1797.9277
7350 32.4056 1879(43) 1881.3127 1798.0101
7351 32.4096 1862(43) 1883.4791 1798.0923
7352 32.4136 1689(41) 1884.9589 1798.1746
7353 32.4176 1940(44) 1885.6667 1798.2568
7354 32.4216 1867(43) 1885.5618 1798.3391
7355 32.4256 1808(43) 1884.6565 1798.4214
7356 32.4296 1729(42) 1883.0073 1798.5037
7357 32.4336 1753(42) 1880.7086 1798.5859
7358 32.4376 1864(43) 1877.8800 1798.6682
7359 32.4416 1839(43) 1874.6415 1798.7505
7360 32.4456 1913(44) 1871.1129 1798.8328
7361 32.4496 1810(43) 1867.4170 1798.9150
7362 32.4536 1661(41) 1863.6501 1798.9973
7363 32.4576 1575(40) 1859.8914 1799.0796
7364 32.4616 1716(41) 1856.2375 1799.1619
7365 32.4656 1865(43) 1852.7458 1799.2441
7366 32.4696 1885(43) 1849.4612 1799.3263
7367 32.4736 1975(44) 1846.4163 1799.4087
7368 32.4776 1827(43) 1843.6451 1799.4910
7369 32.4816 1991(45) 1841.1509 1799.5732
7370 32.4856 1956(44) 1838.9373 1799.6555
7371 32.4896 1821(43) 1837.0027 1799.7378
7372 32.4936 1852(43) 1835.3268 1799.8201
7373 32.4976 1960(44) 1833.9110 1799.9022
7374 32.5016 1738(42) 1832.7250 1799.9845
7375 32.5056 1853(43) 1831.7488 1800.0669
7376 32.5096 1970(44) 1830.9611 1800.1490
7377 32.5136 1920(44) 1830.3376 1800.2314
7378 32.5176 1790(42) 1829.8593 1800.3137
7379 32.5216 1842(43) 1829.5072 1800.3959
7380 32.5256 1850(43) 1829.0776 1800.4781
7381 32.5296 1759(42) 1828.9218 1800.5604
7382 32.5336 1775(42) 1828.8571 1800.6427
7383 32.5376 1644(41) 1828.8641 1800.7250
7384 32.5416 1819(43) 1828.9342 1800.8073
7385 32.5456 1796(42) 1829.0612 1800.8896
7386 32.5496 1758(42) 1829.2394 1800.9718
7387 32.5536 1668(41) 1829.4618 1801.0541
7388 32.5576 1625(40) 1829.7335 1801.1365
7389 32.5616 1795(42) 1830.0485 1801.2186
7390 32.5656 1691(41) 1830.4062 1801.3009
7391 32.5696 1757(42) 1830.8029 1801.3832
7392 32.5736 1873(43) 1831.2469 1801.4655
7393 32.5776 1704(41) 1831.7341 1801.5477
7394 32.5816 1747(42) 1832.2677 1801.6300
7395 32.5856 1708(41) 1832.8499 1801.7123
7396 32.5896 1883(43) 1833.4811 1801.7946
7397 32.5936 2049(45) 1834.1654 1801.8768
7398 32.5976 1890(43) 1834.9181 1801.9591
7399 32.6016 1862(43) 1835.7213 1802.0414
7400 32.6056 1753(42) 1836.5907 1802.1237
7401 32.6096 1827(43) 1837.5344 1802.2059
7402 32.6136 1899(44) 1838.5598 1802.2882
7403 32.6176 1909(44) 1839.6782 1802.3705
7404 32.6216 1805(42) 1840.9032 1802.4526
7405 32.6256 1777(42) 1842.2538 1802.5350
7406 32.6296 1780(42) 1843.7441 1802.6173
7407 32.6336 1914(44) 1845.4133 1802.6995
7408 32.6376 1854(43) 1847.2919 1802.7819
7409 32.6416 1920(44) 1849.4207 1802.8641
7410 32.6456 2017(45) 1851.8496 1802.9464
7411 32.6496 1905(44) 1854.6404 1803.0286
7412 32.6536 1975(44) 1857.8757 1803.1108
7413 32.6576 1988(45) 1861.6385 1803.1932
7414 32.6616 1902(44) 1866.0305 1803.2754
7415 32.6656 1919(44) 1871.1667 1803.3577
7416 32.6696 1998(45) 1877.1775 1803.4401
7417 32.6736 2082(46) 1884.1992 1803.5222
7418 32.6776 2084(46) 1892.3862 1803.6045
7419 32.6816 2017(45) 1901.9116 1803.6868
7420 32.6856 2066(45) 1912.9325 1803.7690
7421 32.6896 1938(44) 1925.6003 1803.8513
7422 32.6936 1846(43) 1940.0966 1803.9336
7423 32.6976 1869(43) 1956.5525 1804.0160
7424 32.7016 1998(45) 1975.0742 1804.0981
7425 32.7056 2044(45) 1995.7677 1804.1804
7426 32.7096 1998(45) 2018.7085 1804.2627
7427 32.7136 1996(45) 2043.8807 1804.3450
7428 32.7176 2023(45) 2071.2009 1804.4272
7429 32.7216 1846(43) 2100.5889 1804.5095
7430 32.7256 1889(43) 2131.8015 1804.5918
7431 32.7296 2051(45) 2164.4888 1804.6741
7432 32.7336 2285(48) 2198.2385 1804.7562
7433 32.7376 2276(48) 2232.5078 1804.8386
7434 32.7416 2259(48) 2266.6770 1804.9209
7435 32.7456 2222(47) 2299.0330 1805.0032
7436 32.7496 2365(49) 2329.7900 1805.0854
7437 32.7536 2188(47) 2357.2722 1805.1677
7438 32.7576 2253(47) 2380.3206 1805.2500
7439 32.7616 2332(48) 2397.9292 1805.3322
7440 32.7656 2222(47) 2409.2996 1805.4146
7441 32.7696 2284(48) 2413.9775 1805.4968
7442 32.7736 2301(48) 2411.9128 1805.5790
7443 32.7776 2288(48) 2403.4771 1805.6614
7444 32.7816 2246(47) 2389.3774 1805.7437
7445 32.7856 2332(48) 2370.5715 1805.8258
7446 32.7896 2367(49) 2348.0994 1805.9081
7447 32.7936 2321(48) 2322.9822 1805.9905
7448 32.7976 2079(46) 2296.3438 1806.0728
7449 32.8016 2102(46) 2269.0767 1806.1549
7450 32.8056 2137(46) 2242.0000 1806.2372
7451 32.8096 2198(47) 2215.8635 1806.3196
7452 32.8136 2043(45) 2190.7844 1806.4017
7453 32.8176 1962(44) 2168.2681 1806.4840
7454 32.8216 1810(43) 2148.1362 1806.5664
7455 32.8256 1908(44) 2130.7358 1806.6486
7456 32.8296 2099(46) 2116.1875 1806.7308
7457 32.8336 2089(46) 2104.5532 1806.8131
7458 32.8376 1954(44) 2095.8206 1806.8954
7459 32.8416 1849(43) 2089.8677 1806.9777
7460 32.8456 1971(44) 2086.4980 1807.0599
7461 32.8496 2148(46) 2085.4575 1807.1422
7462 32.8536 2111(46) 2086.4163 1807.2245
7463 32.8576 2123(46) 2088.9873 1807.3068
7464 32.8616 2058(45) 2092.7415 1807.3890
7465 32.8656 1943(44) 2097.2004 1807.4713
7466 32.8696 1943(44) 2101.8638 1807.5536
7467 32.8736 2180(47) 2106.2344 1807.6359
7468 32.8776 2185(47) 2109.8457 1807.7181
7469 32.8816 2153(46) 2112.2773 1807.8004
7470 32.8856 2039(45) 2113.2031 1807.8826
7471 32.8896 2146(46) 2112.4441 1807.9650
7472 32.8936 2162(46) 2109.9133 1808.0472
7473 32.8976 2029(45) 2105.7092 1808.1295
7474 32.9016 1874(43) 2100.0029 1808.2118
7475 32.9056 1986(45) 2093.0742 1808.2941
7476 32.9096 2013(45) 2085.2551 1808.3763
7477 32.9136 2075(46) 2076.8726 1808.4585
7478 32.9176 1955(44) 2068.2361 1808.5408
7479 32.9216 1830(43) 2059.6011 1808.6232
7480 32.9256 1776(42) 2051.1907 1808.7053
7481 32.9296 1959(44) 2043.1331 1808.7877
7482 32.9336 1858(43) 2035.5220 1808.8700
7483 32.9376 2000(45) 2028.3990 1808.9521
7484 32.9416 1975(44) 2021.7513 1809.0344
7485 32.9456 1909(44) 2015.5363 1809.1167
7486 32.9496 1965(44) 2009.7073 1809.1990
7487 32.9536 1842(43) 2004.1917 1809.2812
7488 32.9576 1899(44) 1998.9106 1809.3635
7489 32.9616 1956(44) 1993.8010 1809.4459
7490 32.9656 2016(45) 1988.8058 1809.5281
7491 32.9696 2130(46) 1984.5188 1809.6104
7492 32.9736 2200(47) 1979.6066 1809.6926
7493 32.9776 2084(46) 1974.6984 1809.7749
7494 32.9816 2062(45) 1969.7980 1809.8572
7495 32.9856 2023(45) 1964.8644 1809.9395
7496 32.9896 1999(45) 1959.9363 1810.0217
7497 32.9936 1844(43) 1955.0273 1810.1040
7498 32.9976 1827(43) 1950.1570 1810.1863
7499 33.0016 1894(44) 1945.3297 1810.2686
7500 33.0056 1913(44) 1940.5762 1810.3508
7501 33.0096 1816(43) 1935.9181 1810.4331
7502 33.0136 2023(45) 1931.3562 1810.5154
7503 33.0176 1923(44) 1926.9252 1810.5977
7504 33.0216 2021(45) 1922.6329 1810.6799
7505 33.0256 1901(44) 1918.4868 1810.7621
7506 33.0296 1921(44) 1914.4814 1810.8445
7507 33.0336 1897(44) 1910.6398 1810.9268
7508 33.0376 1887(43) 1906.9562 1811.0089
7509 33.0416 1817(43) 1903.4307 1811.0913
7510 33.0456 2078(46) 1899.9423 1811.1736
7511 33.0496 2058(45) 1896.7422 1811.2557
7512 33.0536 1989(45) 1893.7002 1811.3380
7513 33.0576 1968(44) 1890.8000 1811.4204
7514 33.0616 1966(44) 1888.0660 1811.5027
7515 33.0656 1829(43) 1885.4803 1811.5848
7516 33.0696 1893(44) 1883.0366 1811.6671
7517 33.0736 1952(44) 1880.7325 1811.7495
7518 33.0776 2039(45) 1878.5651 1811.8317
7519 33.0816 2106(46) 1876.5338 1811.9139
7520 33.0856 2063(45) 1874.6160 1811.9963
7521 33.0896 2186(47) 1872.8193 1812.0785
7522 33.0936 1961(44) 1871.1350 1812.1608
7523 33.0976 1939(44) 1869.5554 1812.2430
7524 33.1016 2000(45) 1868.0765 1812.3253
7525 33.1056 1881(43) 1866.6938 1812.4076
7526 33.1096 1921(44) 1865.3987 1812.4899
7527 33.1136 1759(42) 1864.1870 1812.5723
7528 33.1176 1884(43) 1863.0488 1812.6544
7529 33.1216 1809(43) 1861.9879 1812.7367
7530 33.1256 1844(43) 1860.9927 1812.8190
7531 33.1296 2003(45) 1860.0592 1812.9012
7532 33.1336 1897(44) 1859.1785 1812.9835
7533 33.1376 1871(43) 1858.3535 1813.0658
7534 33.1416 1909(44) 1857.5758 1813.1481
7535 33.1456 1893(44) 1856.9905 1813.2303
7536 33.1496 1814(43) 1856.2960 1813.3125
7537 33.1536 1750(42) 1856.4437 1813.3949
7538 33.1576 1902(44) 1855.8242 1813.4772
7539 33.1616 1970(44) 1855.2330 1813.5594
7540 33.1656 1996(45) 1854.6659 1813.6417
7541 33.1696 1985(45) 1854.1205 1813.7240
7542 33.1736 1885(43) 1853.5946 1813.8063
7543 33.1776 1817(43) 1853.0868 1813.8884
7544 33.1816 1711(41) 1852.5839 1813.9707
7545 33.1856 1874(43) 1852.1014 1814.0531
7546 33.1896 1827(43) 1851.6304 1814.1353
7547 33.1936 2000(45) 1851.9432 1814.2177
7548 33.1976 2013(45) 1851.4893 1814.2999
7549 33.2016 2159(46) 1851.0542 1814.3821
7550 33.2056 2126(46) 1850.6267 1814.4644
7551 33.2096 2090(46) 1850.2059 1814.5466
7552 33.2136 2028(45) 1849.7922 1814.6290
7553 33.2176 1978(44) 1849.3860 1814.7112
7554 33.2216 1910(44) 1848.9868 1814.7935
7555 33.2256 1930(44) 1848.5983 1814.8759
7556 33.2296 1790(42) 1848.2166 1814.9580
7557 33.2336 1707(41) 1847.8439 1815.0403
7558 33.2376 1940(44) 1847.4838 1815.1226
7559 33.2416 2045(45) 1847.1375 1815.2048
7560 33.2456 1973(44) 1846.8077 1815.2871
7561 33.2496 1920(44) 1846.4886 1815.3694
7562 33.2536 1875(43) 1846.2009 1815.4517
7563 33.2576 1964(44) 1845.9412 1815.5339
7564 33.2616 2001(45) 1845.7145 1815.6162
7565 33.2656 2090(46) 1845.5272 1815.6985
7566 33.2696 2086(46) 1845.3875 1815.7808
7567 33.2736 1968(44) 1845.3043 1815.8630
7568 33.2776 2022(45) 1845.2883 1815.9453
7569 33.2816 2028(45) 1845.3534 1816.0276
7570 33.2856 2089(46) 1845.5099 1816.1099
7571 33.2896 1906(44) 1845.7747 1816.1920
7572 33.2936 1803(42) 1846.1659 1816.2744
7573 33.2976 1868(43) 1846.7036 1816.3567
7574 33.3016 1660(41) 1847.4078 1816.4388
7575 33.3056 2023(45) 1848.2903 1816.5212
7576 33.3096 1806(42) 1849.3767 1816.6035
7577 33.3136 1837(43) 1850.6866 1816.6858
7578 33.3176 1898(44) 1852.2432 1816.7679
7579 33.3216 1849(43) 1854.0662 1816.8503
7580 33.3256 1896(44) 1856.1639 1816.9326
7581 33.3296 1943(44) 1858.5503 1817.0148
7582 33.3336 1901(44) 1861.2371 1817.0970
7583 33.3376 1936(44) 1864.2225 1817.1794
7584 33.3416 1954(44) 1867.4971 1817.2616
7585 33.3456 1928(44) 1871.0532 1817.3440
7586 33.3496 1995(45) 1874.8752 1817.4263
7587 33.3536 2033(45) 1878.8983 1817.5084
7588 33.3576 2038(45) 1883.0889 1817.5907
7589 33.3616 1942(44) 1887.3846 1817.6730
7590 33.3656 1832(43) 1891.6986 1817.7552
7591 33.3696 1719(41) 1895.9213 1817.8375
7592 33.3736 1824(43) 1899.9480 1817.9198
7593 33.3776 2007(45) 1903.6376 1818.0022
7594 33.3816 1952(44) 1906.8433 1818.0844
7595 33.3856 1841(43) 1909.4417 1818.1666
7596 33.3896 1886(43) 1911.3163 1818.2489
7597 33.3936 2050(45) 1912.3837 1818.3312
7598 33.3976 2133(46) 1912.6084 1818.4135
7599 33.4016 1968(44) 1912.0029 1818.4957
7600 33.4056 1977(44) 1909.5449 1818.5780
7601 33.4096 1965(44) 1907.4937 1818.6603
7602 33.4136 2035(45) 1904.8674 1818.7426
7603 33.4176 2052(45) 1901.7831 1818.8248
7604 33.4216 1941(44) 1898.3639 1818.9071
7605 33.4256 1885(43) 1894.7297 1818.9894
7606 33.4296 1772(42) 1890.9813 1819.0717
7607 33.4336 1870(43) 1887.2185 1819.1539
7608 33.4376 1812(43) 1883.5358 1819.2362
7609 33.4416 1762(42) 1879.9952 1819.3184
7610 33.4456 1837(43) 1876.6606 1819.4008
7611 33.4496 1823(43) 1873.5643 1819.4830
7612 33.4536 1705(41) 1870.7753 1819.5652
7613 33.4576 1791(42) 1868.3041 1819.6476
7614 33.4616 1985(45) 1866.1622 1819.7299
7615 33.4656 1905(44) 1864.3555 1819.8120
7616 33.4696 1912(44) 1862.8809 1819.8943
7617 33.4736 1980(44) 1861.7316 1819.9766
7618 33.4776 1956(44) 1860.9012 1820.0590
7619 33.4816 1952(44) 1860.3649 1820.1411
7620 33.4856 1765(42) 1860.1180 1820.2234
7621 33.4896 1634(40) 1860.1528 1820.3058
7622 33.4936 1690(41) 1860.4634 1820.3879
7623 33.4976 1734(42) 1861.2083 1820.4702
7624 33.5016 1926(44) 1862.0809 1820.5525
7625 33.5056 1876(43) 1863.2507 1820.6348
7626 33.5096 1703(41) 1864.7396 1820.7170
7627 33.5136 1621(40) 1866.5808 1820.7993
7628 33.5176 1740(42) 1869.2704 1820.8816
7629 33.5216 1763(42) 1871.9543 1820.9639
7630 33.5256 1777(42) 1875.1277 1821.0461
7631 33.5296 1812(43) 1878.8721 1821.1284
7632 33.5336 1900(44) 1883.2495 1821.2107
7633 33.5376 1946(44) 1888.6445 1821.2930
7634 33.5416 1963(44) 1894.7327 1821.3752
7635 33.5456 2060(45) 1901.5123 1821.4575
7636 33.5496 1951(44) 1909.2482 1821.5398
7637 33.5536 1902(44) 1918.0223 1821.6219
7638 33.5576 2022(45) 1927.9230 1821.7043
7639 33.5616 1823(43) 1938.9668 1821.7866
7640 33.5656 1991(45) 1951.2086 1821.8688
7641 33.5696 1923(44) 1964.6769 1821.9512
7642 33.5736 1802(42) 1979.3473 1822.0334
7643 33.5776 1794(42) 1995.1582 1822.1157
7644 33.5816 1745(42) 2012.0388 1822.1979
7645 33.5856 1873(43) 2029.8870 1822.2803
7646 33.5896 1958(44) 2048.4495 1822.3625
7647 33.5936 2099(46) 2067.5095 1822.4447
7648 33.5976 2186(47) 2086.9138 1822.5271
7649 33.6016 2139(46) 2105.9463 1822.6094
7650 33.6056 2242(47) 2124.2588 1822.6915
7651 33.6096 2325(48) 2141.3311 1822.7739
7652 33.6136 2139(46) 2156.5452 1822.8562
7653 33.6176 2272(48) 2169.2810 1822.9384
7654 33.6216 2349(48) 2178.9944 1823.0206
7655 33.6256 2177(47) 2186.2314 1823.1029
7656 33.6296 2164(47) 2188.7209 1823.1853
7657 33.6336 2172(47) 2187.4045 1823.2675
7658 33.6376 2139(46) 2182.4124 1823.3497
7659 33.6416 2151(46) 2174.0703 1823.4321
7660 33.6456 2210(47) 2162.8682 1823.5143
7661 33.6496 2154(46) 2149.2957 1823.5966
7662 33.6536 2053(45) 2133.9146 1823.6788
7663 33.6576 1980(44) 2117.2837 1823.7611
7664 33.6616 2248(47) 2099.9321 1823.8434
7665 33.6656 2094(46) 2082.2888 1823.9257
7666 33.6696 2008(45) 2064.7783 1824.0079
7667 33.6736 1956(44) 2047.7705 1824.0902
7668 33.6776 1968(44) 2031.5453 1824.1725
7669 33.6816 1835(43) 2016.3297 1824.2548
7670 33.6856 1828(43) 2002.3578 1824.3370
7671 33.6896 1836(43) 1989.7596 1824.4193
7672 33.6936 1693(41) 1978.6310 1824.5016
7673 33.6976 1788(42) 1969.0620 1824.5839
7674 33.7016 1986(45) 1961.1072 1824.6661
7675 33.7056 1980(44) 1953.5974 1824.7483
7676 33.7096 1979(44) 1948.9283 1824.8307
7677 33.7136 1975(44) 1945.9174 1824.9130
7678 33.7176 2130(46) 1944.5725 1824.9951
7679 33.7216 2063(45) 1944.9111 1825.0775
7680 33.7256 1908(44) 1946.9583 1825.1598
7681 33.7296 1899(44) 1950.7480 1825.2419
7682 33.7336 1781(42) 1956.3495 1825.3242
7683 33.7376 1919(44) 1963.8044 1825.4065
7684 33.7416 1937(44) 1973.2018 1825.4889
7685 33.7456 1851(43) 1984.6149 1825.5710
7686 33.7496 1879(43) 1998.1548 1825.6533
7687 33.7536 1886(43) 2013.9011 1825.7357
7688 33.7576 2088(46) 2031.9130 1825.8179
7689 33.7616 2083(46) 2052.2661 1825.9001
7690 33.7656 2218(47) 2075.0234 1825.9824
7691 33.7696 2084(46) 2100.1680 1826.0647
7692 33.7736 2125(46) 2127.6318 1826.1470
7693 33.7776 1994(45) 2157.3511 1826.2292
7694 33.7816 2160(46) 2189.1370 1826.3115
7695 33.7856 2242(47) 2222.6863 1826.3938
7696 33.7896 2255(47) 2257.6597 1826.4761
7697 33.7936 2181(47) 2293.6433 1826.5585
7698 33.7976 2136(46) 2329.8975 1826.6406
7699 33.8016 2296(48) 2365.7764 1826.7229
7700 33.8056 2375(49) 2400.5164 1826.8052
7701 33.8096 2536(50) 2433.2476 1826.8875
7702 33.8136 2433(49) 2463.1406 1826.9697
7703 33.8176 2379(49) 2489.5242 1827.0519
7704 33.8216 2394(49) 2511.8767 1827.1343
7705 33.8256 2573(51) 2529.7720 1827.2166
7706 33.8296 2738(52) 2543.0369 1827.2988
7707 33.8336 2627(51) 2551.5901 1827.3811
7708 33.8376 2560(51) 2555.3833 1827.4634
7709 33.8416 2387(49) 2554.3979 1827.5457
7710 33.8456 2468(50) 2548.6016 1827.6279
7711 33.8496 2496(50) 2537.9751 1827.7102
7712 33.8536 2404(49) 2522.5796 1827.7925
7713 33.8576 2324(48) 2502.5659 1827.8746
7714 33.8616 2342(48) 2478.2263 1827.9570
7715 33.8656 2315(48) 2450.0742 1828.0393
7716 33.8696 2224(47) 2418.7876 1828.1215
7717 33.8736 2202(47) 2385.0547 1828.2039
7718 33.8776 2099(46) 2349.7129 1828.2861
7719 33.8816 2100(46) 2313.5259 1828.3683
7720 33.8856 2193(47) 2277.1909 1828.4506
7721 33.8896 2274(48) 2241.2998 1828.5328
7722 33.8936 2301(48) 2206.4146 1828.6152
7723 33.8976 2220(47) 2172.9817 1828.6974
7724 33.9016 2239(47) 2141.2817 1828.7797
7725 33.9056 2006(45) 2111.5859 1828.8621
7726 33.9096 2052(45) 2084.0884 1828.9442
7727 33.9136 2061(45) 2058.8552 1829.0265
7728 33.9176 2107(46) 2035.8999 1829.1088
7729 33.9216 2088(46) 2015.2272 1829.1910
7730 33.9256 1792(42) 1996.7896 1829.2733
7731 33.9296 1853(43) 1980.4430 1829.3556
7732 33.9336 1918(44) 1966.0945 1829.4379
7733 33.9376 2033(45) 1953.5880 1829.5201
7734 33.9416 1975(44) 1942.7677 1829.6024
7735 33.9456 1965(44) 1933.4556 1829.6847
7736 33.9496 2057(45) 1925.4943 1829.7670
7737 33.9536 1914(44) 1918.7292 1829.8492
7738 33.9576 1917(44) 1912.9956 1829.9315
7739 33.9616 2098(46) 1908.1603 1830.0138
7740 33.9656 2189(47) 1904.0995 1830.0961
7741 33.9696 2123(46) 1900.6948 1830.1782
7742 33.9736 2000(45) 1897.8296 1830.2606
7743 33.9776 2005(45) 1895.4521 1830.3429
7744 33.9816 1968(44) 1893.4758 1830.4250
7745 33.9856 2009(45) 1891.8379 1830.5074
7746 33.9896 2066(45) 1890.4851 1830.5897
7747 33.9936 2089(46) 1889.3800 1830.6720
7748 33.9976 2097(46) 1888.4872 1830.7542
7749 34.0016 2103(46) 1887.5229 1830.8364
7750 34.0056 1941(44) 1886.9839 1830.9188
7751 34.0096 1945(44) 1886.5939 1831.0010
7752 34.0136 2079(46) 1886.3380 1831.0833
7753 34.0176 1958(44) 1886.2161 1831.1656
7754 34.0216 1883(43) 1886.2192 1831.2478
7755 34.0256 1969(44) 1886.3521 1831.3301
7756 34.0296 1890(43) 1886.6044 1831.4125
7757 34.0336 1794(42) 1886.9884 1831.4946
7758 34.0376 1902(44) 1887.5050 1831.5769
7759 34.0416 1843(43) 1888.1664 1831.6592
7760 34.0456 1689(41) 1888.8514 1831.7415
7761 34.0496 1686(41) 1889.8553 1831.8237
7762 34.0536 1769(42) 1891.0608 1831.9060
7763 34.0576 1799(42) 1892.4988 1831.9884
7764 34.0616 1912(44) 1894.1976 1832.0706
7765 34.0656 2016(45) 1896.1984 1832.1528
7766 34.0696 1974(44) 1898.5549 1832.2351
7767 34.0736 1984(45) 1901.3167 1832.3174
7768 34.0776 1995(45) 1904.8616 1832.3997
7769 34.0816 2008(45) 1908.6381 1832.4819
7770 34.0856 2015(45) 1913.0330 1832.5642
7771 34.0896 1963(44) 1918.1207 1832.6465
7772 34.0936 2001(45) 1924.0093 1832.7288
7773 34.0976 1821(43) 1930.7963 1832.8110
7774 34.1016 2024(45) 1938.5773 1832.8933
7775 34.1056 1902(44) 1947.4437 1832.9756
7776 34.1096 1926(44) 1957.5156 1833.0579
7777 34.1136 2055(45) 1968.8794 1833.1401
7778 34.1176 1967(44) 1981.6038 1833.2224
7779 34.1216 2011(45) 1995.7810 1833.3046
7780 34.1256 2125(46) 2011.4843 1833.3870
7781 34.1296 2119(46) 2028.7167 1833.4692
7782 34.1336 2070(45) 2047.4752 1833.5514
7783 34.1376 2190(47) 2067.7463 1833.6338
7784 34.1416 1912(44) 2089.4514 1833.7161
7785 34.1456 1866(43) 2112.4275 1833.7983
7786 34.1496 1998(45) 2136.5059 1833.8805
7787 34.1536 2087(46) 2161.4612 1833.9628
7788 34.1576 2040(45) 2186.9492 1834.0452
7789 34.1616 1982(45) 2212.5640 1834.1273
7790 34.1656 2322(48) 2237.9131 1834.2096
7791 34.1696 2179(47) 2262.4810 1834.2920
7792 34.1736 2187(47) 2285.7200 1834.3741
7793 34.1776 2236(47) 2307.1099 1834.4564
7794 34.1816 2184(47) 2326.1274 1834.5387
7795 34.1856 2139(46) 2342.2361 1834.6210
7796 34.1896 2199(47) 2354.9683 1834.7032
7797 34.1936 2323(48) 2363.9851 1834.7855
7798 34.1976 2434(49) 2369.0303 1834.8678
7799 34.2016 2427(49) 2370.0063 1834.9501
7800 34.2056 2266(48) 2366.9771 1835.0323
7801 34.2096 2267(48) 2360.1396 1835.1146
7802 34.2136 2163(47) 2349.8352 1835.1969
7803 34.2176 2347(48) 2336.5173 1835.2792
7804 34.2216 2301(48) 2320.7017 1835.3615
7805 34.2256 2426(49) 2302.9519 1835.4437
7806 34.2296 2423(49) 2283.8499 1835.5260
7807 34.2336 2361(49) 2263.9126 1835.6082
7808 34.2376 2116(46) 2243.5991 1835.6906
7809 34.2416 2187(47) 2223.3362 1835.7728
7810 34.2456 2338(48) 2203.4749 1835.8550
7811 34.2496 2114(46) 2184.1970 1835.9374
7812 34.2536 2178(47) 2165.7356 1836.0197
7813 34.2576 2175(47) 2148.1689 1836.1019
7814 34.2616 2241(47) 2131.5027 1836.1841
7815 34.2656 2100(46) 2115.6797 1836.2665
7816 34.2696 2004(45) 2100.7051 1836.3488
7817 34.2736 1942(44) 2087.8381 1836.4309
7818 34.2776 2151(46) 2074.3086 1836.5133
7819 34.2816 2349(48) 2061.4272 1836.5956
7820 34.2856 2253(47) 2049.1702 1836.6777
7821 34.2896 2290(48) 2036.9080 1836.7600
7822 34.2936 2178(47) 2025.8889 1836.8424
7823 34.2976 2033(45) 2015.5245 1836.9246
7824 34.3016 1945(44) 2005.8076 1837.0068
7825 34.3056 2029(45) 1996.7405 1837.0891
7826 34.3096 1951(44) 1988.3407 1837.1715
7827 34.3136 1944(44) 1980.6211 1837.2537
7828 34.3176 2053(45) 1973.5765 1837.3359
7829 34.3216 2114(46) 1967.1997 1837.4183
7830 34.3256 2103(46) 1961.5065 1837.5005
7831 34.3296 2067(45) 1956.4847 1837.5828
7832 34.3336 2038(45) 1952.1250 1837.6650
7833 34.3376 2079(46) 1948.5670 1837.7473
7834 34.3416 2018(45) 1945.5137 1837.8296
7835 34.3456 1912(44) 1943.1049 1837.9119
7836 34.3496 2183(47) 1941.3226 1837.9941
7837 34.3536 2058(45) 1940.1544 1838.0764
7838 34.3576 1975(44) 1939.5824 1838.1587
7839 34.3616 1879(43) 1939.5946 1838.2410
7840 34.3656 1830(43) 1940.1827 1838.3232
7841 34.3696 1798(42) 1941.3320 1838.4055
7842 34.3736 1869(43) 1943.0356 1838.4878
7843 34.3776 1816(43) 1945.2875 1838.5701
7844 34.3816 1970(44) 1948.0757 1838.6523
7845 34.3856 1940(44) 1951.4041 1838.7345
7846 34.3896 1992(45) 1955.2745 1838.8169
7847 34.3936 2154(46) 1959.6825 1838.8992
7848 34.3976 2068(45) 1964.6221 1838.9813
7849 34.4016 2037(45) 1970.1117 1839.0637
7850 34.4056 2027(45) 1976.1130 1839.1460
7851 34.4096 2115(46) 1982.6167 1839.2283
7852 34.4136 2184(47) 1989.6016 1839.3104
7853 34.4176 1994(45) 1997.0333 1839.3927
7854 34.4216 2158(46) 2004.8469 1839.4751
7855 34.4256 2051(45) 2012.9331 1839.5573
7856 34.4296 1923(44) 2021.2305 1839.6395
7857 34.4336 1945(44) 2029.5696 1839.7219
7858 34.4376 2151(46) 2037.7678 1839.8041
7859 34.4416 2191(47) 2045.6233 1839.8864
7860 34.4456 2255(47) 2052.9065 1839.9686
7861 34.4496 2190(47) 2059.3560 1840.0509
7862 34.4536 2136(46) 2064.7131 1840.1332
7863 34.4576 2130(46) 2068.7512 1840.2155
7864 34.4616 2104(46) 2071.5757 1840.2979
7865 34.4656 2046(45) 2072.4714 1840.3800
7866 34.4696 1994(45) 2071.6919 1840.4623
7867 34.4736 2031(45) 2069.2803 1840.5446
7868 34.4776 2070(45) 2065.3718 1840.6268
7869 34.4816 2081(46) 2060.1772 1840.7091
7870 34.4856 2122(46) 2053.1426 1840.7914
7871 34.4896 1985(45) 2046.1578 1840.8737
7872 34.4936 1822(43) 2038.7018 1840.9559
7873 34.4976 1840(43) 2031.0259 1841.0381
7874 34.5016 1974(44) 2023.3483 1841.1205
7875 34.5056 1955(44) 2015.8602 1841.2028
7876 34.5096 2069(45) 2008.7108 1841.2850
7877 34.5136 2048(45) 2001.9883 1841.3673
7878 34.5176 2070(45) 1995.7664 1841.4496
7879 34.5216 2043(45) 1989.3602 1841.5319
7880 34.5256 2028(45) 1984.2550 1841.6140
7881 34.5296 1905(44) 1979.6764 1841.6964
7882 34.5336 1873(43) 1975.6390 1841.7787
7883 34.5376 1909(44) 1972.1090 1841.8608
7884 34.5416 2153(46) 1969.0542 1841.9432
7885 34.5456 2079(46) 1966.4448 1842.0255
7886 34.5496 1913(44) 1964.2451 1842.1077
7887 34.5536 1919(44) 1962.4246 1842.1899
7888 34.5576 1967(44) 1960.9429 1842.2723
7889 34.5616 1902(44) 1959.7716 1842.3545
7890 34.5656 1824(43) 1958.8749 1842.4368
7891 34.5696 1898(44) 1958.2195 1842.5190
7892 34.5736 2014(45) 1957.7743 1842.6014
7893 34.5776 2041(45) 1957.5071 1842.6836
7894 34.5816 2122(46) 1957.3849 1842.7659
7895 34.5856 2129(46) 1957.3756 1842.8483
7896 34.5896 2133(46) 1957.4458 1842.9304
7897 34.5936 2136(46) 1957.5621 1843.0127
7898 34.5976 2066(45) 1957.6918 1843.0950
7899 34.6016 2068(45) 1957.8021 1843.1772
7900 34.6056 2061(45) 1957.8660 1843.2595
7901 34.6096 1959(44) 1957.8491 1843.3418
7902 34.6136 1991(45) 1957.7317 1843.4241
7903 34.6176 1939(44) 1957.4963 1843.5063
7904 34.6216 1964(44) 1957.1326 1843.5886
7905 34.6256 2006(45) 1956.6373 1843.6709
7906 34.6296 1977(44) 1956.0166 1843.7532
7907 34.6336 2128(46) 1955.2864 1843.8354
7908 34.6376 2036(45) 1954.4683 1843.9177
7909 34.6416 1950(44) 1953.6010 1844.0000
7910 34.6456 2060(45) 1952.7100 1844.0823
7911 34.6496 1843(43) 1951.8479 1844.1644
7912 34.6536 1979(44) 1951.0542 1844.2468
7913 34.6576 1964(44) 1950.3849 1844.3291
7914 34.6616 2060(45) 1949.8936 1844.4114
7915 34.6656 2113(46) 1949.6326 1844.4937
7916 34.6696 1968(44) 1949.6562 1844.5759
7917 34.6736 2020(45) 1950.0171 1844.6582
7918 34.6776 2075(46) 1950.7660 1844.7404
7919 34.6816 2002(45) 1951.9528 1844.8226
7920 34.6856 1968(44) 1953.6199 1844.9050
7921 34.6896 1867(43) 1955.8075 1844.9872
7922 34.6936 1741(42) 1958.5522 1845.0696
7923 34.6976 1882(43) 1961.8762 1845.1519
7924 34.7016 1872(43) 1965.7958 1845.2340
7925 34.7056 1900(44) 1970.6732 1845.3163
7926 34.7096 1821(43) 1975.8021 1845.3986
7927 34.7136 1808(43) 1981.5106 1845.4808
7928 34.7176 1951(44) 1987.7566 1845.5631
7929 34.7216 2038(45) 1994.5007 1845.6454
7930 34.7256 2166(47) 2001.6647 1845.7278
7931 34.7296 2112(46) 2009.1449 1845.8099
7932 34.7336 2124(46) 2016.8275 1845.8922
7933 34.7376 2025(45) 2024.5695 1845.9745
7934 34.7416 2008(45) 2032.1819 1846.0568
7935 34.7456 2059(45) 2039.4453 1846.1390
7936 34.7496 2047(45) 2046.1350 1846.2213
7937 34.7536 2096(46) 2051.9888 1846.3036
7938 34.7576 2062(45) 2056.7483 1846.3859
7939 34.7616 1966(44) 2060.1926 1846.4680
7940 34.7656 2006(45) 2062.1448 1846.5504
7941 34.7696 1962(44) 2062.4912 1846.6327
7942 34.7736 2099(46) 2061.2153 1846.7150
7943 34.7776 2349(48) 2058.3779 1846.7972
7944 34.7816 2284(48) 2054.1147 1846.8795
7945 34.7856 2140(46) 2048.6321 1846.9618
7946 34.7896 2116(46) 2042.1741 1847.0439
7947 34.7936 2111(46) 2034.9146 1847.1263
7948 34.7976 2004(45) 2027.1436 1847.2086
7949 34.8016 1915(44) 2019.0721 1847.2908
7950 34.8056 1874(43) 2010.8998 1847.3732
7951 34.8096 1899(44) 2002.8208 1847.4554
7952 34.8136 1861(43) 1995.0095 1847.5376
7953 34.8176 1823(43) 1987.6045 1847.6199
7954 34.8216 1905(44) 1980.7207 1847.7023
7955 34.8256 2024(45) 1974.4949 1847.7845
7956 34.8296 2002(45) 1969.0107 1847.8667
7957 34.8336 1883(43) 1964.3425 1847.9490
7958 34.8376 1881(43) 1960.5704 1848.0314
7959 34.8416 1910(44) 1957.7709 1848.1135
7960 34.8456 1968(44) 1955.8311 1848.1958
7961 34.8496 1974(44) 1955.1458 1848.2782
7962 34.8536 1887(43) 1955.6193 1848.3604
7963 34.8576 1865(43) 1957.3176 1848.4426
7964 34.8616 1774(42) 1960.3264 1848.5249
7965 34.8656 1895(44) 1964.7360 1848.6072
7966 34.8696 1922(44) 1970.1886 1848.6895
7967 34.8736 1939(44) 1977.7286 1848.7717
7968 34.8776 1897(44) 1986.9675 1848.8540
7969 34.8816 1862(43) 1998.0377 1848.9363
7970 34.8856 1904(44) 2010.7629 1849.0186
7971 34.8896 1916(44) 2025.8907 1849.1008
7972 34.8936 1804(42) 2043.2056 1849.1831
7973 34.8976 1792(42) 2062.7812 1849.2654
7974 34.9016 1882(43) 2084.7234 1849.3477
7975 34.9056 1942(44) 2109.0527 1849.4299
7976 34.9096 2128(46) 2135.7400 1849.5122
7977 34.9136 2189(47) 2164.7581 1849.5944
7978 34.9176 2184(47) 2196.0303 1849.6768
7979 34.9216 1993(45) 2229.3508 1849.7590
7980 34.9256 2151(46) 2264.4338 1849.8413
7981 34.9296 1981(45) 2300.9912 1849.9236
7982 34.9336 2211(47) 2338.5337 1850.0059
7983 34.9376 2215(47) 2376.4458 1850.0881
7984 34.9416 2223(47) 2414.0549 1850.1703
7985 34.9456 2252(47) 2450.5537 1850.2526
7986 34.9496 2385(49) 2484.7910 1850.3350
7987 34.9536 2394(49) 2515.9834 1850.4171
7988 34.9576 2494(50) 2542.9565 1850.4995
7989 34.9616 2554(51) 2564.6511 1850.5818
7990 34.9656 2566(51) 2580.1912 1850.6639
7991 34.9696 2287(48) 2588.9971 1850.7462
7992 34.9736 2381(49) 2590.7954 1850.8285
7993 34.9776 2430(49) 2585.6663 1850.9109
7994 34.9816 2381(49) 2574.0488 1850.9930
7995 34.9856 2182(47) 2556.6094 1851.0753
7996 34.9896 2134(46) 2534.2224 1851.1577
7997 34.9936 2149(46) 2507.8623 1851.2399
7998 34.9976 2121(46) 2478.4626 1851.3221
7999 35.0016 2071(46) 2446.8960 1851.4044
8000 35.0056 2104(46) 2414.0129 1851.4867
loop_
_refln_index_h
_refln_index_k
_refln_index_l
_refln_mult
_pd_refln_phase_id
_refln_observed_status
_refln_F_squared_meas
_refln_F_squared_calc
_refln_phase_calc
_refln_d_spacing
1 0 1 4 4 o 2111.2456 249.5321 1.65 7.23224
0 1 1 4 4 o 2138.0618 2138.0618 183.04 5.93615
0 0 2 2 4 o 170.9172 170.9172 5.15 5.87129
0 0 2 2 1 o 3017.9861 2975.8560 181.99 5.62719
0 0 1 2 3 o 0.0000 0.0000 180.00 5.05966
1 1 1 8 4 o 3037.3123 3135.4431 183.81 4.98477
1 0 2 4 4 o 1733.4272 4798.9438 183.44 4.94618
2 0 0 2 4 o 15383.9541 7203.0874 183.09 4.59000
2 0 1 4 4 o 7855.0806 7855.0806 1.38 4.27502
1 1 2 8 4 o 15452.1279 20941.5234 181.43 4.01604
1 0 1 8 1 o 1397.6852 1328.3523 0.82 3.98948
2 1 0 4 4 o 5331.3716 8555.2148 1.53 3.81826
2 1 1 8 4 o 49444.5195 39978.8320 1.79 3.63112
2 0 2 4 4 o 31158.9883 24836.7168 181.79 3.61612
1 0 3 4 4 o 14707.2256 14707.2256 1.64 3.60056
0 2 0 2 4 o 192003.4844 166082.9531 181.92 3.44000
0 1 3 4 4 o 124301.6797 98506.4453 181.95 3.40213
1 0 0 6 3 o 7.0817 6.4304 353.51 3.39749
1 1 1 8 2 o 24900.4648 25783.5039 2.14 3.21726
2 1 2 8 4 o 7913.8486 7578.0176 1.79 3.20092
1 1 3 8 4 o 1861.8658 1853.3231 181.73 3.19011
1 2 1 8 4 o 2840.3596 2546.2180 2.84 3.10649
1 1 0 4 1 o 10660.8916 10685.4629 2.60 3.01690
2 0 3 4 4 o 54771.2852 55581.0352 2.12 2.97831
0 2 2 4 4 o 21659.8027 22478.6680 182.68 2.96807
3 0 1 4 4 o 179896.3281 186193.3125 182.21 2.96111
0 0 4 2 4 o 128770.0078 101205.5938 182.27 2.93564
1 2 2 8 4 o 67119.2266 69933.2188 182.24 2.82413
1 0 1 12 3 o 252.3041 253.0423 274.03 2.82059
1 0 3 8 1 o 31203.2324 31793.1504 2.24 2.81729
0 0 4 2 1 o 14078.4658 14366.7178 1.53 2.81360
1 0 4 4 4 o 82519.1797 86342.8125 2.28 2.79615
2 0 0 6 2 o 41816.9805 41507.9531 1.69 2.78623
2 2 0 4 4 o 25830.0527 25550.0684 182.29 2.75272
2 1 3 8 4 o 8621.5176 8345.8740 182.63 2.73320
3 1 1 8 4 o 1904.0284 1174.8436 1.67 2.71989
3 0 2 4 4 o 3959.4758 2273.6052 182.33 2.71357
2 2 1 8 4 o 64559.4648 70754.1328 182.29 2.68006
1 1 2 8 1 o 15054.9785 15074.5586 1.63 2.65888
1 1 4 8 4 o 62475.4375 45717.8125 2.31 2.59039
0 0 2 2 3 o 1127.7858 1651.3373 2.85 2.52983
3 1 2 8 4 o 4796.1313 8035.4395 2.26 2.52432
2 2 2 8 4 o 45573.6953 40828.9297 2.23 2.49238
1 2 3 8 4 o 47265.3672 39704.8047 182.28 2.48727
2 0 4 4 4 o 17916.5254 8380.9883 2.28 2.47309
3 0 3 4 4 o 80322.8516 86187.0391 2.25 2.41075
2 1 4 8 4 o 27052.9277 25319.8301 182.22 2.32730
4 0 0 2 4 o 2063.8376 2063.8376 2.18 2.29500
1 0 5 4 4 o 42494.9883 22392.1094 181.58 2.27524
3 1 3 8 4 o 2965.7847 1573.5536 181.69 2.27512
4 0 1 4 4 o 45259.8164 37215.6250 2.71 2.25239
2 2 3 8 4 o 102303.0703 84732.7656 182.40 2.25165
0 3 1 4 4 o 16441.6992 13799.8057 182.74 2.25081
3 2 1 8 4 o 44029.8672 44029.8672 2.11 2.24420
0 2 4 4 4 o 388.8517 388.8517 358.54 2.23305
0 1 5 4 4 o 5940.7393 3028.5352 3.90 2.22259
1 3 1 8 4 o 8812.0654 8812.0654 181.86 2.18606
4 1 0 4 4 o 3731.5051 4762.0215 4.76 2.17707
1 2 4 8 4 o 11104.7959 7030.0811 181.80 2.16978
1 1 5 8 4 o 16777.1777 10876.0977 181.97 2.16018
4 1 1 8 4 o 47224.2969 42118.7852 2.12 2.14059
4 0 2 4 4 o 24697.4785 22240.5742 182.09 2.13751
2 0 0 4 1 o 53670.1523 52145.9219 2.30 2.13327
3 2 2 8 4 o 37158.8672 33305.2500 2.74 2.13050
3 0 4 4 4 o 8343.4375 7742.0386 183.41 2.11841
2 0 5 4 4 o 45295.6953 49317.2266 2.75 2.09073
1 3 2 8 4 o 44.1219 45.5745 198.71 2.08057
1 1 4 8 1 o 1597.6276 1661.5449 182.69 2.05763
2 3 0 4 4 o 62993.5508 69125.2891 182.47 2.05152
4 1 2 8 4 o 10546.3447 10796.9209 2.77 2.04126
1 0 2 12 3 o 6782.5420 6627.3091 182.24 2.02910
3 1 4 8 4 o 26678.6602 25311.9355 1.68 2.02461
2 3 1 8 4 o 1382.1371 1296.8983 5.23 2.02091
2 2 4 8 4 o 12972.0898 12684.2500 3.13 2.00802
2 1 5 8 4 o 34075.1602 33864.0508 182.66 2.00041
2 0 2 8 1 o 792.3468 788.8378 182.75 1.99474
1 0 5 8 1 o 2494.1370 2457.7520 1.77 1.99082
4 0 3 4 4 o 3787.5012 3811.0256 181.15 1.97979
0 3 3 4 4 o 28242.7148 28389.1562 2.02 1.97871
3 2 3 8 4 o 762.3134 768.0023 6.56 1.97422
2 2 0 12 2 o 32160.0273 32417.9414 1.91 1.97016
1 1 0 6 3 o 14035.4893 14312.8340 2.36 1.96154
0 0 6 2 4 o 1146.0945 1225.1232 3.58 1.95710
2 3 2 8 4 o 214.2064 178.8174 179.00 1.93669
1 3 3 8 4 o 70040.8516 63631.1641 2.76 1.93429
1 0 6 4 4 o 9900.2002 19774.1562 3.22 1.91408
4 2 0 4 4 o 350.0783 433.2710 3.08 1.90913
4 1 3 8 4 o 9651.2705 8499.2314 2.46 1.90258
1 2 5 8 4 o 16965.1250 12470.2695 1.57 1.89771
4 2 1 8 4 o 10397.7861 8024.3677 2.82 1.88439
2 1 1 16 1 o 859.6985 814.7361 1.13 1.88121
0 0 6 2 1 o 4047.8933 4121.7378 2.98 1.87573
3 0 5 4 4 o 78.3027 35.0153 0.86 1.86306
1 1 6 8 4 o 2698.2244 2698.2244 181.91 1.84405
1 1 1 12 3 o 0.0000 0.0000 180.00 1.82891
2 3 3 8 4 o 23788.7012 13243.8828 3.11 1.81706
4 2 2 8 4 o 19502.8242 12192.2109 2.15 1.81556
5 0 1 4 4 o 77512.3125 54333.5234 2.99 1.81396
3 3 1 8 4 o 2602.7822 1926.8854 3.50 1.81314
4 0 4 4 4 o 6226.6060 7607.5669 2.31 1.80806
3 2 4 8 4 o 80.8540 80.8540 8.12 1.80381
2 0 6 4 4 o 18.7027 22.1283 209.49 1.80028
3 1 5 8 4 o 37949.5039 16293.5000 2.81 1.79829
2 2 5 8 4 o 59.3529 10.3436 179.49 1.78663
1 3 4 8 4 o 6603.1714 6603.1714 182.69 1.77321
5 1 1 8 4 o 14774.0625 14774.0625 182.42 1.75402
5 0 2 4 4 o 49858.5664 49858.5664 182.31 1.75232
3 3 2 8 4 o 7573.8018 7573.8018 3.68 1.75158
4 1 4 8 4 o 101.8668 169.3235 358.38 1.74868
2 1 6 8 4 o 68425.6250 70605.4062 182.56 1.74164
0 4 0 2 4 o 177150.6562 143087.9219 2.61 1.72000
4 2 3 8 4 o 27409.6738 21797.4551 2.33 1.71590
0 2 6 4 4 o 62670.2734 55925.0938 2.85 1.70107
2 1 3 16 1 o 18931.4395 17773.6934 2.65 1.70071
2 0 4 8 1 o 7536.1216 7081.7114 1.84 1.69990
2 0 0 6 3 o 1.9841 1.8637 347.88 1.69875
5 1 2 8 4 o 45583.5781 39062.8594 182.57 1.69811
0 0 3 2 3 o 0.0000 0.0000 180.00 1.68655
2 3 4 8 4 o 85364.4141 72025.3438 2.75 1.68159
3 1 1 24 2 o 18522.8418 18106.4043 2.55 1.68016
1 4 1 8 4 o 217.3051 171.7402 0.08 1.67333
1 2 6 8 4 o 1293.7551 1022.4732 1.61 1.67259
5 0 3 4 4 o 27.7270 27.7270 198.50 1.66222
3 3 3 8 4 o 7405.8931 7405.8931 183.35 1.66159
0 4 2 4 4 o 19492.5000 19492.5000 2.92 1.65063
1 0 7 4 4 o 13765.3682 13765.3682 2.97 1.65018
3 0 6 4 4 o 12848.3809 12848.3809 182.73 1.64873
4 0 5 4 4 o 82075.8281 82075.8281 182.94 1.64140
0 3 5 4 4 o 26762.6465 26762.6465 2.78 1.64079
3 2 5 8 4 o 299.0522 928.5427 182.05 1.63823
0 1 7 4 4 o 153046.3438 153046.3438 2.57 1.62976
1 4 2 8 4 o 5149.7100 13634.4316 2.34 1.62457
4 3 0 4 4 o 12109.6025 20408.0332 2.27 1.62222
5 1 3 8 4 o 1710.7052 1798.2726 182.24 1.61574
1 3 5 8 4 o 9523.1504 9826.7393 2.21 1.61520
2 4 0 4 4 o 1008.7246 937.5304 182.68 1.61063
2 0 1 12 3 o 188.0848 194.9991 94.59 1.61040
2 2 2 8 2 o 26602.0762 26901.0547 2.10 1.60863
4 3 1 8 4 o 29251.2793 25650.2109 182.48 1.60696
1 1 7 8 4 o 10455.6836 8960.9951 182.49 1.60467
5 2 1 8 4 o 4118.4727 3526.6094 183.18 1.60455
3 1 6 8 4 o 83242.8672 70876.0391 182.66 1.60333
4 2 4 8 4 o 14149.7217 12121.4521 182.60 1.60046
4 1 5 8 4 o 5.2296 4.6626 13.18 1.59659
2 4 1 8 4 o 21562.0996 19431.6309 2.63 1.59569
2 2 6 8 4 o 27258.0801 24741.4160 182.43 1.59505
1 1 6 8 1 o 30927.5156 30374.8457 2.54 1.59295
2 0 7 4 4 o 13054.5586 13565.6201 182.59 1.57558
4 3 2 8 4 o 16067.5088 21225.9180 183.20 1.56363
5 2 2 8 4 o 60440.8125 73481.5156 2.62 1.56141
5 0 4 4 4 o 9719.5693 9459.5635 183.02 1.55663
3 3 4 8 4 o 46736.6016 44886.2109 182.47 1.55611
2 4 2 8 4 o 9148.5352 8342.9189 182.69 1.55325
1 4 3 8 4 o 3956.9329 3522.4746 2.82 1.55201
1 1 2 12 3 o 1321.2362 1180.4143 3.37 1.55016
2 3 5 8 4 o 795.4966 557.5982 183.82 1.54504
2 1 7 8 4 o 4302.5166 4114.2866 2.24 1.53582
6 0 0 2 4 o 68614.2344 92150.2734 2.53 1.53000
5 1 4 8 4 o 25247.5078 22920.7988 2.72 1.51826
6 0 1 4 4 o 284.6630 260.3958 186.34 1.51718
1 0 3 12 3 o 187.9654 187.9120 274.68 1.51066
2 2 0 4 1 o 27435.9004 28750.7520 2.67 1.50845
1 0 7 8 1 o 975.6638 933.2158 1.56 1.50449
4 3 3 8 4 o 11335.2715 11882.1719 182.71 1.49861
5 2 3 8 4 o 50615.4609 58644.4336 182.93 1.49666
6 1 0 4 4 o 45953.4453 57527.3984 182.74 1.49352
2 4 3 8 4 o 57068.4258 52832.7812 2.77 1.48946
4 0 6 4 4 o 53691.7344 47955.5078 2.55 1.48915
1 2 7 8 4 o 11.3988 8.6599 182.65 1.48785
3 4 1 8 4 o 64526.8672 45648.5586 182.71 1.48730
3 2 6 8 4 o 784.1105 519.3356 1.84 1.48678
0 4 4 4 4 o 25426.4668 12462.5801 182.48 1.48404
6 1 1 8 4 o 3624.6035 1689.6007 2.87 1.48158
4 2 5 8 4 o 765.0012 361.1391 184.93 1.48141
6 0 2 4 4 o 4789.3555 2541.7102 182.84 1.48056
3 0 7 4 4 o 59.3723 59.3723 349.57 1.47097
1 3 6 8 4 o 3222.1494 3222.1494 2.82 1.46950
0 0 8 2 4 o 17322.6094 17322.6094 182.36 1.46782
1 4 4 8 4 o 17541.4316 16015.5713 2.66 1.46502
2 2 2 8 1 o 192.3868 197.3241 183.77 1.45701
2 1 5 16 1 o 1606.2823 1605.7628 2.05 1.45548
4 1 6 8 4 o 1298.8016 1087.7450 1.97 1.45545
3 4 2 8 4 o 8683.1650 7598.0020 183.34 1.45275
1 0 8 4 4 o 24851.0078 24966.7246 182.64 1.44941
6 1 2 8 4 o 71.3379 86.1724 359.11 1.44742
5 0 5 4 4 o 21875.5020 29971.8828 182.59 1.44645
3 3 5 8 4 o 6671.0068 9692.9336 183.21 1.44603
3 1 7 8 4 o 1880.6865 1587.4127 3.91 1.43846
2 2 7 8 4 o 4723.4702 3480.6711 2.12 1.43248
6 0 3 4 4 o 1985.9885 2236.1384 181.87 1.42501
5 3 1 8 4 o 20341.5781 23683.5703 2.77 1.42271
4 3 4 8 4 o 31077.2871 35160.6719 182.96 1.41986
1 1 8 8 4 o 56.1621 61.8343 355.05 1.41828
5 2 4 8 4 o 4104.3052 4511.6021 2.92 1.41819
2 3 6 8 4 o 12698.2480 13399.1855 2.34 1.41608
5 1 5 8 4 o 67253.2109 70206.1328 2.65 1.41550
2 4 4 8 4 o 797.0298 789.6034 184.49 1.41207
3 0 1 8 1 o 603.4983 586.1400 1.39 1.41096
2 0 2 12 3 o 4748.1641 4634.7505 182.68 1.41030
2 0 6 8 1 o 3295.4705 3215.2534 3.19 1.40864
0 0 8 2 1 o 10653.3477 10364.6914 2.35 1.40680
3 4 3 8 4 o 178.6214 152.3422 358.98 1.40016
2 0 8 4 4 o 25845.7168 22712.0059 182.56 1.39808
6 2 0 4 4 o 13498.2754 11893.4395 181.66 1.39796
6 1 3 8 4 o 5484.0986 5404.6162 181.41 1.39539
4 0 0 6 2 o 21338.3691 23201.7773 2.26 1.39311
5 3 2 8 4 o 1569.6744 2286.7373 184.70 1.39238
6 2 1 8 4 o 23343.1758 23343.1758 183.08 1.38816
4 4 0 4 4 o 6157.6104 4418.8862 182.62 1.37636
1 4 5 8 4 o 1119.0856 1119.0856 180.49 1.37206
2 1 8 8 4 o 1361.0183 1361.0183 2.58 1.37007
4 4 1 8 4 o 305.4209 305.4209 181.49 1.36700
0 5 1 4 4 o 49533.2383 49533.2383 183.06 1.36665
4 2 6 8 4 o 28362.1133 28362.1133 182.57 1.36660
6 2 2 8 4 o 190.5883 220.7915 183.86 1.35995
6 0 4 4 4 o 9242.4404 8950.4600 182.54 1.35679
4 0 7 4 4 o 3322.8457 3054.1890 1.13 1.35430
0 3 7 4 4 o 155807.4062 142707.2969 182.94 1.35395
3 2 7 8 4 o 58994.3125 53280.9297 182.95 1.35251
1 5 1 8 4 o 9225.7910 8262.8828 184.27 1.35175
0 2 8 4 4 o 39352.3672 34298.8633 2.87 1.35006
3 1 0 8 1 o 5279.7671 5024.8096 3.22 1.34920
5 3 3 8 4 o 1770.8550 1427.1168 183.75 1.34588
4 4 2 8 4 o 4225.7002 3300.3384 182.48 1.34003
1 3 7 8 4 o 13552.8730 10660.7715 183.95 1.33946
5 0 6 4 4 o 623.6085 494.3135 183.22 1.33901
3 3 6 8 4 o 12682.0742 10120.9727 2.49 1.33868
1 2 8 8 4 o 9517.4141 8337.6650 184.48 1.33569
3 4 4 8 4 o 4327.3755 3850.0447 183.82 1.33529
4 3 5 8 4 o 33.4076 30.3534 1.95 1.33475
5 2 5 8 4 o 22358.1777 21472.3203 2.71 1.33337
6 1 4 8 4 o 277.1928 290.3600 1.84 1.33115
3 0 3 8 1 o 10890.0527 11021.3604 2.97 1.32983
2 2 4 8 1 o 3896.3845 3964.9705 2.10 1.32944
4 1 7 8 4 o 389.7353 440.2507 2.25 1.32880
2 4 5 8 4 o 5999.8682 6851.8428 3.20 1.32827
1 5 2 8 4 o 1364.5284 1540.1062 181.90 1.32566
3 0 8 4 4 o 7947.8813 8121.0801 3.62 1.32344
2 5 0 4 4 o 1887.7239 1610.3480 0.71 1.31805
6 2 3 8 4 o 1012.0201 873.2452 185.53 1.31652
5 1 6 8 4 o 5490.0713 4909.3491 4.20 1.31435
3 1 2 16 1 o 4669.3413 4308.8848 2.22 1.31201
2 5 1 8 4 o 7490.8467 5859.4106 3.10 1.30982
7 0 1 4 4 o 544.8375 300.4013 0.67 1.30333
3 1 8 8 4 o 37837.9883 23587.1289 182.69 1.29961
2 3 7 8 4 o 1551.0939 1049.8464 4.13 1.29863
4 4 3 8 4 o 10179.7822 7039.2480 182.35 1.29843
0 5 3 4 4 o 55676.5312 39851.7305 182.87 1.29812
2 2 8 8 4 o 2245.7705 3379.4666 1.84 1.29519
0 4 6 4 4 o 27506.2305 27506.2305 182.96 1.29196
1 0 9 4 4 o 63.5171 63.5171 353.23 1.29175
5 3 4 8 4 o 330.1326 330.1326 5.46 1.28796
2 5 2 8 4 o 3317.9758 3317.9758 2.75 1.28604
1 5 3 8 4 o 3345.5872 3345.5872 3.82 1.28534
2 1 0 12 3 o 0.2226 0.3857 332.51 1.28413
6 0 5 4 4 o 13087.3135 24824.2148 3.72 1.28195
0 1 9 4 4 o 2871.4089 5311.9404 3.58 1.28188
7 1 1 8 4 o 620.1089 832.5810 0.21 1.28055
7 0 2 4 4 o 5225.9434 6316.3652 183.54 1.27989
1 4 6 8 4 o 1199.9727 1349.8873 4.64 1.27935
1 1 3 12 3 o 0.0000 0.0000 0.00 1.27884
3 3 1 24 2 o 13972.8408 14558.6943 2.84 1.27841
1 1 8 8 1 o 1.1920 1.0446 354.80 1.27499
6 3 0 4 4 o 612.2377 438.1985 359.40 1.27275
1 1 9 8 4 o 20013.8613 14474.3086 3.07 1.26957
6 3 1 8 4 o 10906.2900 10037.8252 183.66 1.26534
0 0 4 2 3 o 8997.8076 9007.2363 2.97 1.26492
3 4 5 8 4 o 6897.9307 7163.0889 2.50 1.26377
6 2 4 8 4 o 891.4542 1044.3314 186.01 1.26216
6 1 5 8 4 o 640.0261 905.0684 5.29 1.26026
4 2 7 8 4 o 1030.9044 1480.4471 6.55 1.26016
7 1 2 8 4 o 19855.6699 46937.5742 182.87 1.25830
2 0 9 4 4 o 52804.4297 52804.4297 183.01 1.25501
2 5 3 8 4 o 0.6034 1.0165 239.83 1.24913
4 3 6 8 4 o 8322.8145 13489.4189 4.04 1.24895
5 4 1 8 4 o 12623.6533 17720.1406 3.44 1.24812
3 5 1 8 4 o 669.0480 904.8573 3.00 1.24785
5 2 6 8 4 o 560.4995 754.5104 183.33 1.24782
4 4 4 8 4 o 6702.0933 7613.2021 2.87 1.24619
4 2 0 24 2 o 19356.3828 20518.6406 2.41 1.24604
2 1 1 24 3 o 158.6025 163.0246 275.02 1.24467
6 3 2 8 4 o 4458.3398 4219.3765 3.84 1.24386
2 4 6 8 4 o 986.9187 918.9137 1.24 1.24363
7 0 3 4 4 o 8820.5117 8130.2188 2.95 1.24349
5 0 7 4 4 o 18074.2324 13831.0303 3.37 1.23843
3 3 7 8 4 o 2654.5955 2035.7817 3.09 1.23816
4 0 8 4 4 o 16554.4316 13223.7295 182.62 1.23654
3 2 8 8 4 o 914.6857 776.2300 2.86 1.23518
2 1 9 8 4 o 17951.1484 15681.4199 182.41 1.23464
1 5 4 8 4 o 2925.8301 2560.7598 4.50 1.23460
2 1 7 16 1 o 635.1643 699.9934 1.77 1.22949
5 4 2 8 4 o 25126.2344 35508.2070 182.92 1.22749
3 5 2 8 4 o 33168.7188 47156.2969 3.06 1.22724
1 3 8 8 4 o 4184.8579 5694.1885 182.69 1.22522
7 1 3 8 4 o 8142.1553 9970.1631 182.62 1.22367
5 3 5 8 4 o 40311.0508 48502.5352 182.88 1.22343
5 1 7 8 4 o 7964.7603 7343.3403 3.14 1.21884
7 2 1 8 4 o 12667.8486 11641.8779 183.08 1.21878
4 1 8 8 4 o 1699.2610 1369.4662 2.14 1.21704
3 1 4 16 1 o 156.3851 141.1296 184.83 1.21656
6 3 3 8 4 o 769.6451 426.8142 357.10 1.21037
1 2 9 8 4 o 4861.6528 2796.6108 182.20 1.20930
6 0 6 4 4 o 12318.8496 9075.4023 4.07 1.20537
2 5 4 8 4 o 6458.5156 5822.2886 182.57 1.20241
3 0 5 8 1 o 1347.0291 1143.3744 2.26 1.20230
6 2 5 8 4 o 2805.8291 2704.5251 3.00 1.20125
3 0 9 4 4 o 7446.9595 7570.0303 3.93 1.20019
1 0 9 8 1 o 6692.4648 6219.0059 3.00 1.20001
7 2 2 8 4 o 18607.6621 19421.9941 183.51 1.19955
7 0 4 4 4 o 73805.0781 80136.6562 3.11 1.19738
2 0 3 12 3 o 167.1215 157.2723 95.11 1.19686
5 4 3 8 4 o 4838.9868 4912.9189 3.32 1.19527
3 5 3 8 4 o 581.5233 583.3317 183.48 1.19504
2 3 8 8 4 o 4292.6699 4021.3799 183.34 1.19374
1 4 7 8 4 o 200.5670 159.3484 5.42 1.19077
3 4 6 8 4 o 1322.8073 1020.6978 183.10 1.19022
4 4 5 8 4 o 7877.1909 5608.1973 183.33 1.18746
6 1 6 8 4 o 9867.0791 7019.4141 183.42 1.18729
0 5 5 4 4 o 38745.5781 27559.1855 3.79 1.18723
1 0 4 12 3 o 0.2803 0.2079 321.04 1.18542
3 1 9 8 4 o 7571.2451 6226.5815 183.61 1.18233
4 5 0 4 4 o 37267.4258 34593.4219 4.16 1.18014
7 1 4 8 4 o 11812.1445 11260.5801 183.75 1.17965
2 2 9 8 4 o 6435.2944 6347.7017 2.21 1.17900
1 5 5 8 4 o 8353.5625 8813.2158 182.58 1.17742
3 2 1 16 1 o 442.8320 460.0375 1.59 1.17684
2 2 6 8 1 o 2397.8977 2522.4353 3.37 1.17549
2 0 8 8 1 o 5946.1987 6128.3394 2.62 1.17442
0 0 10 2 4 o 4093.0273 4364.4819 0.58 1.17426
4 5 1 8 4 o 2405.8127 2562.6321 2.77 1.17422
7 2 3 8 4 o 4329.8584 3725.5073 4.36 1.16943
6 3 4 8 4 o 14829.4541 12526.6973 3.95 1.16773
4 3 7 8 4 o 151.5376 125.8261 2.68 1.16614
5 2 7 8 4 o 19493.4746 15889.1514 3.82 1.16522
1 0 10 4 4 o 1024.6465 827.0866 4.66 1.16477
4 2 8 8 4 o 12290.1904 9725.2402 2.79 1.16365
2 4 7 8 4 o 9943.0430 7871.0962 182.72 1.16181
4 5 2 8 4 o 197.2229 204.7851 6.19 1.15700
5 3 6 8 4 o 338.2465 363.4297 2.13 1.15634
5 4 4 8 4 o 11330.0645 12398.9834 183.15 1.15415
3 5 4 8 4 o 751.3510 818.4742 186.73 1.15394
2 5 5 8 4 o 24382.3438 23877.6074 183.80 1.14940
1 1 10 8 4 o 8537.7012 8342.0430 2.55 1.14843
8 0 0 2 4 o 45297.7578 44506.0938 184.01 1.14750
0 6 0 2 4 o 114440.6953 113466.1250 183.48 1.14667
5 0 8 4 4 o 39423.3320 39179.4219 3.12 1.14647
3 3 8 8 4 o 93843.3984 93505.4141 3.34 1.14627
2 1 2 24 3 o 3516.3867 3483.4878 183.09 1.14506
7 0 5 4 4 o 65409.5273 66163.4609 183.07 1.14501
6 4 0 4 4 o 12132.8125 12464.6748 2.43 1.14317
8 0 1 4 4 o 25574.3418 26402.7676 2.72 1.14206
6 4 1 8 4 o 907.3741 933.5699 3.72 1.13779
2 0 10 4 4 o 51816.5820 53302.3789 3.58 1.13762
6 2 6 8 4 o 1310.7559 1348.3041 2.20 1.13756
4 2 2 24 2 o 18465.5195 18452.7207 2.54 1.13747
4 0 9 4 4 o 462.7987 478.1642 2.79 1.13425
0 3 9 4 4 o 67209.9062 69466.3906 183.63 1.13404
3 2 9 8 4 o 2769.6902 2868.5496 3.11 1.13320
7 3 1 8 4 o 11178.5820 11581.1123 182.97 1.13312
1 6 1 8 4 o 3847.3110 3995.4355 182.62 1.13252
3 0 0 6 3 o 7690.6294 7685.8022 3.22 1.13250
8 1 0 4 4 o 466.3903 485.0285 2.60 1.13187
5 1 8 8 4 o 8879.5508 9234.2773 3.44 1.13088
7 2 4 8 4 o 17543.9766 18244.5469 182.79 1.13084
6 0 7 4 4 o 13624.6816 14160.8535 2.83 1.13043
4 5 3 8 4 o 11542.8350 11977.6631 3.01 1.12990
7 1 5 8 4 o 386.1702 400.0699 184.17 1.12947
3 2 3 16 1 o 7128.0073 7152.0479 3.25 1.12852
8 1 1 8 4 o 15672.8311 15748.0342 3.24 1.12664
8 0 2 4 4 o 8420.0439 8399.1221 183.20 1.12619
4 4 6 8 4 o 15106.3379 14976.5840 2.95 1.12583
1 3 9 8 4 o 105.5848 104.0588 178.20 1.12549
0 0 10 2 1 o 40.5748 39.9197 185.94 1.12544
0 6 2 4 4 o 18601.2734 18304.2598 183.22 1.12540
2 1 10 8 4 o 48518.1797 44116.7539 3.38 1.12238
6 4 2 8 4 o 873.1429 787.0479 2.88 1.12210
4 1 9 8 4 o 36901.2578 32222.2539 182.86 1.11914
6 3 5 8 4 o 5466.6328 4788.0479 3.18 1.11899
3 4 7 8 4 o 11083.1816 10094.4229 2.98 1.11791
7 3 2 8 4 o 85598.2188 79165.5703 3.36 1.11762
1 5 6 8 4 o 3613.0042 3414.7686 3.33 1.11726
1 6 2 8 4 o 113.4472 108.8223 173.95 1.11704
0 4 8 4 4 o 5396.7388 5378.2915 183.30 1.11652
6 1 7 8 4 o 20381.1641 22091.5312 2.57 1.11548
2 6 0 4 4 o 29997.0508 31565.9180 3.31 1.11248
8 1 2 8 4 o 15132.0820 14010.1045 2.81 1.11140
0 2 10 4 4 o 92828.3516 84820.7578 183.16 1.11130
1 4 8 8 4 o 117.7741 78.6928 171.65 1.10836
2 6 1 8 4 o 2723.9314 1719.4969 182.48 1.10752
5 4 5 8 4 o 11813.7588 7287.8813 183.12 1.10703
3 5 5 8 4 o 5745.9155 3520.7412 4.18 1.10684
3 0 1 12 3 o 0.0000 0.0000 180.00 1.10515
1 2 10 8 4 o 988.0579 647.6617 185.05 1.10324
8 0 3 4 4 o 1266.7214 972.9277 1.15 1.10116
2 3 9 8 4 o 46130.1094 36108.7383 3.27 1.10094
6 4 3 8 4 o 258.7661 265.4137 6.97 1.09733
3 0 10 4 4 o 1219.2892 1301.4338 3.17 1.09631
5 5 1 8 4 o 11523.7637 12310.9121 182.92 1.09628
3 1 6 16 1 o 10827.5469 10818.6650 3.16 1.09529
4 5 4 8 4 o 2125.0486 2325.0730 185.27 1.09497
2 5 6 8 4 o 48327.6367 52694.4766 183.39 1.09324
7 3 3 8 4 o 40076.7070 43650.7695 3.54 1.09314
2 6 2 8 4 o 0.2353 0.2560 166.96 1.09303
1 6 3 8 4 o 2870.1741 3102.9192 2.94 1.09260
5 3 7 8 4 o 2137.1013 2147.0283 182.77 1.08969
7 0 6 4 4 o 503.8673 503.7182 8.39 1.08945
8 2 0 4 4 o 315.8337 313.6095 181.26 1.08854
4 3 8 8 4 o 1841.7683 1830.7091 4.69 1.08841
5 2 8 8 4 o 17953.6504 18189.0840 182.95 1.08766
8 1 3 8 4 o 176.5762 181.9386 5.00 1.08732
7 2 5 8 4 o 49758.7539 55212.6484 3.19 1.08641
2 4 8 8 4 o 202.7116 276.6922 181.56 1.08489
8 2 1 8 4 o 5828.1333 9297.2051 182.31 1.08389
3 1 10 8 4 o 52.0695 92.4530 187.35 1.08265
5 5 2 8 4 o 14095.3135 24933.1035 183.71 1.08222
2 2 10 8 4 o 597.4474 831.9270 183.07 1.08009
4 2 9 8 4 o 23731.6074 25478.2949 4.12 1.07720
7 1 6 8 4 o 3231.4199 3319.7209 183.61 1.07604
6 2 7 8 4 o 25601.1504 25887.8086 183.29 1.07393
3 3 3 8 2 o 12113.6670 12290.4414 3.09 1.07242
5 1 1 24 2 o 12113.6670 12290.4414 3.09 1.07242
8 2 2 8 4 o 21586.4121 22764.9668 3.63 1.07030
2 6 3 8 4 o 29741.1211 31378.4238 183.24 1.07010
3 6 1 8 4 o 39669.9062 41832.1055 3.48 1.06929
8 0 4 4 4 o 13839.0576 14557.6289 3.86 1.06875
0 6 4 4 4 o 29765.3105 31184.7227 3.41 1.06808
6 3 6 8 4 o 3839.6121 3984.0654 183.90 1.06697
4 0 0 4 1 o 10630.9902 10550.5352 3.29 1.06664
6 4 4 8 4 o 316.8140 323.0935 179.03 1.06525
3 0 7 8 1 o 545.7024 545.0526 1.95 1.06523
4 4 7 8 4 o 825.1550 828.9673 187.36 1.06405
0 5 7 4 4 o 33464.6211 33531.1055 3.35 1.06388
5 0 9 4 4 o 2094.2227 2086.4565 185.23 1.06354
3 3 9 8 4 o 337.1526 334.8971 4.04 1.06337
1 1 4 12 3 o 7120.4253 6963.2534 3.38 1.06305
7 3 4 8 4 o 4808.0259 4579.7451 3.62 1.06142
1 6 4 8 4 o 24684.9648 23223.1602 183.48 1.06092
1 0 11 4 4 o 26688.0488 24761.1465 183.64 1.06036
5 5 3 8 4 o 100.0521 91.8675 1.25 1.05995
6 0 8 4 4 o 5601.7212 5054.8740 182.61 1.05921
1 5 7 8 4 o 21232.1816 18404.7090 183.52 1.05681
5 4 6 8 4 o 1467.4587 1269.0046 3.03 1.05658
3 5 6 8 4 o 35146.3477 30347.1875 183.68 1.05642
3 6 2 8 4 o 74.5964 64.3116 7.77 1.05623
8 1 4 8 4 o 3411.3154 2937.3904 182.23 1.05609
0 1 11 4 4 o 7972.1592 6817.7363 3.71 1.05488
4 5 5 8 4 o 2608.5549 2229.6260 3.61 1.05449
1 1 10 8 1 o 4461.1582 3883.7844 2.67 1.05446
5 1 9 8 4 o 18530.7988 16268.6045 183.20 1.05105
3 4 8 8 4 o 268.2613 248.7576 5.34 1.04888
8 2 3 8 4 o 519.0612 483.4286 179.67 1.04874
4 0 2 8 1 o 0.4713 0.4318 328.82 1.04797
1 1 11 8 4 o 29780.1758 28338.0098 3.26 1.04799
3 2 5 16 1 o 895.8102 843.4341 2.45 1.04740
6 1 8 8 4 o 7639.1343 7441.2168 3.02 1.04687
2 1 9 16 1 o 4202.2764 4179.6553 3.25 1.04589
4 0 10 4 4 o 1985.5161 1931.7861 184.01 1.04537
3 2 10 8 4 o 892.1462 851.9240 183.35 1.04455
2 6 4 8 4 o 1823.8662 1439.9495 183.01 1.04029
2 0 11 4 4 o 21132.5605 16344.9443 3.71 1.03976
7 4 1 8 4 o 8871.0957 6699.3218 3.08 1.03878
7 2 6 8 4 o 8429.8584 6353.7979 2.88 1.03861
1 3 10 8 4 o 4213.5088 3173.3992 182.59 1.03850
2 5 7 8 4 o 1303.1051 1030.8606 182.60 1.03640
3 6 3 8 4 o 1273.3656 1065.6135 184.34 1.03550
3 0 2 12 3 o 762.7790 734.0645 4.28 1.03365
4 1 10 8 4 o 28595.5996 28391.6426 183.23 1.03351
7 0 7 4 4 o 15327.6455 15712.6055 183.85 1.03318
1 4 9 8 4 o 51.9127 54.7063 356.39 1.03289
8 0 5 4 4 o 5032.5044 6228.0391 183.82 1.03101
5 5 4 8 4 o 3979.9741 4942.5151 4.39 1.03095
4 1 1 16 1 o 332.0939 369.4996 1.78 1.03044
2 2 8 8 1 o 3409.6406 3807.1533 2.86 1.02882
2 1 11 8 4 o 1.0666 1.3028 251.12 1.02808
6 4 5 8 4 o 1587.9873 1915.7633 4.47 1.02787
7 4 2 8 4 o 6112.0547 6979.7075 3.40 1.02680
8 3 0 4 4 o 266.3589 298.3614 180.10 1.02621
4 6 0 4 4 o 10838.9297 12058.5010 2.89 1.02576
5 3 8 8 4 o 57253.7266 63629.9219 183.92 1.02547
7 3 5 8 4 o 2120.3354 2386.0557 3.52 1.02442
1 6 5 8 4 o 1157.3007 1310.8281 184.97 1.02397
6 5 0 4 4 o 27485.2832 30924.3184 183.82 1.02310
8 3 1 8 4 o 1741.9711 1863.9385 5.15 1.02231
4 6 1 8 4 o 978.2116 996.2734 186.41 1.02187
7 1 7 8 4 o 12274.3545 12262.6338 183.32 1.02172
2 1 3 24 3 o 141.3776 131.6850 275.59 1.02169
8 2 4 8 4 o 4775.7744 4023.0828 4.21 1.02063
8 1 5 8 4 o 19112.5957 13777.7793 183.87 1.01963
6 5 1 8 4 o 8682.6113 5948.8994 183.15 1.01924
2 3 10 8 4 o 11269.2217 7605.6274 182.92 1.01912
4 3 9 8 4 o 24707.4688 14024.8477 2.91 1.01669
9 0 1 4 4 o 14202.7402 7956.9053 182.72 1.01617
5 2 9 8 4 o 11135.6221 6227.6294 183.43 1.01608
2 0 4 12 3 o 0.1409 0.0863 282.62 1.01455
6 3 7 8 4 o 36740.0977 20478.4668 182.97 1.01394
2 4 9 8 4 o 21747.6191 12138.3916 183.09 1.01382
1 2 11 8 4 o 12618.7744 7091.4795 3.77 1.01331
6 2 8 8 4 o 15168.6855 8674.9580 3.25 1.01231
0 0 5 2 3 o 0.0000 0.0000 180.00 1.01193
8 3 2 8 4 o 16448.7480 9754.4287 183.11 1.01088
4 5 6 8 4 o 24829.0527 14853.4131 3.35 1.01062
4 6 2 8 4 o 93.2820 56.1303 3.05 1.01045
3 6 4 8 4 o 15936.2979 10562.3115 4.11 1.00841
3 0 11 4 4 o 14800.3506 10071.4502 181.65 1.00793
6 5 2 8 4 o 1038.9025 707.6088 183.47 1.00792
7 4 3 8 4 o 2395.6379 1649.3928 184.20 1.00772
3 3 0 4 1 o 3040.2087 2694.7300 3.67 1.00563
2 6 5 8 4 o 25517.8008 19705.3320 183.93 1.00538
9 1 1 8 4 o 66158.5234 51328.8594 3.69 1.00527
5 4 7 8 4 o 2852.2388 2235.2009 184.01 1.00502
9 0 2 4 4 o 19570.8965 15379.4170 4.34 1.00495
3 5 7 8 4 o 7518.5879 5925.0288 4.28 1.00488
4 4 8 8 4 o 1556.5713 1267.8593 183.07 1.00401
4 2 10 8 4 o 998.8727 974.3972 3.62 1.00020
1 5 8 8 4 o 228.1825 254.8489 188.83 0.99792
4 1 3 16 1 o 4451.4585 4770.2500 3.52 0.99753
4 0 4 8 1 o 1415.7551 1528.2971 2.50 0.99737
3 1 11 8 4 o 2605.6179 2992.6799 185.33 0.99729
5 5 5 8 4 o 21471.1289 24951.8145 3.33 0.99695
2 0 10 8 1 o 0.1167 0.1313 277.94 0.99541
2 2 11 8 4 o 1.3975 1.6699 154.00 0.99529
1 0 11 8 1 o 1429.3188 1560.0330 2.89 0.99492
9 1 2 8 4 o 1351.1079 1615.1758 2.39 0.99440
6 0 9 4 4 o 8721.0635 10381.8955 183.68 0.99277
8 3 3 8 4 o 778.8689 927.3592 3.99 0.99266
4 6 3 8 4 o 773.2930 922.4725 1.16 0.99225
3 3 2 8 1 o 1615.0668 1679.9437 2.64 0.98995
8 0 6 4 4 o 7.1985 9.1707 205.95 0.98989
6 5 3 8 4 o 1606.5925 2050.8936 181.36 0.98985
7 2 7 8 4 o 63.1589 81.7583 0.76 0.98951
0 6 6 4 4 o 9875.9932 12863.1709 2.79 0.98936
5 0 10 4 4 o 8248.3096 10793.5391 3.17 0.98924
3 3 10 8 4 o 985.6366 1296.2211 4.24 0.98910
8 2 5 8 4 o 281.3610 382.4564 3.71 0.98761
6 4 6 8 4 o 365.2679 496.5886 179.77 0.98711
9 0 3 4 4 o 4874.7080 6623.2847 3.19 0.98704
4 4 0 12 2 o 14340.5049 15414.4814 2.78 0.98508
3 4 9 8 4 o 383.7915 490.6863 181.36 0.98425
7 3 6 8 4 o 362.0699 460.4195 183.96 0.98406
1 6 6 8 4 o 6098.0688 7676.7539 184.67 0.98366
7 4 4 8 4 o 12520.8613 15415.5166 3.46 0.98271
6 1 9 8 4 o 1247.8070 1532.0896 184.65 0.98259
2 2 0 6 3 o 6257.7612 6091.8364 3.61 0.98077
2 5 8 8 4 o 95.4917 108.3692 184.33 0.98069
8 1 6 8 4 o 14193.5801 14914.3652 182.54 0.97980
0 7 1 4 4 o 11628.4131 11716.3516 2.79 0.97943
5 1 10 8 4 o 17950.5059 17498.7852 3.55 0.97917
0 0 12 2 4 o 12298.6318 11022.0752 3.32 0.97855
7 0 8 4 4 o 23298.8496 19134.8105 183.60 0.97796
9 1 3 8 4 o 16801.0605 12053.1738 183.11 0.97703
3 6 5 8 4 o 27104.4121 18169.1680 182.94 0.97653
9 2 1 8 4 o 7618.0957 4291.7988 2.38 0.97454
1 7 1 8 4 o 624.5220 345.8425 179.24 0.97390
3 1 8 16 1 o 169.9470 90.5433 1.81 0.97375
1 0 12 4 4 o 45337.4141 25353.9727 3.81 0.97304
1 0 5 12 3 o 152.2897 122.5799 275.79 0.96983
0 4 10 4 4 o 23500.4629 18634.9121 3.07 0.96980
5 6 1 8 4 o 40513.9336 34993.7461 184.02 0.96925
8 3 4 8 4 o 484.3008 447.2833 359.56 0.96872
4 6 4 8 4 o 4558.4023 4344.2695 183.24 0.96835
7 1 8 8 4 o 20754.7871 19905.0918 3.47 0.96822
4 0 11 4 4 o 14516.6738 14018.9404 184.29 0.96792
0 3 11 4 4 o 5896.4526 5691.3906 4.29 0.96780
3 2 11 8 4 o 39902.4609 37615.1172 3.06 0.96727
2 6 6 8 4 o 6359.8223 5938.6460 4.53 0.96715
6 5 4 8 4 o 4343.0928 3621.1516 3.73 0.96611
4 5 7 8 4 o 7064.6289 5296.0356 183.16 0.96521
5 3 9 8 4 o 10493.4492 7563.5771 3.18 0.96483
9 2 2 8 4 o 7291.2808 5157.4937 4.12 0.96463
1 4 10 8 4 o 435.4664 302.9653 6.53 0.96443
1 7 2 8 4 o 6934.2935 4675.1821 184.45 0.96401
9 0 4 4 4 o 4226.6025 2769.2437 1.01 0.96350
1 1 12 8 4 o 14545.7041 9508.0576 182.35 0.96345
2 2 1 12 3 o 0.0000 0.0000 180.00 0.96285
1 3 11 8 4 o 6045.4727 3856.5447 182.28 0.96246
6 3 8 8 4 o 14306.5557 9232.5264 183.71 0.96160
2 7 0 4 4 o 39707.0586 26189.5215 183.36 0.96107
5 5 6 8 4 o 32827.1016 24164.8379 4.19 0.95963
5 6 2 8 4 o 16507.1426 12326.5176 3.31 0.95949
4 1 11 8 4 o 4854.3013 4083.6890 3.24 0.95848
2 7 1 8 4 o 9978.5283 9122.7129 3.83 0.95787
2 0 12 4 4 o 246.0285 252.5820 6.89 0.95704
8 4 0 4 4 o 7763.7900 9969.3613 184.41 0.95456
9 1 4 8 4 o 6905.7510 8850.3379 2.74 0.95419
4 2 0 8 1 o 6079.2207 6734.3511 3.57 0.95403
5 4 8 8 4 o 16414.1895 20920.3496 3.36 0.95397
3 5 8 8 4 o 4101.5664 5200.6260 182.38 0.95385
6 2 9 8 4 o 2594.4636 3288.1350 184.89 0.95384
0 7 3 4 4 o 6536.6084 7990.5352 3.12 0.95326
7 4 5 8 4 o 27128.2344 32814.4219 183.56 0.95313
3 2 7 16 1 o 390.5601 428.9020 2.13 0.95302
8 4 1 8 4 o 3802.1521 3878.3860 2.53 0.95143
8 2 6 8 4 o 25219.1367 25349.9492 183.96 0.95129
4 3 10 8 4 o 396.9916 395.3888 190.60 0.95121
5 2 10 8 4 o 9055.4688 8547.5283 183.27 0.95071
2 4 10 8 4 o 3435.6560 2734.2932 4.77 0.94885
9 2 3 8 4 o 2254.0964 1780.9017 182.62 0.94876
2 7 2 8 4 o 14.8703 11.4980 174.07 0.94845
1 7 3 8 4 o 10772.6611 8181.8530 4.17 0.94816
2 1 12 8 4 o 26945.7715 20173.4102 3.69 0.94791
8 0 7 4 4 o 79.7653 57.7104 5.57 0.94711
3 3 4 8 1 o 0.2548 0.1923 268.33 0.94696
2 3 11 8 4 o 9920.8467 7150.0630 183.81 0.94697
4 4 9 8 4 o 3303.7612 2376.4163 185.71 0.94689
0 5 9 4 4 o 14988.1436 10754.5283 3.20 0.94678
7 5 1 8 4 o 1891.9191 1350.6066 186.30 0.94624
6 4 7 8 4 o 11031.9971 8177.2080 3.62 0.94467
5 6 3 8 4 o 7813.1357 6039.8018 3.81 0.94387
3 1 0 12 3 o 0.0957 0.0825 266.45 0.94229
8 4 2 8 4 o 9103.9707 7937.0488 184.11 0.94219
7 3 7 8 4 o 1603.3676 1420.0531 186.28 0.94200
5 3 1 48 2 o 12168.7012 10602.1914 3.33 0.94192
1 5 9 8 4 o 21952.8750 19772.3281 3.87 0.94178
1 6 7 8 4 o 220.0756 200.2208 188.59 0.94165
3 6 6 8 4 o 1274.0549 1182.2001 4.43 0.94138
0 2 12 4 4 o 1423.0599 1335.3258 181.70 0.94121
7 2 8 8 4 o 1203.4370 1163.2029 186.91 0.94068
4 2 2 16 1 o 16.0894 15.2841 357.86 0.94061
8 3 5 8 4 o 3527.1819 3451.0552 184.61 0.94035
3 0 3 12 3 o 0.0000 0.0000 180.00 0.94020
4 1 5 16 1 o 669.4363 632.2526 2.62 0.94019
4 6 5 8 4 o 20631.1777 20308.0332 4.28 0.94001
3 0 9 8 1 o 3019.8135 2871.3059 3.49 0.93910
8 1 7 8 4 o 1512.3927 1350.8223 185.95 0.93826
6 5 5 8 4 o 9424.6992 8138.7651 4.64 0.93796
0 0 12 2 1 o 6152.3032 6007.6343 3.35 0.93787
7 5 2 8 4 o 11836.5459 9270.9365 183.30 0.93716
1 2 12 8 4 o 1413.4154 1009.8540 6.64 0.93630
9 0 5 4 4 o 830.6365 561.0654 1.64 0.93557
2 7 3 8 4 o 178.2774 117.5753 12.56 0.93335
3 7 1 8 4 o 1088.9429 735.2116 4.66 0.93281
3 0 12 4 4 o 21254.4062 15076.7441 184.10 0.93205
4 2 11 8 4 o 3662.4595 2662.6414 184.41 0.93174
6 0 10 4 4 o 113.3072 83.8737 341.77 0.93153
9 3 1 8 4 o 11792.1475 10974.1543 183.59 0.92906
4 4 2 24 2 o 15692.0283 14248.2266 2.89 0.92874
6 0 0 6 2 o 15692.0283 14248.2266 2.89 0.92874
9 2 4 8 4 o 24504.4648 24237.3574 183.43 0.92779
8 4 3 8 4 o 2088.3530 2077.2676 1.64 0.92739
2 5 9 8 4 o 788.7089 784.9586 6.07 0.92726
1 7 4 8 4 o 3490.9812 3474.5198 2.03 0.92724
4 0 6 8 1 o 1591.3842 1503.2625 3.75 0.92721
2 6 7 8 4 o 12524.2891 12466.1846 3.33 0.92713
9 1 5 8 4 o 3.6091 3.5913 338.87 0.92704
3 1 1 24 3 o 129.6017 114.3781 96.00 0.92637
7 0 9 4 4 o 30429.2227 29331.7109 3.84 0.92494
3 4 10 8 4 o 170.1330 162.5655 4.23 0.92448
3 7 2 8 4 o 8454.0732 8010.9912 182.32 0.92411
3 1 12 8 4 o 3897.1467 3643.4539 184.00 0.92361
5 6 4 8 4 o 23986.9609 22088.8262 3.59 0.92322
6 1 10 8 4 o 278.0596 254.6602 11.28 0.92311
5 0 11 4 4 o 21461.3184 19393.7676 183.90 0.92285
3 3 11 8 4 o 452.1748 406.0138 6.95 0.92274
7 5 3 8 4 o 1900.8428 1689.4019 4.84 0.92258
2 2 12 8 4 o 4766.5371 4071.9929 185.09 0.92202
5 5 7 8 4 o 16125.7793 12153.5430 3.74 0.92051
9 3 2 8 4 o 1204.5035 903.8724 181.40 0.92045
7 4 6 8 4 o 9.4120 7.0109 161.71 0.92036
4 5 8 8 4 o 8.0356 5.7057 5.22 0.91973
10 0 0 2 4 o 17342.1797 11284.0625 5.19 0.91800
6 6 0 4 4 o 15697.1240 10104.6582 183.42 0.91757
7 1 9 8 4 o 6838.9575 4336.9854 4.27 0.91670
10 0 1 4 4 o 9244.8896 5739.3774 3.30 0.91521
6 6 1 8 4 o 9322.8887 5751.3765 3.74 0.91478
5 1 11 8 4 o 18731.3086 11532.8193 183.86 0.91466
2 2 2 12 3 o 866.4864 602.4967 4.72 0.91446
2 7 4 8 4 o 37114.7148 22313.2734 3.83 0.91337
8 2 7 8 4 o 908.7690 543.8361 3.13 0.91313
6 3 9 8 4 o 7408.5811 4330.6592 183.64 0.91107
3 7 3 8 4 o 8233.9697 4880.3149 184.13 0.91012
10 1 0 4 4 o 48516.8633 28915.6465 183.30 0.90994
8 3 6 8 4 o 23936.8633 15027.6592 2.99 0.90884
4 6 6 8 4 o 8291.2773 5315.5439 183.64 0.90853
5 3 10 8 4 o 16104.0752 10478.1143 183.88 0.90833
8 4 4 8 4 o 109.2248 74.4524 3.42 0.90778
10 1 1 8 4 o 6086.8247 4381.7593 2.77 0.90722
10 0 2 4 4 o 2651.3196 1956.2930 182.62 0.90698
6 5 6 8 4 o 5072.4785 3865.4299 185.20 0.90669
0 7 5 4 4 o 9.8385 7.5197 182.50 0.90666
9 3 3 8 4 o 8091.5088 6204.5303 185.56 0.90663
6 6 2 8 4 o 2516.9880 1943.6647 182.75 0.90657
5 4 9 8 4 o 71.9488 68.7005 0.38 0.90458
9 0 6 4 4 o 58964.2891 56528.4297 184.00 0.90452
3 5 9 8 4 o 4767.8818 4588.7134 184.71 0.90447
3 6 7 8 4 o 150.5101 146.0802 9.64 0.90436
8 0 8 4 4 o 4726.0752 4677.0845 183.32 0.90403
0 6 8 4 4 o 1002.3528 1008.6938 182.99 0.90362
4 2 4 16 1 o 937.5321 1010.5109 2.66 0.90350
4 7 0 4 4 o 569.8961 575.5378 187.29 0.90349
7 5 4 8 4 o 30150.4316 30570.3496 184.04 0.90327
9 2 5 8 4 o 1005.9404 1022.4458 182.07 0.90278
1 4 11 8 4 o 1950.7567 1981.6952 185.36 0.90262
1 7 5 8 4 o 7596.3975 7698.5830 3.03 0.90227
2 2 10 8 1 o 14.6763 14.9528 358.00 0.90204
6 4 8 8 4 o 930.4046 940.2754 183.50 0.90191
2 1 11 16 1 o 1151.0842 1132.4257 3.08 0.90168
2 1 4 24 3 o 0.0897 0.0844 260.68 0.90115
4 7 1 8 4 o 25.8396 26.3414 187.65 0.90083
4 0 12 4 4 o 5222.4429 5474.4717 183.57 0.90014
3 2 12 8 4 o 443.9210 480.9597 3.36 0.89961
7 3 8 8 4 o 2269.5457 2465.4846 182.19 0.89958
1 1 5 12 3 o 0.0000 0.0000 180.00 0.89931
1 6 8 8 4 o 7189.9736 7993.0391 3.15 0.89928
10 1 2 8 4 o 1044.1721 1167.5736 2.58 0.89920
6 2 10 8 4 o 12164.2559 13665.8945 182.89 0.89915
1 0 13 4 4 o 11178.7588 12787.0645 3.21 0.89893
5 6 5 8 4 o 460.4193 544.3766 4.50 0.89857
9 1 6 8 4 o 2770.8665 3982.7385 183.03 0.89681
8 1 8 8 4 o 4589.3242 7048.4092 3.13 0.89633
1 3 12 8 4 o 6959.5942 11640.4033 3.22 0.89574
1 1 12 8 1 o 366.4511 517.3032 3.48 0.89559
0 1 13 4 4 o 8191.4355 14027.1084 183.76 0.89559
10 0 3 4 4 o 10258.6992 20805.2520 183.70 0.89375
6 6 3 8 4 o 28.6647 55.6062 189.15 0.89335
4 4 10 8 4 o 2708.3792 5223.0464 183.66 0.89332
7 2 9 8 4 o 4740.0645 8987.3252 183.56 0.89322
4 7 2 8 4 o 720.7770 1303.9427 186.52 0.89298
4 1 12 8 4 o 1743.3466 2855.4312 183.16 0.89253
4 3 11 8 4 o 772.5947 1070.3328 183.00 0.89175
3 7 4 8 4 o 0.6218 0.8335 161.74 0.89157
1 1 13 8 4 o 75.8010 97.9958 4.00 0.89136
5 2 11 8 4 o 12.6111 16.2468 351.16 0.89134
2 4 11 8 4 o 1538.1868 1670.2759 3.76 0.88981
2 7 5 8 4 o 122.0526 129.8505 180.76 0.88947
1 5 10 8 4 o 51.7581 54.0037 0.62 0.88902
9 3 4 8 4 o 7051.3926 7258.9731 183.05 0.88829
10 2 0 4 4 o 6353.4312 6724.2915 3.48 0.88696
2 6 8 8 4 o 793.1183 853.3149 183.05 0.88660
3 3 6 8 1 o 4153.9517 4449.3926 3.69 0.88629
10 1 3 8 4 o 10162.5059 11107.4033 3.55 0.88630
2 0 13 4 4 o 26870.5137 29410.3867 3.73 0.88628
7 4 7 8 4 o 3842.8513 4350.3853 183.80 0.88567
10 2 1 8 4 o 439.5013 525.4115 7.42 0.88444
8 4 5 8 4 o 312.7551 374.8685 185.30 0.88431
2 3 12 8 4 o 23509.3398 27710.5742 184.03 0.88322
3 1 2 24 3 o 2201.2031 2244.3687 183.85 0.88303
8 5 0 4 4 o 14349.9277 14052.1699 3.35 0.88127
6 2 0 24 2 o 14403.5977 13245.4805 3.00 0.88108
5 5 8 8 4 o 481.0794 444.4937 2.85 0.88081
4 7 3 8 4 o 16379.9814 14274.6055 183.54 0.88034
7 5 5 8 4 o 9126.2100 7755.3506 183.58 0.88014
2 1 13 8 4 o 2274.7595 1685.8010 1.94 0.87901
8 5 1 8 4 o 14600.0908 10552.8037 4.56 0.87880
10 2 2 8 4 o 424.2588 253.3893 189.55 0.87701
2 5 10 8 4 o 94394.0469 55230.9141 4.09 0.87677
10 0 4 4 4 o 309.0523 173.0408 357.50 0.87616
6 6 4 8 4 o 6235.8462 3420.8396 2.91 0.87579
6 0 11 4 4 o 26233.4609 14199.6191 4.39 0.87547
8 3 7 8 4 o 18633.7949 10058.5742 4.97 0.87540
4 5 9 8 4 o 10736.0361 5765.7261 183.55 0.87522
4 6 7 8 4 o 1056.2592 565.7706 7.66 0.87512
9 4 1 8 4 o 6566.5933 3502.8926 182.66 0.87489
7 0 10 4 4 o 5419.5952 2888.3035 3.80 0.87482
9 2 6 8 4 o 19415.8066 10344.6201 3.61 0.87479
8 2 8 8 4 o 46.1902 24.6023 198.28 0.87434
1 7 6 8 4 o 7145.6709 3806.5210 183.10 0.87433
6 5 7 8 4 o 4303.1411 2342.4529 2.21 0.87347
9 0 7 4 4 o 2206.2683 1404.7048 2.03 0.87154
8 5 2 8 4 o 2170.8884 1386.7621 3.15 0.87151
5 6 6 8 4 o 3051.5122 2105.0588 182.99 0.87095
4 2 12 8 4 o 8835.0166 6222.3521 3.75 0.87082
4 1 7 16 1 o 409.7009 338.5706 2.30 0.87014
1 2 13 8 4 o 683.3758 587.6579 179.44 0.86973
3 4 11 8 4 o 9782.8271 8607.6152 182.68 0.86962
2 0 5 12 3 o 114.2804 102.8507 96.33 0.86937
3 7 5 8 4 o 781.9085 735.3260 186.66 0.86930
10 1 4 8 4 o 4667.8950 4547.7886 3.91 0.86914
6 1 11 8 4 o 1690.3912 1909.5861 4.41 0.86847
7 1 10 8 4 o 5143.1108 6628.0938 3.34 0.86783
9 4 2 8 4 o 1461.4404 1928.4567 3.84 0.86770
3 6 8 8 4 o 1646.5850 2493.5393 185.18 0.86662
3 0 13 4 4 o 305.1930 469.9091 359.84 0.86632
9 3 5 8 4 o 582.7725 899.1390 4.79 0.86626
10 2 3 8 4 o 17608.6523 26494.2617 3.98 0.86503
9 1 7 8 4 o 2698.0850 3951.1560 183.27 0.86463
3 1 10 16 1 o 1538.0150 1621.2185 3.06 0.86424
5 7 1 8 4 o 12032.3906 17033.9609 3.61 0.86416
5 0 12 4 4 o 26107.4551 35374.5039 183.67 0.86355
4 7 4 8 4 o 5044.5659 6818.6021 183.73 0.86352
3 3 12 8 4 o 8633.9902 11625.4775 184.46 0.86346
6 3 10 8 4 o 6490.9546 8494.8887 3.75 0.86305
2 7 6 8 4 o 8165.3965 10428.1484 3.60 0.86267
8 0 9 4 4 o 14757.6533 17724.2402 182.89 0.86166
7 6 1 8 4 o 3210.5491 3660.3379 182.88 0.86090
0 8 0 2 4 o 355.4116 375.4078 3.27 0.86000
6 4 9 8 4 o 993.0272 1031.4473 4.36 0.85982
8 5 3 8 4 o 2480.1948 2557.9590 4.45 0.85975
3 1 13 8 4 o 3484.2756 3516.7856 183.97 0.85953
3 2 9 16 1 o 1947.4686 2005.2363 3.71 0.85950
2 0 12 8 1 o 3833.1455 3899.4680 3.58 0.85856
2 2 13 8 4 o 17569.4395 15616.4434 183.54 0.85825
8 4 6 8 4 o 4561.4253 3951.5249 4.25 0.85795
7 3 9 8 4 o 1.4856 1.2717 30.56 0.85780
1 6 9 8 4 o 1371.1232 1151.5994 5.59 0.85754
5 4 10 8 4 o 4976.6841 4174.8926 3.60 0.85752
3 5 10 8 4 o 6246.4019 5210.1670 183.95 0.85744
5 7 2 8 4 o 1993.1018 1641.4871 184.30 0.85722
5 1 12 8 4 o 7298.8604 5899.5327 182.84 0.85683
5 3 11 8 4 o 12626.2979 10020.6992 3.77 0.85614
9 4 3 8 4 o 1017.1990 806.8300 3.12 0.85609
10 0 5 4 4 o 22340.9629 17802.5391 184.23 0.85500
8 1 9 8 4 o 14073.9844 11219.5156 183.94 0.85498
6 6 5 8 4 o 18612.5723 14947.3545 184.72 0.85466
7 5 6 8 4 o 579.8193 473.8260 186.93 0.85414
7 6 2 8 4 o 2066.3418 1695.6420 182.00 0.85404
1 8 1 8 4 o 1220.9886 1004.6456 1.07 0.85398
10 3 0 4 4 o 43975.9258 39542.0312 3.96 0.85226
0 8 2 4 4 o 46389.7539 43572.2617 4.06 0.85092
5 0 1 8 1 o 234.8071 239.5210 2.14 0.85087
4 3 1 16 1 o 234.8071 239.5210 2.14 0.85087
0 4 12 4 4 o 3832.4502 3613.5554 3.01 0.85053
4 2 6 16 1 o 1132.6722 1147.3821 3.95 0.85036
7 4 8 8 4 o 1164.0424 1097.4117 181.92 0.85014
10 3 1 8 4 o 26649.4824 25105.4883 184.12 0.85002
4 0 8 8 1 o 1631.5034 1623.5779 3.27 0.84995
5 3 3 24 2 o 9772.0605 9276.5137 3.56 0.84979
4 0 0 6 3 o 0.0906 0.0859 258.01 0.84937
10 2 4 8 4 o 24607.5078 22876.7656 184.14 0.84905
10 1 5 8 4 o 9820.4492 9035.9004 4.70 0.84848
1 0 13 8 1 o 842.1113 758.1716 2.97 0.84843
6 2 11 8 4 o 353.4661 324.9452 6.02 0.84843
0 7 7 4 4 o 22677.9570 20709.0566 184.47 0.84802
2 2 3 12 3 o 0.0000 0.0000 0.00 0.84784
7 2 10 8 4 o 1918.1080 1746.3531 184.04 0.84783
1 8 2 8 4 o 40588.4766 36697.3945 4.10 0.84729
1 4 12 8 4 o 2618.3909 2359.5032 2.99 0.84691
2 6 9 8 4 o 18181.5293 16352.4336 3.97 0.84653
5 7 3 8 4 o 6420.5918 5770.8936 183.75 0.84603
2 8 0 4 4 o 2726.3286 2454.2231 181.08 0.84529
9 2 7 8 4 o 3838.8545 3459.0439 183.17 0.84484
1 7 7 8 4 o 366.7368 330.4803 188.43 0.84443
3 7 6 8 4 o 946.7872 852.8853 4.85 0.84423
8 5 4 8 4 o 3825.0161 3443.9023 182.94 0.84406
3 0 4 12 3 o 4994.2871 4644.9849 4.14 0.84374
4 4 11 8 4 o 734.3796 659.4632 184.20 0.84353
0 5 11 4 4 o 6919.1567 6210.0962 5.22 0.84344
10 3 2 8 4 o 983.6656 882.7131 183.73 0.84342
0 0 6 2 3 o 552.8882 520.6394 5.08 0.84328
4 7 5 8 4 o 2112.3984 1893.4746 183.65 0.84324
2 8 1 8 4 o 18618.0137 16674.2871 4.42 0.84311
7 6 3 8 4 o 953.1832 852.9340 2.97 0.84297
5 5 9 8 4 o 10415.4893 9307.7832 183.94 0.84148
9 3 6 8 4 o 1480.8026 1323.6892 2.56 0.84144
5 6 7 8 4 o 267.9583 239.6253 187.18 0.84139
8 3 8 8 4 o 1647.1365 1478.1349 182.81 0.84104
4 6 8 8 4 o 866.7778 780.5333 183.32 0.84080
9 4 4 8 4 o 3056.4094 2761.6206 3.05 0.84060
4 0 13 4 4 o 1285.0483 1162.8636 182.32 0.84052
0 3 13 4 4 o 32869.2305 29793.3691 4.13 0.84043
6 2 2 24 2 o 13667.8809 12373.7598 3.10 0.84008
3 2 13 8 4 o 30587.0254 27946.1484 184.33 0.84009
1 5 11 8 4 o 29842.0898 27400.0195 4.06 0.83991
6 5 8 8 4 o 61.1995 57.2720 184.64 0.83933
0 0 14 2 4 o 8048.0981 7723.9766 182.89 0.83876
4 3 12 8 4 o 9327.9727 9403.9473 4.02 0.83791
4 0 1 12 3 o 94.8622 96.0815 276.55 0.83765
9 0 8 4 4 o 1755.5723 1805.5652 183.15 0.83762
5 2 12 8 4 o 15559.8145 16062.2109 3.41 0.83756
1 3 13 8 4 o 19536.4258 21152.9453 184.75 0.83693
5 1 0 8 1 o 1427.5431 1458.8864 4.11 0.83674
2 8 2 8 4 o 69.5321 76.9027 192.06 0.83666
1 8 3 8 4 o 697.8200 783.6403 180.09 0.83647
2 4 12 8 4 o 1444.4758 1644.1678 5.92 0.83630
8 2 9 8 4 o 19093.0742 22501.2168 3.35 0.83584
1 0 14 4 4 o 275.6863 338.0851 192.08 0.83528
4 1 13 8 4 o 10483.3916 13630.9082 3.56 0.83431
2 7 7 8 4 o 10029.5977 13328.3809 3.68 0.83391
10 3 3 8 4 o 15014.4756 21120.7695 184.02 0.83275
11 0 1 4 4 o 1581.9963 2258.4014 5.33 0.83245
4 5 10 8 4 o 20300.8496 29043.5879 184.24 0.83240
4 3 3 16 1 o 1809.6534 2241.7834 4.01 0.83206
5 0 3 8 1 o 1809.6534 2241.7834 4.01 0.83206
9 1 8 8 4 o 2209.0286 3310.1472 182.49 0.83148
loop_
_publcif_info_datablock.id
_publcif_info_datablock.publ_exptl
_publcif_info_datablock.publ_geom
_publcif_info_datablock.structure
{d8ef8a03-8b59-4eed-9cfd-f657876287ba} ? ? ?
{daba9faa-6c6a-4b63-83ea-37b3aad1f596} y y y
{3800f4a9-f52d-4ff3-9cf0-74e0a0e7d4e1} y y y
loop_
_publcif_info_exptl_table_extra_item
sin_theta_over_lambda_max
loop_
_publcif_info_tables.block_id
_publcif_info_tables.reference_item
{d8ef8a03-8b59-4eed-9cfd-f657876287ba} '_publcif_info_datablock.publ_exptl'
loop_
_publcif_info_cif.paper_type
EE
