#------------------------------------------------------------------------------
#$Date: 2017-03-04 15:10:16 +0200 (Sat, 04 Mar 2017) $
#$Revision: 193421 $
#$URL: file:///home/coder/svn-repositories/cod/cif/4/34/50/4345064.cif $
#------------------------------------------------------------------------------
#
# This file is available in the Crystallography Open Database (COD),
# http://www.crystallography.net/
#
# All data on this site have been placed in the public domain by the
# contributors.
#
data_4345064
loop_
_publ_author_name
'Bruno, Rosaria'
'Vallejo, Julia'
'Marino, Nadia'
'De Munno, Giovanni'
'Krzystek, J.'
'Cano, Joan'
'Pardo, Emilio'
'Armentano, Donatella'
_publ_section_title
;
 Cytosine Nucleobase Ligand: A Suitable Choice for Modulating Magnetic
 Anisotropy in Tetrahedrally Coordinated Mononuclear Co(II) Compounds.
;
_journal_issue                   4
_journal_name_full               'Inorganic chemistry'
_journal_page_first              1857
_journal_page_last               1864
_journal_paper_doi               10.1021/acs.inorgchem.6b02448
_journal_volume                  56
_journal_year                    2017
_chemical_formula_sum            'C10 H10 Co N8 O4'
_chemical_formula_weight         365.19
_chemical_name_systematic
;
 ?
;
_space_group_crystal_system      triclinic
_space_group_IT_number           2
_space_group_name_Hall           '-P 1'
_space_group_name_H-M_alt        'P -1'
_symmetry_space_group_name_Hall  '-P 1'
_symmetry_space_group_name_H-M   'P -1'
_atom_sites_solution_hydrogens   geom
_audit_creation_method           SHELXL-2013
_cell_angle_alpha                97.195(3)
_cell_angle_beta                 93.976(3)
_cell_angle_gamma                103.077(2)
_cell_formula_units_Z            2
_cell_length_a                   7.4076(5)
_cell_length_b                   8.6627(6)
_cell_length_c                   11.6200(8)
_cell_measurement_reflns_used    9172
_cell_measurement_temperature    100(2)
_cell_measurement_theta_max      29.1
_cell_measurement_theta_min      2.4
_cell_volume                     716.91(9)
_computing_cell_refinement       'Bruker APEX'
_computing_data_collection       'Bruker APEX'
_computing_data_reduction        'Bruker SAINT'
_computing_molecular_graphics    'Bruker SHELXTL'
_computing_publication_material  'Bruker SHELXTL'
_computing_structure_refinement  'SHELXL-2013 (Sheldrick, 2013)'
_computing_structure_solution    'SHELXS-2013 (Sheldrick, 2013)'
_diffrn_ambient_temperature      100(2)
_diffrn_measured_fraction_theta_full 0.993
_diffrn_measured_fraction_theta_max 0.899
_diffrn_measurement_device_type  'CCD area detector'
_diffrn_measurement_method       'phi and omega scans'
_diffrn_radiation_type           MoK\a
_diffrn_radiation_wavelength     0.71073
_diffrn_reflns_av_R_equivalents  0.0501
_diffrn_reflns_av_unetI/netI     0.0329
_diffrn_reflns_Laue_measured_fraction_full 0.993
_diffrn_reflns_Laue_measured_fraction_max 0.899
_diffrn_reflns_limit_h_max       10
_diffrn_reflns_limit_h_min       -10
_diffrn_reflns_limit_k_max       11
_diffrn_reflns_limit_k_min       -11
_diffrn_reflns_limit_l_max       15
_diffrn_reflns_limit_l_min       -14
_diffrn_reflns_number            17514
_diffrn_reflns_point_group_measured_fraction_full 0.993
_diffrn_reflns_point_group_measured_fraction_max 0.899
_diffrn_reflns_theta_full        25.242
_diffrn_reflns_theta_max         29.532
_diffrn_reflns_theta_min         1.776
_diffrn_source                   'fine-focus sealed tube'
_exptl_absorpt_coefficient_mu    1.233
_exptl_absorpt_correction_T_max  0.826
_exptl_absorpt_correction_T_min  0.784
_exptl_absorpt_correction_type   multi-scan
_exptl_absorpt_process_details   sadabs
_exptl_crystal_colour            blue
_exptl_crystal_density_diffrn    1.692
_exptl_crystal_description       parallelepiped
_exptl_crystal_F_000             370
_exptl_crystal_size_max          0.20
_exptl_crystal_size_mid          0.16
_exptl_crystal_size_min          0.16
_refine_diff_density_max         0.922
_refine_diff_density_min         -0.625
_refine_diff_density_rms         0.077
_refine_ls_extinction_method     none
_refine_ls_goodness_of_fit_ref   1.035
_refine_ls_hydrogen_treatment    constr
_refine_ls_matrix_type           full
_refine_ls_number_parameters     208
_refine_ls_number_reflns         3593
_refine_ls_number_restraints     0
_refine_ls_restrained_S_all      1.035
_refine_ls_R_factor_all          0.0460
_refine_ls_R_factor_gt           0.0408
_refine_ls_shift/su_max          0.000
_refine_ls_shift/su_mean         0.000
_refine_ls_structure_factor_coef Fsqd
_refine_ls_weighting_details
'w=1/[\s^2^(Fo^2^)+(0.0794P)^2^+0.2311P] where P=(Fo^2^+2Fc^2^)/3'
_refine_ls_weighting_scheme      calc
_refine_ls_wR_factor_gt          0.1142
_refine_ls_wR_factor_ref         0.1209
_reflns_Friedel_coverage         0.000
_reflns_number_gt                3187
_reflns_number_total             3593
_reflns_threshold_expression     'I > 2\s(I)'
_cod_data_source_file            ic6b02448_si_003.cif
_cod_data_source_block           2
_cod_depositor_comments          'Adding full bibliography for 4345064.cif.'
_cod_database_code               4345064
_shelx_space_group_comment
;
The symmetry employed for this shelxl refinement is uniquely defined
by the following loop, which should always be used as a source of
symmetry information in preference to the above space-group names.
They are only intended as comments.
;
_shelxl_version_number           2013-4
_shelx_res_file
;
TITL CoCytNCO_0m in P-1
CELL 0.71073   7.4076   8.6627  11.6200  97.195  93.976 103.077
ZERR    2.00   0.0005   0.0006   0.0008   0.003   0.003   0.002
LATT 1
SFAC C  H  N  O  Co
UNIT 20  20  16  8  2
L.S. 4
ACTA
BOND
FMAP 2
PLAN 5
TEMP -173.000
WGHT    0.079400    0.231100
FVAR       0.41802
CO1   5    0.279968    0.253463    0.241759    11.00000    0.03768    0.03044 =
         0.03637    0.00154    0.00221    0.01313
N3    3    0.168782    0.033675    0.147305    11.00000    0.03234    0.03020 =
         0.03197    0.00289    0.00359    0.01137
N31   3    0.463329    0.219534    0.370881    11.00000    0.03258    0.03499 =
         0.03241    0.00123    0.00428    0.01263
N1C   3    0.105433    0.367128    0.314761    11.00000    0.05438    0.04619 =
         0.07006    0.00341    0.01112    0.02685
N2C   3    0.400125    0.402332    0.137056    11.00000    0.06807    0.04260 =
         0.05514    0.01225    0.00798    0.00551
C1    1    0.001141    0.448842    0.321199    11.00000    0.04634    0.03610 =
         0.05807    0.01088    0.01662    0.01665
C1C   1    0.490313    0.533606    0.157284    11.00000    0.05614    0.04764 =
         0.04380    0.01351    0.01060    0.00896
O1C   4   -0.106142    0.532914    0.329228    11.00000    0.07708    0.06724 =
         0.11835    0.03485    0.04255    0.04989
O2C   4    0.581818    0.669132    0.178745    11.00000    0.08838    0.05254 =
         0.08706    0.01080    0.00991   -0.00953
O21   4    0.588013    0.120726    0.213818    11.00000    0.04758    0.06718 =
         0.03238   -0.00038    0.00602    0.02633
O2    4    0.023913   -0.009633    0.309585    11.00000    0.04700    0.04992 =
         0.03688    0.00947    0.01202    0.02382
N4    3    0.308628    0.071691   -0.021109    11.00000    0.05091    0.04744 =
         0.03483    0.00390    0.01154    0.01280
AFIX  93
H4A   2    0.341727    0.175236    0.003891    11.00000   -1.20000
H4B   2    0.338765    0.033716   -0.089076    11.00000   -1.20000
AFIX   0
N41   3    0.336767    0.311044    0.533128    11.00000    0.05779    0.07936 =
         0.03927   -0.00753    0.01225    0.03204
AFIX  93
H41A  2    0.247766    0.330318    0.486888    11.00000   -1.20000
H41B  2    0.337568    0.332159    0.609263    11.00000   -1.20000
AFIX   0
N11   3    0.734105    0.122564    0.392741    11.00000    0.03426    0.04892 =
         0.03997    0.00666    0.00566    0.01925
AFIX  43
H11A  2    0.820133    0.080646    0.361396    11.00000   -1.20000
AFIX   0
N1    3    0.009882   -0.222289    0.173793    11.00000    0.09308    0.03380 =
         0.06621    0.00434    0.03625   -0.00081
AFIX  43
H1A   2   -0.057120   -0.286470    0.216088    11.00000   -1.20000
AFIX   0
C21   1    0.595566    0.152401    0.320861    11.00000    0.03174    0.03601 =
         0.03485    0.00335    0.00550    0.01093
C4    1    0.214165   -0.026255    0.043073    11.00000    0.03732    0.03663 =
         0.03439    0.00149    0.00306    0.01283
C2    1    0.064857   -0.063532    0.214009    11.00000    0.03343    0.03452 =
         0.03944    0.00613    0.00360    0.01274
C51   1    0.614548    0.217045    0.561826    11.00000    0.05235    0.05813 =
         0.02939    0.00343    0.00078    0.01566
AFIX  43
H51A  2    0.619066    0.238132    0.644330    11.00000   -1.20000
AFIX   0
C41   1    0.469551    0.250240    0.488124    11.00000    0.03942    0.03921 =
         0.03457    0.00010    0.00588    0.01111
C61   1    0.743590    0.155229    0.510400    11.00000    0.04258    0.05402 =
         0.04072    0.01106   -0.00236    0.01590
AFIX  43
H61A  2    0.843195    0.133948    0.556979    11.00000   -1.20000
AFIX   0
C6    1    0.055760   -0.285043    0.069485    11.00000    0.16902    0.03156 =
         0.09045   -0.01624    0.06681   -0.00893
AFIX  43
H6A   2    0.015455   -0.397142    0.044522    11.00000   -1.20000
AFIX   0
C5    1    0.155650   -0.193278    0.001628    11.00000    0.10435    0.04105 =
         0.05625   -0.01251    0.03341    0.00710
AFIX  43
H5A   2    0.186544   -0.237398   -0.071332    11.00000   -1.20000

AFIX   0
HKLF 4

REM  CoCytNCO_0m in P-1
REM R1 =  0.0408 for    3187 Fo > 4sig(Fo)  and  0.0460 for all    3593 data
REM    208 parameters refined using      0 restraints

END

WGHT      0.0753      0.2423

REM Highest difference peak  0.922,  deepest hole -0.625,  1-sigma level  0.077
Q1    1   0.1736  0.2349  0.2784  11.00000  0.05    0.92
Q2    1   0.3870  0.2858  0.2129  11.00000  0.05    0.83
Q3    1   0.0039 -0.2837  0.0460  11.00000  0.05    0.45
Q4    1   0.6393  0.6158  0.1224  11.00000  0.05    0.40
Q5    1  -0.0060 -0.2549  0.0903  11.00000  0.05    0.40
;
_shelx_res_checksum              85669
_shelx_hkl_file
;
  -1   0   0   23.41    1.78
  -1   0   0   25.16    1.51
  -1   0   0   24.64    1.60
  -1   0   0   24.36    1.49
  -1   0   0   30.65    1.73
   1   0   0   28.24    1.52
   1   0   0   23.86    1.72
   1   0   0   30.86    1.61
  -2   0   0    0.46    0.11
  -2   0   0    0.47    0.10
  -2   0   0    0.65    0.17
  -2   0   0    0.76    0.16
  -2   0   0    0.41    0.12
  -2   0   0    0.37    0.11
   2   0   0    0.65    0.14
   2   0   0    0.61    0.18
   2   0   0    0.55    0.13
   2   0   0    0.52    0.17
   2   0   0    0.23    0.11
  -3   0   0  174.39   10.82
  -3   0   0  153.88    9.94
  -3   0   0  152.17    9.30
  -3   0   0  174.55   10.37
  -3   0   0  145.33    8.76
  -3   0   0  156.81    8.65
   3   0   0  153.15    8.64
   3   0   0  145.17    9.30
   3   0   0  141.24   10.80
   3   0   0  144.69    8.77
   3   0   0  147.81    9.94
  -4   0   0   86.36    5.52
  -4   0   0   82.02    4.70
   4   0   0   82.80    4.72
   4   0   0   82.18    4.99
   4   0   0   77.08    5.81
   4   0   0   75.83    5.35
  -5   0   0   18.07    1.27
  -5   0   0   19.75    1.47
   5   0   0   14.70    1.45
   5   0   0   17.55    1.24
  -6   0   0   15.75    1.34
  -6   0   0   15.03    1.23
   6   0   0   17.09    1.18
   6   0   0   14.50    1.39
  -7   0   0   56.15    3.50
  -7   0   0   48.89    3.90
  -7   0   0   49.85    3.30
   7   0   0   52.79    3.30
   7   0   0   45.78    3.83
  -8   0   0    1.60    0.41
  -8   0   0    1.59    0.44
  -8   0   0    1.51    0.43
  -8   0   0    1.35    0.47
  -9   0   0   13.28    1.29
  -9   0   0   12.02    1.44
  -9   0   0   10.07    1.03
  -9   1   0    0.62    0.38
  -8   1   0    1.19    0.41
  -8   1   0    0.78    0.37
  -8   1   0    0.81    0.40
  -8   1   0    0.99    0.37
  -8   1   0    0.94    0.44
  -7   1   0    9.89    0.98
  -7   1   0   10.07    0.91
  -7   1   0    9.59    0.85
  -7   1   0   10.29    0.96
  -7   1   0    9.07    0.86
   6  -1   0  126.43    7.36
   6  -1   0  117.78    7.21
   6  -1   0  122.92    9.03
  -6   1   0  130.18    9.35
  -6   1   0  131.00    8.62
  -6   1   0  125.73    7.95
  -6   1   0  130.59    7.64
   5  -1   0   82.51    4.73
   5  -1   0   85.76    5.11
   5  -1   0   73.79    5.92
   5  -1   0   82.78    4.85
  -5   1   0   84.02    5.01
  -5   1   0   85.87    5.65
   4  -1   0  191.60   11.40
   4  -1   0  189.24   10.58
   4  -1   0  186.85   10.76
   4  -1   0  173.27   13.22
  -4   1   0  198.62   10.75
  -4   1   0  188.28   12.67
  -4   1   0  187.52   11.20
   3  -1   0   35.17    2.45
   3  -1   0   32.86    2.09
   3  -1   0   32.40    1.94
   3  -1   0   30.43    1.99
  -3   1   0   31.81    2.08
  -3   1   0   31.54    1.94
  -3   1   0   33.66    2.31
  -3   1   0   32.68    2.25
  -3   1   0   31.38    2.05
  -3   1   0   37.29    2.00
  -3   1   0   38.05    2.45
   0  -1   0  249.79   14.31
   0   1   0  243.80   14.31
  -1  -1   0  155.97    9.52
  -1  -1   0  143.64    8.58
  -1  -1   0  149.87    9.16
  -1  -1   0  169.38   10.36
  -1  -1   0  138.80   10.00
  -1  -1   0  153.20    8.92
  -1  -1   0  138.85    8.58
   1   1   0  156.88    9.53
   1   1   0  137.01    8.58
   1   1   0  144.29   10.36
   1   1   0  148.78    8.93
   1   1   0  152.97   10.81
   1   1   0  135.78    8.58
  -2  -1   0    0.03    0.14
  -2  -1   0    0.13    0.14
  -2  -1   0    0.10    0.08
  -2  -1   0    0.09    0.09
  -2  -1   0    0.18    0.09
  -2  -1   0    0.21    0.09
  -2  -1   0    0.12    0.13
  -2  -1   0    0.15    0.12
   2   1   0    0.14    0.15
   2   1   0    0.07    0.11
   2   1   0    0.10    0.08
   2   1   0    0.35    0.15
   2   1   0    0.17    0.10
  -3  -1   0   97.19    6.36
  -3  -1   0  114.04    6.65
  -3  -1   0   93.07    5.58
  -3  -1   0  112.33    7.20
  -3  -1   0  103.78    5.67
  -3  -1   0   87.48    5.66
   3   1   0   92.84    6.36
   3   1   0   96.22    5.95
   3   1   0   80.59    6.90
   3   1   0   97.90    5.67
  -4  -1   0    9.96    0.67
  -4  -1   0    9.73    0.78
  -4  -1   0   10.51    0.87
   4   1   0    9.64    0.72
   4   1   0    8.46    0.88
   4   1   0    7.77    0.82
  -5  -1   0    0.18    0.23
  -5  -1   0    0.19    0.21
  -5  -1   0    0.14    0.19
  -5  -1   0   -0.23    0.21
   5   1   0    0.16    0.24
   5   1   0    0.32    0.33
   5   1   0    0.06    0.31
  -6  -1   0   87.90    5.16
  -6  -1   0   76.53    5.85
   6   1   0   76.73    4.87
   6   1   0   68.43    5.67
  -7  -1   0    1.95    0.49
   7   1   0    1.77    0.59
   7   1   0    2.20    0.50
  -8  -1   0    7.18    0.93
   8   1   0    6.96    0.82
   8   1   0    7.09    1.01
  -9  -1   0    0.74    0.46
  -9  -1   0    2.26    0.49
  -9  -1   0    0.58    0.58
  -9  -1   0    0.70    0.52
  -9   2   0    9.47    0.98
  -9   2   0   12.16    1.08
  -9   2   0   11.62    1.15
  -8   2   0    7.84    0.91
  -8   2   0    6.86    0.81
  -8   2   0    9.13    0.87
  -8   2   0    7.16    0.75
  -8   2   0    7.30    0.86
   7  -2   0    1.07    0.37
   7  -2   0    0.83    0.33
  -7   2   0   -0.06    0.35
  -7   2   0    0.11    0.26
  -7   2   0    0.19    0.34
  -7   2   0    0.98    0.33
   6  -2   0   11.73    0.87
   6  -2   0    9.54    0.93
  -6   2   0   12.64    0.98
  -6   2   0   11.24    0.88
  -6   2   0   10.52    0.92
   5  -2   0   20.28    1.34
   5  -2   0   21.33    1.43
  -5   2   0   21.52    1.47
  -5   2   0   21.86    1.57
  -5   2   0   20.78    1.40
   4  -2   0   37.78    2.10
   4  -2   0   33.71    2.08
   4  -2   0   36.21    2.17
   4  -2   0   36.18    2.10
  -4   2   0   36.14    2.10
  -4   2   0   31.59    2.08
  -4   2   0   35.48    2.19
  -4   2   0   34.62    2.46
  -4   2   0   36.73    2.30
   3  -2   0  457.43   30.46
   3  -2   0  511.79   25.82
   3  -2   0  419.27   26.90
   3  -2   0  442.89   25.41
  -3   2   0  420.52   26.90
  -3   2   0  470.79   29.19
  -3   2   0  425.34   27.35
  -3   2   0  457.97   30.46
  -3   2   0  524.51   31.74
  -3   2   0  424.32   25.39
  -3   2   0  445.19   28.11
  -3   2   0  453.60   25.79
   2  -2   0  402.08   23.25
   2  -2   0  402.66   24.64
   2  -2   0  449.01   27.90
  -2   2   0  458.64   23.62
  -2   2   0  402.72   24.06
  -2   2   0  410.11   25.74
  -2   2   0  400.11   30.28
  -2   2   0  402.18   24.63
   1  -2   0   19.11    1.20
   1  -2   0   17.83    1.47
   1  -2   0   17.98    1.27
   1  -2   0   19.37    1.21
   1  -2   0   19.66    1.37
   1  -2   0   20.35    1.21
   1  -2   0   21.42    1.50
  -1   2   0   18.26    1.47
  -1   2   0   20.22    1.20
  -1   2   0   20.20    1.20
  -1   2   0   18.63    1.27
   0  -2   0  500.28   27.27
   0  -2   0  439.94   31.73
   0  -2   0  461.33   27.26
   0   2   0  472.70   27.26
   0   2   0  480.02   27.26
  -2  -2   0   18.44    1.16
  -2  -2   0   14.61    1.04
  -2  -2   0   19.72    1.32
  -2  -2   0   15.31    1.23
  -2  -2   0   15.77    1.03
  -2  -2   0   17.74    1.25
  -2  -2   0   16.69    1.07
   2   2   0   16.68    1.16
   2   2   0   15.65    1.30
   2   2   0   15.67    1.03
   2   2   0   15.25    1.25
   2   2   0   14.68    1.06
   2   2   0   15.22    1.04
  -3  -2   0    1.34    0.19
  -3  -2   0    2.80    0.28
  -3  -2   0    1.95    0.32
  -3  -2   0    1.49    0.32
  -3  -2   0    1.85    0.23
  -3  -2   0    1.71    0.31
   3   2   0    2.09    0.23
   3   2   0    2.97    0.28
   3   2   0    1.49    0.32
   3   2   0    1.67    0.25
   3   2   0    1.99    0.33
  -4  -2   0   60.15    4.37
  -4  -2   0   60.07    3.41
  -4  -2   0   58.40    3.36
  -4  -2   0   56.89    3.42
   4   2   0   59.73    3.62
   4   2   0   56.82    4.23
   4   2   0   53.40    3.42
   4   2   0   56.75    3.41
   4   2   0   59.19    3.89
  -5  -2   0   83.55    4.78
  -5  -2   0   86.94    6.22
   5   2   0   76.41    5.51
   5   2   0   79.71    4.83
   5   2   0   82.77    6.02
   5   2   0   88.05    5.15
  -6  -2   0   25.72    2.08
   6   2   0   24.21    1.73
   6   2   0   25.01    2.10
  -7  -2   0   66.82    5.26
   7   2   0   70.69    4.40
   7   2   0   68.94    5.16
  -8  -2   0    0.49    0.48
  -8  -2   0    0.43    0.52
   8   2   0    0.14    0.47
   8   2   0    0.34    0.52
  -9  -2   0    2.22    0.66
  -9  -2   0    2.03    0.75
   9  -3   0   -0.12    0.37
  -9   3   0   -0.53    0.48
  -9   3   0   -0.42    0.42
  -9   3   0   -0.92    0.30
   8  -3   0   30.85    2.20
   8  -3   0   27.63    2.05
  -8   3   0   33.04    2.45
  -8   3   0   34.49    2.41
  -8   3   0   33.12    2.28
  -8   3   0   33.98    2.19
  -8   3   0   33.47    2.59
   7  -3   0    2.07    0.47
   7  -3   0    2.44    0.43
  -7   3   0    2.28    0.47
  -7   3   0    2.70    0.45
  -7   3   0    2.06    0.38
   6  -3   0  111.81    6.99
   6  -3   0  118.11    6.83
  -6   3   0  123.02    7.54
  -6   3   0  123.36    7.22
   5  -3   0  159.06    8.58
   5  -3   0  149.79    8.77
   5  -3   0  153.76    8.75
   5  -3   0  160.44    8.81
  -5   3   0  137.12    8.77
  -5   3   0  152.16    9.46
  -5   3   0  153.50    9.05
  -5   3   0  143.18    8.79
   4  -3   0   36.91    2.41
   4  -3   0   35.15    2.04
   4  -3   0   36.20    2.08
   4  -3   0   29.88    2.05
   4  -3   0   36.97    2.14
  -4   3   0   35.14    2.25
  -4   3   0   29.51    2.05
  -4   3   0   33.51    2.13
  -4   3   0   35.19    2.07
   3  -3   0  391.88   22.97
   3  -3   0  459.88   22.59
   3  -3   0  396.47   22.98
   3  -3   0  409.70   26.63
   3  -3   0  388.27   22.21
  -3   3   0  374.98   28.88
  -3   3   0  390.50   25.50
  -3   3   0  382.14   24.58
  -3   3   0  395.13   22.97
  -3   3   0  368.75   22.97
  -3   3   0  418.35   27.72
  -3   3   0  386.84   23.51
   2  -3   0   99.08    6.57
   2  -3   0   89.63    5.68
   2  -3   0  102.87    5.69
   2  -3   0   92.46    5.79
   2  -3   0   95.22    6.07
   2  -3   0   95.74    7.10
  -2   3   0  101.41    6.80
  -2   3   0   98.40    5.80
  -2   3   0  105.23    5.58
  -2   3   0   93.87    5.68
  -2   3   0   97.56    5.68
  -2   3   0   90.65    6.06
  -2   3   0   93.65    7.09
   1  -3   0   36.66    2.47
   1  -3   0   29.92    2.40
   1  -3   0   28.67    2.05
   1  -3   0   30.40    2.24
   1  -3   0   32.78    1.96
   1  -3   0   30.91    1.95
   1  -3   0   35.38    1.90
  -1   3   0   30.71    1.94
  -1   3   0   28.58    2.05
  -1   3   0   35.29    1.89
  -1   3   0   32.81    1.95
  -1   3   0   31.48    2.40
   0  -3   0    0.06    0.15
   0  -3   0    0.23    0.12
   0  -3   0    0.52    0.19
   0  -3   0    0.41    0.18
   0  -3   0    0.45    0.17
   0  -3   0    0.26    0.18
   0  -3   0    0.33    0.15
   0   3   0    0.35    0.16
   0   3   0    0.34    0.19
   0   3   0    0.38    0.16
   0   3   0    0.22    0.15
  -1  -3   0  334.72   20.82
  -1  -3   0  353.24   22.22
  -1  -3   0  352.03   20.82
  -1  -3   0  386.50   26.20
  -1  -3   0  383.19   24.25
   1   3   0  347.75   22.24
   1   3   0  334.43   20.82
   1   3   0  348.38   26.19
   1   3   0  373.22   25.08
   1   3   0  376.85   23.05
  -2  -3   0  113.82    7.34
  -2  -3   0  111.52    6.22
  -2  -3   0   91.47    5.82
  -2  -3   0   89.05    5.83
   2   3   0  101.03    6.04
   2   3   0   91.06    7.01
   2   3   0   92.14    5.83
   2   3   0   96.65    5.83
   2   3   0  105.16    6.45
  -3  -3   0   63.55    3.85
  -3  -3   0   62.35    3.83
  -3  -3   0   73.90    4.08
  -3  -3   0   64.13    4.83
   3   3   0   66.25    4.26
   3   3   0   63.71    3.83
   3   3   0   64.22    3.84
   3   3   0   64.91    3.99
   3   3   0   56.09    4.63
  -4  -3   0    6.35    0.55
  -4  -3   0    5.09    0.51
  -4  -3   0    5.84    0.68
   4   3   0    5.97    0.58
   4   3   0    6.30    0.56
   4   3   0    5.31    0.70
   4   3   0    5.56    0.53
   4   3   0    6.52    0.67
  -5  -3   0   70.21    4.48
  -5  -3   0   74.79    5.72
   5   3   0   74.00    5.55
   5   3   0   73.92    4.49
   5   3   0   82.02    5.10
   5   3   0   81.09    4.75
  -6  -3   0   17.45    1.56
   6   3   0   16.73    1.60
   6   3   0   18.17    1.33
  -7  -3   0    0.68    0.45
  -7  -3   0    2.19    0.62
   7   3   0    1.38    0.55
   7   3   0    0.72    0.44
  -8  -3   0    0.15    0.49
  -8  -3   0   -0.12    0.51
   8   3   0   -0.19    0.46
   8   3   0   -0.44    0.51
 -10   4   0   -0.40    0.60
 -10   4   0   -0.54    0.50
   9  -4   0    6.66    0.86
   9  -4   0    5.23    0.70
  -9   4   0    6.42    0.85
  -9   4   0    5.70    0.71
  -9   4   0    7.73    1.02
   8  -4   0    4.01    0.67
   8  -4   0    3.48    0.56
  -8   4   0    4.49    0.64
  -8   4   0    2.73    0.69
  -8   4   0    3.23    0.51
   7  -4   0   11.93    1.09
   7  -4   0   12.82    0.99
  -7   4   0   12.94    1.07
  -7   4   0   12.83    1.00
   6  -4   0    6.99    0.70
   6  -4   0    6.85    0.64
   6  -4   0    6.30    0.75
  -6   4   0    7.07    0.75
  -6   4   0    8.01    0.67
  -6   4   0    7.23    0.61
   5  -4   0  136.01    7.81
   5  -4   0  143.59    7.64
   5  -4   0  143.49    7.87
   5  -4   0  135.77    7.83
  -5   4   0  126.95    9.82
  -5   4   0  120.88    7.82
  -5   4   0  135.78    8.05
  -5   4   0  130.76    8.42
  -5   4   0  133.17    7.85
   4  -4   0  198.99   11.06
   4  -4   0  212.41   11.44
   4  -4   0  201.04   11.42
   4  -4   0  192.72   11.27
  -4   4   0  181.10   11.41
  -4   4   0  185.59   12.22
  -4   4   0  194.48   14.32
  -4   4   0  202.43   11.43
  -4   4   0  194.29   11.69
   3  -4   0    0.80    0.21
   3  -4   0    0.41    0.20
   3  -4   0    0.61    0.23
   3  -4   0    0.58    0.26
   3  -4   0    0.80    0.20
  -3   4   0    0.98    0.22
  -3   4   0    0.65    0.21
  -3   4   0    0.78    0.22
  -3   4   0    0.69    0.17
  -3   4   0    0.71    0.22
  -3   4   0    0.91    0.26
  -3   4   0    1.12    0.24
   2  -4   0  137.95    7.64
   2  -4   0  133.18    9.79
   2  -4   0  121.66    9.54
   2  -4   0  125.13    8.83
   2  -4   0  142.11    7.49
  -2   4   0  122.50    9.53
  -2   4   0  135.22    7.63
  -2   4   0  124.29    8.13
   1  -4   0  320.84   21.05
   1  -4   0  256.35   18.93
   1  -4   0  284.86   20.46
   1  -4   0  252.49   17.37
   1  -4   0  295.49   15.94
   1  -4   0  287.82   16.30
  -1   4   0  300.79   15.94
  -1   4   0  260.23   20.44
  -1   4   0  280.48   16.29
  -1   4   0  261.45   17.37
   0  -4   0  458.75   30.35
   0  -4   0  422.79   23.60
   0  -4   0  426.56   24.14
   0  -4   0  398.68   25.76
   0   4   0  403.41   25.77
   0   4   0  419.57   24.13
   0   4   0  387.59   30.33
   0   4   0  411.11   29.01
  -1  -4   0    5.34    0.63
  -1  -4   0    4.46    0.39
  -1  -4   0    5.84    0.50
  -1  -4   0    5.68    0.67
  -1  -4   0    4.32    0.53
   1   4   0    6.19    0.57
   1   4   0    5.07    0.52
   1   4   0    5.62    0.50
   1   4   0    3.93    0.51
  -2  -4   0    4.14    0.52
  -2  -4   0    3.70    0.54
  -2  -4   0    5.98    0.51
   2   4   0    4.48    0.52
   2   4   0    3.90    0.51
   2   4   0    4.88    0.45
   2   4   0    4.41    0.48
   2   4   0    5.23    0.47
  -3  -4   0   23.39    1.92
  -3  -4   0   25.64    1.61
  -3  -4   0   23.25    1.57
   3   4   0   24.24    1.69
   3   4   0   23.88    1.57
   3   4   0   21.72    1.84
   3   4   0   23.35    1.57
  -4  -4   0   96.73    7.56
  -4  -4   0   97.58    6.02
   4   4   0   98.87    7.28
   4   4   0  105.29    6.02
   4   4   0  105.62    6.26
   4   4   0  103.83    6.68
  -5  -4   0    4.86    0.72
  -5  -4   0    5.71    0.57
   5   4   0    5.13    0.56
   5   4   0    5.87    0.81
   5   4   0    6.61    0.65
   5   4   0    4.54    0.66
  -6  -4   0    8.92    1.16
  -6  -4   0    6.97    0.95
   6   4   0    9.17    0.85
   6   4   0    9.01    1.09
  -7  -4   0    5.19    0.83
  -7  -4   0    6.11    1.02
   7   4   0    5.06    0.73
   7   4   0    6.80    0.98
  -8  -4   0    0.99    0.63
   9  -5   0    0.57    0.47
   9  -5   0   -0.29    0.46
  -9   5   0    0.60    0.62
  -9   5   0    0.15    0.38
  -9   5   0    0.85    0.51
   8  -5   0   36.01    2.53
   8  -5   0   34.17    2.38
  -8   5   0   40.82    2.50
  -8   5   0   35.64    2.60
  -8   5   0   40.84    2.83
   7  -5   0    5.61    0.73
   7  -5   0    5.20    0.64
  -7   5   0    5.15    0.59
  -7   5   0    5.09    0.69
   6  -5   0   60.04    3.85
   6  -5   0   65.53    3.83
   6  -5   0   62.66    3.74
  -6   5   0   65.63    3.81
  -6   5   0   64.02    3.91
  -6   5   0   59.02    4.09
   5  -5   0  124.89    7.07
   5  -5   0  120.96    7.24
   5  -5   0  125.23    7.30
  -5   5   0  123.72    7.29
  -5   5   0  124.39    7.45
  -5   5   0  121.03    7.80
   4  -5   0   15.88    1.22
   4  -5   0   17.54    1.12
   4  -5   0   15.94    1.18
   4  -5   0   15.49    1.19
  -4   5   0   14.35    1.14
  -4   5   0   16.10    1.15
  -4   5   0   17.52    1.33
  -4   5   0   16.03    1.21
  -4   5   0   17.66    1.35
   3  -5   0  210.53   14.36
   3  -5   0  210.55   12.41
   3  -5   0  217.73   15.53
   3  -5   0  226.11   12.19
  -3   5   0  204.62   12.39
  -3   5   0  222.04   14.87
  -3   5   0  205.29   15.52
  -3   5   0  200.74   13.23
   2  -5   0    5.14    0.52
   2  -5   0    6.58    0.64
   2  -5   0    5.37    0.56
   2  -5   0    5.14    0.58
   2  -5   0    5.50    0.57
  -2   5   0    4.79    0.54
  -2   5   0    5.33    0.60
  -2   5   0    5.81    0.57
   1  -5   0  535.70   36.85
   1  -5   0  494.29   35.80
   1  -5   0  486.33   28.49
   1  -5   0  475.25   27.87
  -1   5   0  486.51   28.48
  -1   5   0  467.07   30.40
   0  -5   0    3.62    0.49
   0  -5   0    3.08    0.43
   0  -5   0    3.54    0.50
   0  -5   0    2.99    0.34
   0   5   0    3.69    0.46
   0   5   0    3.60    0.44
  -1  -5   0  112.72    6.78
  -1  -5   0  124.65    8.74
  -1  -5   0  110.88    8.45
  -1  -5   0  114.97    6.52
  -1  -5   0  109.45    7.14
   1   5   0  119.49    6.77
   1   5   0  106.88    8.04
   1   5   0  114.93    7.19
  -2  -5   0   68.07    4.40
  -2  -5   0   73.51    5.47
  -2  -5   0   73.56    4.60
  -2  -5   0   69.05    5.68
   2   5   0   76.30    4.78
   2   5   0   71.52    4.40
   2   5   0   71.39    4.61
   2   5   0   74.13    5.22
   2   5   0   75.75    4.49
  -3  -5   0   40.77    3.41
  -3  -5   0   46.81    2.72
  -3  -5   0   36.29    3.23
  -3  -5   0   40.22    2.64
   3   5   0   41.66    2.67
   3   5   0   45.51    3.13
   3   5   0   41.99    2.84
   3   5   0   39.94    2.63
  -4  -5   0    5.13    0.76
  -4  -5   0    6.76    0.94
  -4  -5   0    7.51    0.71
   4   5   0    7.47    0.86
   4   5   0    6.69    0.67
   4   5   0    7.99    0.73
   4   5   0    6.67    0.73
  -5  -5   0    0.38    0.29
  -5  -5   0    0.19    0.44
  -5  -5   0   -0.12    0.36
   5   5   0    0.02    0.44
   5   5   0   -0.02    0.29
   5   5   0    0.42    0.37
   5   5   0    0.18    0.39
  -6  -5   0   34.31    3.18
  -6  -5   0   34.57    2.96
   6   5   0   37.14    2.96
   6   5   0   39.47    2.50
  -7  -5   0   -0.50    0.51
  -7  -5   0    0.06    0.47
   7   5   0   -0.37    0.45
   7   5   0   -0.67    0.52
   9  -6   0   13.77    1.37
   9  -6   0   12.58    1.19
  -9   6   0   16.04    1.50
  -9   6   0   14.08    1.18
  -9   6   0   13.61    1.28
   8  -6   0    4.19    0.64
   8  -6   0    3.47    0.70
  -8   6   0    4.09    0.79
  -8   6   0    3.91    0.67
  -8   6   0    3.11    0.52
   7  -6   0   21.33    1.53
   7  -6   0   22.02    1.65
  -7   6   0   22.68    1.56
  -7   6   0   21.09    1.64
   6  -6   0   -0.16    0.32
   6  -6   0    0.03    0.28
   6  -6   0   -0.66    0.36
  -6   6   0   -0.14    0.27
  -6   6   0    0.11    0.37
  -6   6   0   -0.28    0.26
   5  -6   0   84.35    4.87
   5  -6   0   90.63    5.06
   5  -6   0   83.22    5.02
  -5   6   0   80.50    5.02
  -5   6   0   79.41    5.36
   4  -6   0  148.98    8.42
   4  -6   0  139.17    9.82
   4  -6   0  141.15    8.55
   4  -6   0  147.28    8.23
  -4   6   0  152.58   10.20
  -4   6   0  138.95    9.10
  -4   6   0  143.77    8.53
   3  -6   0   20.79    1.54
   3  -6   0   20.79    1.49
   3  -6   0   26.39    1.79
   3  -6   0   21.35    1.78
  -3   6   0   20.51    1.51
  -3   6   0   21.55    1.58
   2  -6   0   20.54    1.68
   2  -6   0   23.42    1.71
   2  -6   0   21.01    1.45
   2  -6   0   19.57    1.35
  -2   6   0   18.79    1.41
  -2   6   0   18.97    1.45
   1  -6   0   22.31    1.56
   1  -6   0   20.70    1.45
   1  -6   0   26.33    1.94
   1  -6   0   22.69    1.87
  -1   6   0   22.42    1.55
  -1   6   0   22.17    1.60
   0  -6   0   80.86    6.01
   0  -6   0   86.36    6.22
   0  -6   0   77.74    4.66
   0  -6   0   76.58    4.85
   0   6   0   81.24    4.85
   0   6   0   83.68    5.30
   0   6   0   74.85    5.13
  -1  -6   0    1.01    0.44
  -1  -6   0    0.75    0.38
  -1  -6   0    1.53    0.41
  -1  -6   0    1.17    0.25
   1   6   0    1.93    0.43
   1   6   0    1.64    0.33
   1   6   0    0.30    0.35
  -2  -6   0   47.04    3.53
  -2  -6   0   42.35    2.75
  -2  -6   0   40.41    3.34
   2   6   0   44.20    3.17
   2   6   0   42.63    2.88
   2   6   0   42.46    2.74
   2   6   0   41.74    2.81
   2   6   0   42.83    2.73
  -3  -6   0   31.52    2.65
  -3  -6   0   30.98    2.79
  -3  -6   0   32.71    2.19
   3   6   0   33.17    2.18
   3   6   0   34.84    2.54
   3   6   0   34.33    2.17
   3   6   0   32.18    2.29
  -4  -6   0    8.45    0.82
  -4  -6   0    6.58    0.87
  -4  -6   0    6.01    1.00
   4   6   0    8.90    0.94
   4   6   0    6.99    0.79
   4   6   0    7.20    0.72
   4   6   0    7.37    0.77
  -5  -6   0   15.08    1.24
  -5  -6   0   15.19    1.70
  -5  -6   0   15.37    1.53
   5   6   0   16.15    1.27
   5   6   0   17.21    1.35
   5   6   0   16.44    1.56
  -6  -6   0    3.45    0.87
  -6  -6   0    3.16    0.70
   6   6   0    4.72    0.69
   6   6   0    4.73    0.86
   7   6   0    3.33    0.85
   8  -7   0    0.57    0.54
   8  -7   0    1.15    0.51
  -8   7   0    1.14    0.51
  -8   7   0    1.03    0.65
  -8   7   0    0.45    0.41
   7  -7   0    7.38    0.84
   7  -7   0    7.56    0.92
  -7   7   0    7.65    0.87
   6  -7   0   12.10    1.09
   6  -7   0   12.51    1.14
   6  -7   0   12.94    1.05
  -6   7   0   12.55    1.12
  -6   7   0   13.46    1.08
   5  -7   0    9.57    0.96
   5  -7   0   10.83    0.88
   5  -7   0    8.90    0.92
  -5   7   0    9.06    0.92
  -5   7   0   10.55    0.95
   4  -7   0    0.04    0.36
   4  -7   0    1.16    0.39
  -4   7   0    1.35    0.41
  -4   7   0    0.40    0.37
   3  -7   0  106.01    7.68
   3  -7   0  106.81    6.10
   3  -7   0   93.33    7.50
   3  -7   0  100.72    5.94
  -3   7   0   99.97    6.06
  -3   7   0   99.57    6.44
   2  -7   0    0.38    0.28
   2  -7   0    0.38    0.32
   2  -7   0    0.65    0.30
   2  -7   0    0.22    0.29
  -2   7   0    0.38    0.32
  -2   7   0    0.42    0.34
   1  -7   0   53.76    4.10
   1  -7   0   53.37    3.36
   1  -7   0   61.05    4.24
   1  -7   0   49.76    3.19
  -1   7   0   52.82    3.63
  -1   7   0   50.67    3.33
  -1   7   0   52.09    3.51
   0  -7   0    0.52    0.36
   0  -7   0    0.30    0.29
   0  -7   0    1.42    0.44
   0  -7   0    0.05    0.39
   0   7   0    1.07    0.43
   0   7   0    0.10    0.34
   0   7   0   -0.01    0.37
  -1  -7   0   43.30    3.39
  -1  -7   0   44.86    2.57
  -1  -7   0   45.17    3.53
  -1  -7   0   38.95    2.77
   1   7   0   41.78    2.77
   1   7   0   41.04    3.14
   1   7   0   46.92    2.93
  -2  -7   0   14.78    1.44
  -2  -7   0   12.03    1.31
  -2  -7   0   13.12    1.14
   2   7   0   14.36    1.15
   2   7   0   14.23    1.15
   2   7   0   13.90    1.20
   2   7   0   14.63    1.05
  -3  -7   0    6.86    1.00
  -3  -7   0    5.21    0.81
  -3  -7   0    5.77    0.77
   3   7   0    6.90    0.68
   3   7   0    7.42    0.83
   3   7   0    8.02    0.83
  -4  -7   0    8.24    1.16
  -4  -7   0   10.96    1.03
  -4  -7   0   12.30    1.38
   4   7   0   13.25    1.06
   4   7   0   12.04    1.18
   4   7   0   11.32    0.97
  -5  -7   0   10.66    1.27
  -5  -7   0   10.93    1.47
   5   7   0   12.82    1.34
   5   7   0   12.70    1.09
   6   7   0    7.53    0.90
   6   7   0    6.38    1.05
   8  -8   0   10.34    1.06
   7  -8   0   30.66    2.14
   7  -8   0   28.51    2.01
  -7   8   0   28.83    2.14
  -7   8   0   29.99    2.33
   6  -8   0   12.88    1.17
   6  -8   0   12.71    1.08
   6  -8   0   12.71    1.16
  -6   8   0   13.85    1.13
  -6   8   0   11.71    1.13
   5  -8   0   31.57    2.30
   5  -8   0   36.53    2.32
   5  -8   0   34.38    2.21
  -5   8   0   34.91    2.42
  -5   8   0   34.38    2.29
   4  -8   0   27.22    2.29
   4  -8   0   31.09    2.02
   4  -8   0   30.70    1.97
  -4   8   0   27.30    2.04
  -4   8   0   27.98    1.96
   3  -8   0    0.21    0.25
   3  -8   0    0.13    0.34
   3  -8   0    0.09    0.28
   3  -8   0   -0.22    0.36
  -3   8   0   -0.56    0.35
  -3   8   0   -0.12    0.35
   2  -8   0   43.88    2.84
   2  -8   0   55.19    3.70
   2  -8   0   46.28    3.59
   2  -8   0   41.94    2.97
  -2   8   0   45.80    3.11
  -2   8   0   47.01    2.97
  -2   8   0   41.46    3.22
   1  -8   0    4.58    0.69
   1  -8   0    6.15    0.76
   1  -8   0    3.94    0.56
   1  -8   0    5.38    0.76
  -1   8   0    5.42    0.72
  -1   8   0    5.74    0.69
  -1   8   0    4.15    0.65
   0  -8   0   44.26    3.53
   0  -8   0   44.09    2.63
   0  -8   0   44.36    2.84
   0  -8   0   40.01    3.39
   0   8   0   45.88    2.82
   0   8   0   44.32    2.97
   0   8   0   39.64    2.94
  -1  -8   0    3.77    0.65
  -1  -8   0    4.91    0.79
  -1  -8   0    3.26    0.61
   1   8   0    3.76    0.62
   1   8   0    4.41    0.50
   1   8   0    2.63    0.61
  -2  -8   0   13.96    1.39
  -2  -8   0   16.37    1.53
  -2  -8   0   15.25    1.25
   2   8   0   13.18    1.08
   2   8   0   12.96    1.19
  -3  -8   0    4.74    0.90
  -3  -8   0    4.19    0.77
  -3  -8   0    5.91    0.80
   3   8   0    5.28    0.76
   3   8   0    6.11    0.63
  -4  -8   0    8.04    0.89
  -4  -8   0    6.42    0.95
  -4  -8   0    6.37    1.09
   4   8   0    6.47    0.84
   4   8   0    8.32    0.81
   5   8   0    1.16    0.52
   7  -9   0   -0.25    0.49
   7  -9   0    0.65    0.48
  -7   9   0    0.22    0.60
  -7   9   0   -0.08    0.51
   6  -9   0   14.93    1.30
   6  -9   0   15.10    1.28
   6  -9   0   13.46    1.18
  -6   9   0   13.54    1.40
  -6   9   0   13.37    1.28
  -6   9   0   14.03    1.22
   5  -9   0   12.08    1.11
   5  -9   0   10.81    1.12
   5  -9   0   11.74    1.03
  -5   9   0   13.57    1.11
  -5   9   0   11.68    1.22
  -5   9   0    9.99    1.09
   4  -9   0   24.28    1.69
   4  -9   0   22.57    1.96
   4  -9   0   23.04    1.75
  -4   9   0   22.83    1.71
  -4   9   0   23.33    1.77
  -4   9   0   22.66    1.88
   3  -9   0    6.73    0.75
   3  -9   0    4.97    0.76
   3  -9   0    6.72    0.80
  -3   9   0    5.12    0.75
  -3   9   0    5.83    0.85
  -3   9   0    5.94    0.79
   2  -9   0   28.88    2.35
   2  -9   0   25.76    1.88
   2  -9   0   26.42    2.01
   2  -9   0   31.49    2.40
  -2   9   0   27.24    2.07
  -2   9   0   28.85    2.15
  -2   9   0   27.67    2.00
   1  -9   0   21.41    1.91
   1  -9   0   20.50    1.83
   1  -9   0   19.95    1.60
   1  -9   0   19.57    1.46
  -1   9   0   21.83    1.59
  -1   9   0   20.05    1.65
  -1   9   0   22.53    1.67
   0  -9   0    0.14    0.43
   0  -9   0   -0.09    0.42
   0  -9   0    0.06    0.46
   0   9   0    0.12    0.43
   0   9   0    0.27    0.51
  -1  -9   0   15.63    1.64
  -1  -9   0   18.31    1.51
  -1  -9   0   19.07    1.79
   1   9   0   17.29    1.46
   1   9   0   18.21    1.30
   1   9   0   19.83    1.54
  -2  -9   0    2.45    0.70
  -2  -9   0    1.58    0.55
  -2  -9   0    0.52    0.50
   2   9   0    0.44    0.49
   2   9   0    1.44    0.39
  -3  -9   0    2.14    0.62
  -3  -9   0    2.80    0.78
  -3  -9   0    1.89    0.60
   3   9   0    3.28    0.52
   3   9   0    2.69    0.68
  -4  -9   0    0.48    0.48
   6 -10   0    9.13    0.95
   6 -10   0    6.47    0.90
   6 -10   0    8.79    1.02
  -6  10   0    6.61    0.90
  -6  10   0    6.63    1.03
   5 -10   0    9.18    0.97
   5 -10   0    7.38    0.94
   5 -10   0    9.31    1.07
  -5  10   0    9.18    1.13
  -5  10   0    9.66    1.09
  -5  10   0   10.21    1.05
   4 -10   0   28.49    2.03
   4 -10   0   29.31    2.12
  -4  10   0   30.29    2.30
  -4  10   0   28.94    2.08
  -4  10   0   28.00    2.17
   3 -10   0   -0.28    0.34
   3 -10   0   -0.10    0.43
   3 -10   0   -0.40    0.41
  -3  10   0    0.08    0.44
  -3  10   0   -0.41    0.53
  -3  10   0    0.36    0.52
   2 -10   0   15.08    1.33
   2 -10   0   14.96    1.45
   2 -10   0   13.82    1.21
  -2  10   0   16.61    1.42
  -2  10   0   14.34    1.36
  -2  10   0   15.05    1.31
   1 -10   0    0.81    0.46
   1 -10   0    0.10    0.46
  -1  10   0    1.59    0.57
  -1  10   0    0.73    0.46
   0 -10   0   20.69    1.74
   0 -10   0   25.25    2.11
   0 -10   0   20.62    1.97
   0  10   0   21.27    1.70
  -1 -10   0    3.49    0.82
  -1 -10   0    3.01    0.68
  -1 -10   0    2.85    0.69
   1  10   0    4.62    0.75
  -2 -10   0    4.13    0.88
  -2 -10   0    4.32    0.78
  -2 -10   0    2.81    0.72
   2  10   0    4.37    0.77
  -3 -10   0    4.52    0.78
   3  10   0    5.57    0.84
   5 -11   0   13.84    1.29
   4 -11   0    0.88    0.53
  -4  11   0    2.16    0.69
  -4  11   0    0.77    0.64
   3 -11   0   18.70    1.52
  -3  11   0   20.19    1.77
  -3  11   0   21.01    1.75
   2 -11   0    1.80    0.53
  -2  11   0    3.24    0.73
   1 -11   0    4.02    0.72
   0 -11   0    0.22    0.48
  -1 -11   0   15.52    1.73
  -1 -11   1    2.12    0.74
   0 -11   1    6.52    0.96
  -1  11  -1    5.89    0.92
   1 -11   1    4.82    0.81
  -2  11  -1    7.55    1.03
  -2  11  -1    5.43    0.87
   2 -11   1    6.93    0.92
   2 -11   1    7.22    0.96
  -3  11  -1    1.13    0.57
  -3  11  -1    0.96    0.64
  -3  11  -1    1.88    0.69
   3 -11   1    0.82    0.58
   3 -11   1    0.85    0.53
   3 -11   1    1.50    0.51
  -4  11  -1   13.76    1.43
  -4  11  -1   13.26    1.41
  -4  11  -1   14.05    1.30
   4 -11   1   11.96    1.31
   4 -11   1   13.17    1.24
   5 -11   1    0.95    0.56
   3  10  -1    0.45    0.50
  -3 -10   1   -0.10    0.49
   2  10  -1    0.27    0.47
  -2 -10   1    0.20    0.51
  -2 -10   1   -0.11    0.47
  -2 -10   1    0.32    0.56
   1  10  -1   10.77    1.16
  -1 -10   1   11.42    1.28
  -1 -10   1    9.60    1.15
  -1 -10   1   12.26    1.38
   0  10  -1    0.57    0.59
   0  10  -1    0.04    0.46
   0 -10   1    0.50    0.51
   0 -10   1    0.49    0.47
   0 -10   1    0.30    0.50
  -1  10  -1   14.94    1.41
  -1  10  -1   13.31    1.30
   1 -10   1   15.12    1.36
   1 -10   1   14.22    1.45
   1 -10   1   17.03    1.53
  -2  10  -1    3.26    0.69
  -2  10  -1    3.95    0.67
  -2  10  -1    3.40    0.74
   2 -10   1    4.02    0.60
   2 -10   1    3.82    0.69
   2 -10   1    3.54    0.64
  -3  10  -1   31.56    2.22
  -3  10  -1   31.17    2.36
  -3  10  -1   33.60    2.44
   3 -10   1   31.79    2.13
   3 -10   1   32.37    2.25
   3 -10   1   29.24    2.59
  -4  10  -1    7.85    0.99
  -4  10  -1    7.25    0.96
  -4  10  -1    7.64    0.89
   4 -10   1    6.09    0.85
   4 -10   1    6.83    0.84
   4 -10   1    5.88    0.84
  -5  10  -1    4.72    0.82
  -5  10  -1    3.20    0.68
  -5  10  -1    5.27    0.82
   5 -10   1    2.27    0.59
   5 -10   1    3.86    0.72
   5 -10   1    4.48    0.75
  -6  10  -1   15.47    1.37
  -6  10  -1   15.32    1.52
   6 -10   1   15.01    1.38
   6 -10   1   17.87    1.43
   6 -10   1   14.51    1.29
   4   9  -1    0.25    0.50
   4   9  -1    0.79    0.40
  -4  -9   1   -0.11    0.45
   3   9  -1    1.84    0.63
   3   9  -1    2.62    0.50
  -3  -9   1    1.49    0.68
  -3  -9   1    2.08    0.65
  -3  -9   1    2.35    0.62
   2   9  -1   25.70    1.83
   2   9  -1   23.69    1.69
  -2  -9   1   24.11    2.26
  -2  -9   1   24.82    1.84
  -2  -9   1   22.30    2.10
   1   9  -1    5.63    0.80
   1   9  -1    7.82    0.90
  -1  -9   1    5.58    0.86
  -1  -9   1    5.31    0.81
  -1  -9   1    6.40    0.97
   0   9  -1   17.68    1.41
   0   9  -1   16.40    1.46
   0  -9   1   18.46    1.69
   0  -9   1   18.26    1.45
   0  -9   1   16.25    1.60
  -1   9  -1    2.93    0.66
  -1   9  -1    3.39    0.59
  -1   9  -1    3.71    0.61
   1  -9   1    3.26    0.65
   1  -9   1    2.88    0.58
   1  -9   1    1.99    0.48
   1  -9   1    2.45    0.57
  -2   9  -1   29.58    2.29
  -2   9  -1   28.88    2.16
  -2   9  -1   32.65    2.36
   2  -9   1   30.35    2.58
   2  -9   1   35.25    2.65
   2  -9   1   32.16    2.08
   2  -9   1   30.97    2.21
  -3   9  -1   -0.04    0.49
  -3   9  -1    1.20    0.53
  -3   9  -1    0.43    0.45
   3  -9   1    0.81    0.47
   3  -9   1    0.65    0.42
   3  -9   1    0.33    0.36
  -4   9  -1   15.69    1.33
  -4   9  -1   18.69    1.43
  -4   9  -1   15.77    1.49
   4  -9   1   17.43    1.40
   4  -9   1   15.98    1.31
   4  -9   1   15.44    1.48
  -5   9  -1    7.92    0.95
  -5   9  -1   10.22    1.13
  -5   9  -1    8.37    1.00
   5  -9   1   10.25    0.95
   5  -9   1    7.80    0.93
   5  -9   1   10.00    1.01
  -6   9  -1   12.09    1.24
  -6   9  -1   14.63    1.21
  -6   9  -1   12.83    1.37
   6  -9   1   13.88    1.27
   6  -9   1   14.35    1.17
   6  -9   1   13.55    1.22
  -7   9  -1    5.78    0.84
  -7   9  -1    4.43    0.88
   7  -9   1    5.10    0.74
   7  -9   1    4.20    0.80
   5   8  -1    5.58    0.77
   4   8  -1    4.37    0.67
   4   8  -1    3.31    0.59
   4   8  -1    4.22    0.75
  -4  -8   1    3.71    0.74
  -4  -8   1    4.64    0.69
  -4  -8   1    4.17    0.90
   3   8  -1    5.22    0.80
   3   8  -1    7.67    0.75
   3   8  -1    7.28    0.86
  -3  -8   1    6.67    0.91
  -3  -8   1    6.95    1.07
  -3  -8   1    6.11    0.86
   2   8  -1    5.22    0.74
   2   8  -1    5.15    0.66
   2   8  -1    3.79    0.62
   2   8  -1    5.72    0.59
  -2  -8   1    6.39    0.93
  -2  -8   1    4.69    0.71
  -2  -8   1    3.98    0.71
   1   8  -1   14.49    1.15
   1   8  -1   11.84    1.19
   1   8  -1   13.41    1.14
  -1  -8   1   13.01    1.15
  -1  -8   1   13.22    1.38
  -1  -8   1   12.77    1.29
   0   8  -1    1.21    0.52
   0   8  -1    1.34    0.41
   0   8  -1    1.62    0.47
   0  -8   1    1.21    0.37
   0  -8   1    1.51    0.49
   0  -8   1    0.56    0.45
   0  -8   1    1.67    0.47
  -1   8  -1   46.00    3.39
  -1   8  -1   50.44    3.22
  -1   8  -1   53.68    3.49
   1  -8   1   48.57    3.06
   1  -8   1   55.55    4.06
   1  -8   1   48.27    3.91
   1  -8   1   50.39    3.24
  -2   8  -1    0.49    0.42
  -2   8  -1    1.57    0.51
  -2   8  -1   -0.09    0.47
   2  -8   1    0.99    0.40
   2  -8   1    0.61    0.37
   2  -8   1    0.70    0.43
   2  -8   1    0.35    0.36
  -3   8  -1   57.62    3.68
  -3   8  -1   58.75    4.07
  -3   8  -1   58.93    3.90
   3  -8   1   63.80    4.58
   3  -8   1   60.59    3.60
   3  -8   1   62.36    3.73
   3  -8   1   50.54    4.47
  -4   8  -1   54.53    3.78
  -4   8  -1   57.65    3.98
  -4   8  -1   55.70    3.57
   4  -8   1   57.66    3.53
   4  -8   1   59.53    3.62
  -5   8  -1    1.27    0.43
  -5   8  -1    0.79    0.48
  -5   8  -1    0.85    0.53
   5  -8   1    1.34    0.45
   5  -8   1    1.16    0.48
   5  -8   1    0.93    0.39
  -6   8  -1    7.64    0.84
  -6   8  -1    7.18    0.89
  -6   8  -1    6.42    0.94
   6  -8   1    5.75    0.84
   6  -8   1    8.25    0.83
   6  -8   1    7.73    0.87
  -7   8  -1    0.53    0.58
  -7   8  -1    0.73    0.52
   7  -8   1    0.15    0.49
   7  -8   1    0.62    0.45
   6   7  -1    4.30    0.73
   6   7  -1    3.28    0.82
   5   7  -1    7.32    1.02
   5   7  -1    7.52    0.83
  -5  -7   1    6.95    0.98
  -5  -7   1    6.91    1.12
   4   7  -1    6.72    0.71
   4   7  -1    5.56    0.79
   4   7  -1    5.07    0.69
  -4  -7   1    5.00    0.71
  -4  -7   1    4.60    0.78
  -4  -7   1    5.04    0.92
   3   7  -1   42.02    2.79
   3   7  -1   44.06    3.26
   3   7  -1   45.60    2.81
  -3  -7   1   42.48    3.59
  -3  -7   1   39.84    3.39
  -3  -7   1   43.91    2.82
   2   7  -1   35.12    2.56
   2   7  -1   41.03    2.85
   2   7  -1   41.91    2.50
   2   7  -1   33.94    2.42
  -2  -7   1   37.08    2.48
  -2  -7   1   35.63    2.99
  -2  -7   1   39.31    3.17
   1   7  -1   20.06    1.66
   1   7  -1   22.35    1.54
   1   7  -1   20.83    1.62
   1   7  -1   21.36    1.52
  -1  -7   1   20.91    1.34
  -1  -7   1   22.53    1.94
  -1  -7   1   19.57    1.80
  -1  -7   1   22.01    1.56
   0   7  -1  176.94   12.81
   0   7  -1  189.10   10.80
   0   7  -1  173.53   11.48
   0   7  -1  189.38   11.89
   0  -7   1  184.90   10.46
   0  -7   1  179.55   13.47
   0  -7   1  169.80   10.79
   0  -7   1  196.57   13.91
  -1   7  -1    1.63    0.45
  -1   7  -1    0.96    0.42
  -1   7  -1    1.16    0.41
   1  -7   1    1.58    0.42
   1  -7   1    0.90    0.34
   1  -7   1    1.53    0.44
   1  -7   1    0.80    0.40
  -2   7  -1   63.44    4.36
  -2   7  -1   68.62    4.54
  -2   7  -1   64.55    4.11
   2  -7   1   64.31    5.06
   2  -7   1   66.43    4.13
   2  -7   1   63.80    3.99
   2  -7   1   76.73    5.21
  -3   7  -1    1.64    0.45
  -3   7  -1    1.61    0.54
  -3   7  -1    2.74    0.51
   3  -7   1    2.50    0.42
   3  -7   1    1.67    0.44
   3  -7   1    1.42    0.44
   3  -7   1    1.77    0.37
  -4   7  -1   81.07    5.04
  -4   7  -1   82.78    5.37
  -4   7  -1   85.91    5.63
   4  -7   1   83.73    5.07
   4  -7   1   82.26    4.97
  -5   7  -1   77.49    5.23
  -5   7  -1   74.86    4.97
  -5   7  -1   78.81    4.67
   5  -7   1   72.57    4.67
   5  -7   1   75.20    4.64
   5  -7   1   80.28    4.52
  -6   7  -1   19.11    1.32
  -6   7  -1   17.50    1.51
  -6   7  -1   16.33    1.35
   6  -7   1   16.79    1.27
   6  -7   1   17.37    1.31
   6  -7   1   15.05    1.34
  -7   7  -1   22.26    1.78
  -7   7  -1   19.23    1.57
   7  -7   1   20.31    1.61
   7  -7   1   20.41    1.50
  -8   7  -1    1.04    0.51
  -8   7  -1    0.40    0.59
   8  -7   1    1.58    0.59
   8  -7   1    2.20    0.57
   7   6  -1    1.45    0.64
   6   6  -1   12.35    1.10
   6   6  -1   12.19    1.37
  -6  -6   1   11.21    1.49
  -6  -6   1   11.02    1.28
   5   6  -1    7.87    0.84
   5   6  -1    9.34    0.87
   5   6  -1    8.40    1.03
  -5  -6   1    6.17    0.93
  -5  -6   1    7.34    1.12
  -5  -6   1    8.35    0.83
   4   6  -1   24.54    2.05
   4   6  -1   24.93    1.71
   4   6  -1   26.07    1.75
  -4  -6   1   25.87    2.12
  -4  -6   1   23.39    2.25
  -4  -6   1   24.01    1.72
   3   6  -1   56.54    4.00
   3   6  -1   51.23    3.36
   3   6  -1   55.36    3.43
   3   6  -1   55.32    3.59
  -3  -6   1   55.96    4.38
  -3  -6   1   52.02    3.37
  -3  -6   1   50.48    4.16
   2   6  -1   77.18    4.45
   2   6  -1   71.24    5.23
   2   6  -1   73.34    4.65
   2   6  -1   70.32    4.50
  -2  -6   1   72.65    5.71
  -2  -6   1   70.27    5.49
  -2  -6   1   73.93    4.46
   1   6  -1  154.02   11.48
   1   6  -1  173.85    9.65
   1   6  -1  173.02   10.60
   1   6  -1  163.22   10.26
  -1  -6   1  171.27    9.31
  -1  -6   1  152.31   12.03
  -1  -6   1  175.71   12.46
  -1  -6   1  140.74    9.62
   0   6  -1   13.64    1.05
   0   6  -1   13.60    1.10
   0   6  -1   13.71    1.06
   0  -6   1   12.21    1.21
   0  -6   1   15.55    1.30
   0  -6   1   12.70    0.92
   0  -6   1   12.94    1.06
  -1   6  -1   88.74    5.81
  -1   6  -1   81.31    5.59
  -1   6  -1   84.20    5.26
   1  -6   1   85.46    6.55
   1  -6   1   85.24    5.11
   1  -6   1   86.23    5.29
   1  -6   1  102.47    6.77
  -2   6  -1   39.29    2.52
  -2   6  -1   38.66    2.65
  -2   6  -1   39.06    2.78
   2  -6   1   39.50    3.06
   2  -6   1   37.83    2.44
   2  -6   1   40.16    2.54
   2  -6   1   43.71    3.14
  -3   6  -1  213.92   12.94
  -3   6  -1  212.02   13.81
  -3   6  -1  210.24   14.25
   3  -6   1  224.89   12.71
   3  -6   1  224.86   12.97
   3  -6   1  218.88   16.21
   3  -6   1  241.55   16.64
  -4   6  -1    9.26    0.80
  -4   6  -1    7.11    0.75
   4  -6   1    7.64    0.79
   4  -6   1    6.86    0.79
   4  -6   1    8.26    0.73
   4  -6   1    7.96    0.79
  -5   6  -1    2.01    0.40
  -5   6  -1    1.63    0.43
   5  -6   1    1.98    0.39
   5  -6   1    1.59    0.39
   5  -6   1    0.94    0.42
  -6   6  -1    5.69    0.70
  -6   6  -1    4.75    0.60
  -6   6  -1    5.97    0.63
  -6   6  -1    4.94    0.77
   6  -6   1    4.97    0.71
   6  -6   1    6.35    0.64
   6  -6   1    5.29    0.64
  -7   6  -1   17.78    1.58
  -7   6  -1   17.43    1.41
  -7   6  -1   18.23    1.34
   7  -6   1   18.53    1.34
   7  -6   1   16.75    1.43
  -8   6  -1   16.00    1.35
  -8   6  -1   16.65    1.54
  -8   6  -1   15.09    1.26
   8  -6   1   16.31    1.29
   8  -6   1   17.67    1.44
  -9   6  -1   -0.03    0.37
  -9   6  -1   -0.09    0.52
  -9   6  -1   -0.28    0.61
   9  -6   1   -0.53    0.46
   7   5  -1    9.86    1.01
   7   5  -1   10.32    1.26
  -7  -5   1    7.92    1.24
  -7  -5   1    7.63    1.06
   6   5  -1    0.64    0.57
   6   5  -1    0.20    0.43
  -6  -5   1    0.14    0.52
  -6  -5   1   -0.43    0.43
   5   5  -1    1.29    0.51
   5   5  -1    1.51    0.43
   5   5  -1    1.20    0.37
  -5  -5   1    1.30    0.46
  -5  -5   1    1.42    0.55
  -5  -5   1    1.35    0.37
   4   5  -1    0.86    0.34
   4   5  -1    1.27    0.36
   4   5  -1    0.85    0.42
  -4  -5   1    0.63    0.37
  -4  -5   1    1.20    0.47
  -4  -5   1    1.51    0.37
   3   5  -1   39.56    2.40
   3   5  -1   34.98    2.36
   3   5  -1   39.47    2.53
   3   5  -1   39.65    2.82
  -3  -5   1   36.14    2.91
  -3  -5   1   34.97    2.37
  -3  -5   1   32.85    3.06
   2   5  -1  274.77   14.69
   2   5  -1  247.07   16.15
   2   5  -1  257.90   15.20
   2   5  -1  260.08   17.63
   2   5  -1  241.71   15.61
  -2  -5   1  236.04   14.67
  -2  -5   1  227.57   18.99
  -2  -5   1  263.30   18.43
   1   5  -1    8.48    0.69
   1   5  -1    6.64    0.68
   1   5  -1    8.26    0.74
  -1  -5   1    6.34    0.80
  -1  -5   1    6.05    0.65
  -1  -5   1    6.11    0.76
  -1  -5   1    6.66    0.51
   0   5  -1   54.94    3.39
   0   5  -1   52.52    3.61
   0   5  -1   52.46    3.69
   0  -5   1   53.81    3.40
   0  -5   1   52.59    4.20
   0  -5   1   65.15    4.37
   0  -5   1   58.05    3.25
  -1   5  -1  107.78    6.35
  -1   5  -1   97.67    6.74
  -1   5  -1  103.16    7.03
  -1   5  -1  111.58    6.17
   1  -5   1  107.91    7.92
   1  -5   1  105.62    6.36
   1  -5   1  121.98    8.17
   1  -5   1   99.83    6.17
  -2   5  -1  391.91   25.14
  -2   5  -1  403.59   23.55
  -2   5  -1  373.97   26.01
  -2   5  -1  443.14   30.43
   2  -5   1  396.22   27.37
   2  -5   1  412.05   23.08
   2  -5   1  428.55   30.42
   2  -5   1  419.03   23.56
   2  -5   1  380.80   29.57
  -3   5  -1   16.04    1.15
  -3   5  -1   12.17    1.02
  -3   5  -1   13.48    0.99
  -3   5  -1   12.40    1.02
   3  -5   1   13.27    1.00
   3  -5   1   12.32    1.08
   3  -5   1   13.09    1.01
  -4   5  -1  176.85   11.77
  -4   5  -1  183.40   11.01
  -4   5  -1  196.83   14.15
   4  -5   1  188.48   10.65
   4  -5   1  179.24   10.85
   4  -5   1  191.24   12.73
   4  -5   1  199.82   11.04
  -5   5  -1   94.79    5.83
  -5   5  -1   96.68    5.70
  -5   5  -1   96.29    6.12
   5  -5   1  102.15    5.73
   5  -5   1   96.32    5.55
   5  -5   1   88.86    5.68
  -6   5  -1    2.14    0.36
  -6   5  -1    1.78    0.45
  -6   5  -1    2.21    0.38
  -6   5  -1    2.10    0.52
   6  -5   1    1.97    0.35
   6  -5   1    1.97    0.41
   6  -5   1    1.11    0.44
  -7   5  -1   41.80    2.94
  -7   5  -1   45.29    3.17
  -7   5  -1   42.87    2.80
   7  -5   1   46.25    2.86
   7  -5   1   43.26    2.73
  -8   5  -1    0.82    0.49
  -8   5  -1    0.67    0.35
  -8   5  -1   -0.20    0.53
   8  -5   1    0.92    0.42
   8  -5   1    0.17    0.47
  -9   5  -1   13.93    1.19
  -9   5  -1   15.81    1.49
  -9   5  -1   15.91    1.29
   9  -5   1   12.46    1.19
  -8  -4   1   16.08    1.83
  -8  -4   1   16.12    1.61
   7   4  -1    1.91    0.56
   7   4  -1    1.56    0.64
  -7  -4   1    1.91    0.70
  -7  -4   1    1.72    0.57
   6   4  -1    1.85    0.47
   6   4  -1    1.16    0.52
  -6  -4   1    1.02    0.55
  -6  -4   1    0.08    0.39
   5   4  -1   16.09    1.16
   5   4  -1   16.98    1.50
   5   4  -1   19.34    1.27
  -5  -4   1   14.84    1.14
  -5  -4   1   15.56    1.61
  -5  -4   1   15.81    1.47
   4   4  -1   37.44    2.43
   4   4  -1   32.76    2.68
   4   4  -1   38.37    2.30
   4   4  -1   35.24    2.21
  -4  -4   1   32.76    2.20
  -4  -4   1   31.34    2.91
  -4  -4   1   35.81    2.76
   3   4  -1   90.56    5.81
   3   4  -1   87.40    5.29
   3   4  -1   88.32    5.47
   3   4  -1   90.14    6.37
  -3  -4   1   96.26    5.62
  -3  -4   1   86.65    5.29
  -3  -4   1   87.69    6.62
  -3  -4   1   82.20    6.86
   2   4  -1  534.61   33.64
   2   4  -1  516.23   36.62
   2   4  -1  518.18   32.43
   2   4  -1  513.87   30.39
   2   4  -1  541.08   31.58
  -2  -4   1  542.91   38.24
  -2  -4   1  555.65   32.47
  -2  -4   1  498.85   30.40
  -2  -4   1  496.35   39.39
   1   4  -1  770.12   42.54
   1   4  -1  709.98   45.47
   1   4  -1  728.77   51.25
  -1  -4   1  728.20   41.60
  -1  -4   1  761.75   55.12
  -1  -4   1  735.71   45.44
  -1  -4   1  709.80   42.54
   0   4  -1    5.77    0.57
   0   4  -1    4.42    0.52
   0   4  -1    4.57    0.46
   0   4  -1    4.40    0.47
   0   4  -1    4.70    0.38
   0  -4   1    4.29    0.40
   0  -4   1    6.13    0.61
   0  -4   1    4.42    0.57
   0  -4   1    3.94    0.47
   0  -4   1    5.36    0.51
  -1   4  -1   90.91    5.36
  -1   4  -1   83.25    6.68
  -1   4  -1   83.79    5.70
  -1   4  -1   95.15    5.23
  -1   4  -1  100.80    6.89
  -1   4  -1   86.60    5.94
   1  -4   1   90.60    5.23
   1  -4   1   84.61    5.70
   1  -4   1   85.08    6.68
   1  -4   1  102.80    6.90
   1  -4   1   90.64    5.37
  -2   4  -1    2.95    0.36
  -2   4  -1    3.46    0.41
  -2   4  -1    3.73    0.40
  -2   4  -1    4.29    0.37
  -2   4  -1    2.46    0.35
  -2   4  -1    2.56    0.36
   2  -4   1    2.70    0.35
   2  -4   1    3.25    0.39
   2  -4   1    3.37    0.39
   2  -4   1    2.72    0.36
   2  -4   1    2.74    0.37
  -3   4  -1   22.96    1.58
  -3   4  -1   20.71    1.75
  -3   4  -1   21.18    1.45
  -3   4  -1   23.00    1.46
  -3   4  -1   20.25    1.54
  -3   4  -1   24.84    1.78
   3  -4   1   21.65    1.47
   3  -4   1   23.51    1.62
   3  -4   1   24.87    1.48
   3  -4   1   24.08    1.48
   3  -4   1   21.45    1.39
  -4   4  -1    5.47    0.64
  -4   4  -1    6.21    0.57
  -4   4  -1    7.35    0.65
  -4   4  -1    7.51    0.62
  -4   4  -1    7.04    0.59
  -4   4  -1    6.61    0.56
   4  -4   1    6.10    0.60
   4  -4   1    8.28    0.63
   4  -4   1    5.89    0.65
   4  -4   1    6.38    0.60
  -5   4  -1  168.12    9.90
  -5   4  -1  167.08   10.15
  -5   4  -1  186.56   12.77
  -5   4  -1  164.92   10.62
  -5   4  -1  156.29    9.89
   5  -4   1  156.48    9.81
   5  -4   1  173.70    9.90
   5  -4   1  174.64    9.63
   5  -4   1  176.24    9.92
  -6   4  -1    1.62    0.27
  -6   4  -1    1.88    0.51
  -6   4  -1    1.54    0.32
  -6   4  -1    2.00    0.43
   6  -4   1    1.92    0.38
   6  -4   1    1.42    0.42
   6  -4   1    2.10    0.30
  -7   4  -1    5.78    0.80
  -7   4  -1    5.63    0.68
  -7   4  -1    5.23    0.58
   7  -4   1    4.92    0.68
   7  -4   1    5.11    0.61
  -8   4  -1   30.43    2.10
  -8   4  -1   26.76    1.86
  -8   4  -1   25.55    1.76
   8  -4   1   22.69    1.83
   8  -4   1   22.57    1.72
  -9   4  -1    1.98    0.68
  -9   4  -1    1.41    0.44
  -9   4  -1    1.51    0.56
   9  -4   1    1.71    0.53
 -10   4  -1    4.27    0.87
   8   3  -1    3.77    0.85
   8   3  -1    3.92    0.72
  -8  -3   1    4.68    0.79
  -8  -3   1    5.16    0.98
   7   3  -1   16.49    1.26
   7   3  -1   13.24    1.49
  -7  -3   1   16.09    1.46
  -7  -3   1   13.74    1.61
   6   3  -1    5.55    0.64
   6   3  -1    4.81    0.78
  -6  -3   1    4.33    0.69
  -6  -3   1    5.76    0.87
   5   3  -1  100.59    7.49
   5   3  -1  107.05    6.42
  -5  -3   1  101.32    8.05
  -5  -3   1  101.02    6.10
  -5  -3   1  108.71    7.76
   4   3  -1   24.21    1.73
   4   3  -1   25.06    1.56
   4   3  -1   23.85    1.55
   4   3  -1   24.48    1.62
   4   3  -1   22.65    1.91
  -4  -3   1   22.00    1.54
  -4  -3   1   21.60    1.53
  -4  -3   1   26.93    1.64
  -4  -3   1   24.81    2.10
  -4  -3   1   26.36    1.97
   3   3  -1    1.55    0.37
   3   3  -1    2.12    0.29
   3   3  -1    2.57    0.33
   3   3  -1    2.38    0.31
   3   3  -1    2.28    0.34
  -3  -3   1    2.26    0.30
  -3  -3   1    1.31    0.28
  -3  -3   1    2.42    0.30
  -3  -3   1    2.44    0.34
  -3  -3   1    1.94    0.42
  -3  -3   1    2.18    0.37
   2   3  -1  375.74   23.61
   2   3  -1  360.65   21.32
   2   3  -1  347.38   21.32
   2   3  -1  385.78   25.71
   2   3  -1  375.18   22.16
  -2  -3   1  376.48   27.65
  -2  -3   1  347.61   21.32
  -2  -3   1  375.01   23.60
  -2  -3   1  397.49   26.84
  -2  -3   1  324.81   21.31
  -2  -3   1  377.22   22.78
   1   3  -1    7.95    0.74
   1   3  -1   10.43    0.86
   1   3  -1   10.76    0.81
   1   3  -1    8.16    0.70
   1   3  -1    6.83    0.69
  -1  -3   1    9.89    0.73
  -1  -3   1    9.07    0.74
  -1  -3   1   10.12    0.86
  -1  -3   1   11.75    0.93
  -1  -3   1    9.26    0.72
   0   3  -1    6.49    0.66
   0   3  -1    8.05    0.69
   0   3  -1    6.06    0.61
   0   3  -1    7.08    0.56
   0   3  -1    7.01    0.58
   0   3  -1    7.39    0.58
   0   3  -1    7.26    0.49
   0  -3   1    7.63    0.67
   0  -3   1    6.68    0.57
   0  -3   1    6.47    0.56
   0  -3   1    6.96    0.59
   0  -3   1    9.16    0.72
   0  -3   1    7.07    0.50
  -1   3  -1   -0.30    0.12
  -1   3  -1   -0.11    0.18
  -1   3  -1   -0.01    0.13
  -1   3  -1   -0.36    0.11
  -1   3  -1   -0.17    0.15
  -1   3  -1   -0.01    0.14
   1  -3   1    0.08    0.17
   1  -3   1   -0.18    0.12
   1  -3   1   -0.19    0.11
   1  -3   1   -0.35    0.12
   1  -3   1    0.01    0.15
   1  -3   1   -0.20    0.14
  -2   3  -1    4.55    0.47
  -2   3  -1    4.47    0.50
  -2   3  -1    4.98    0.46
  -2   3  -1    4.87    0.48
  -2   3  -1    4.42    0.45
  -2   3  -1    5.64    0.46
   2  -3   1    5.04    0.50
   2  -3   1    4.44    0.46
   2  -3   1    5.79    0.49
   2  -3   1    5.14    0.50
   2  -3   1    5.07    0.47
   2  -3   1    4.80    0.44
  -3   3  -1  132.95    8.08
  -3   3  -1  140.35    8.97
  -3   3  -1  140.00   10.41
  -3   3  -1  137.20    8.65
  -3   3  -1  124.40   10.13
  -3   3  -1  130.26    8.08
  -3   3  -1  142.51    9.75
  -3   3  -1  135.18    8.26
   3  -3   1  131.41    8.08
   3  -3   1  133.44    7.82
   3  -3   1  151.95    8.09
   3  -3   1  157.87    7.99
   3  -3   1  144.21    9.37
  -4   3  -1  145.51    8.62
  -4   3  -1  135.20    8.23
  -4   3  -1  129.33    8.02
  -4   3  -1  128.64    8.02
   4  -3   1  142.33    7.81
   4  -3   1  127.88    8.02
   4  -3   1  146.43    8.03
   4  -3   1  146.76    7.97
  -5   3  -1  230.65   12.84
  -5   3  -1  229.51   13.79
  -5   3  -1  210.84   12.83
  -5   3  -1  218.89   13.19
   5  -3   1  233.62   12.50
   5  -3   1  219.49   12.84
   5  -3   1  199.90   12.82
   5  -3   1  229.21   12.73
  -6   3  -1   11.27    1.03
  -6   3  -1   11.23    0.89
  -6   3  -1   10.65    0.93
  -6   3  -1   11.70    1.07
   6  -3   1   11.68    1.00
   6  -3   1   12.97    0.90
  -7   3  -1    3.22    0.50
  -7   3  -1    2.63    0.50
  -7   3  -1    2.09    0.40
  -7   3  -1    3.51    0.63
   7  -3   1    3.51    0.48
   7  -3   1    3.21    0.54
  -8   3  -1    0.18    0.50
  -8   3  -1    0.60    0.34
  -8   3  -1    0.60    0.44
  -8   3  -1    0.92    0.39
   8  -3   1    0.60    0.38
  -9   3  -1   15.66    1.38
  -9   3  -1   13.23    1.13
  -9   3  -1   12.89    1.19
   9  -3   1   13.39    1.13
  -9  -2   1    0.80    0.55
  -9  -2   1    1.60    0.66
   8   2  -1   11.13    1.08
   8   2  -1   12.00    1.34
  -8  -2   1   11.40    1.45
  -8  -2   1   11.98    1.25
   7   2  -1    2.10    0.66
   7   2  -1    3.66    0.57
  -7  -2   1    2.48    0.68
  -7  -2   1    2.86    0.61
   6   2  -1   67.21    4.02
   6   2  -1   55.39    4.69
  -6  -2   1   65.77    4.81
  -6  -2   1   63.98    5.05
   5   2  -1   11.55    0.76
   5   2  -1    9.97    1.09
   5   2  -1   12.16    0.75
   5   2  -1   11.50    0.91
  -5  -2   1   11.74    0.74
  -5  -2   1    9.76    0.75
  -5  -2   1   12.73    1.06
  -5  -2   1   10.61    0.75
   4   2  -1  175.50   10.41
   4   2  -1  161.81   12.64
   4   2  -1  191.93   10.42
   4   2  -1  184.03   10.89
  -4  -2   1  188.80   13.16
  -4  -2   1  177.79   10.41
  -4  -2   1  173.59   10.41
   3   2  -1   63.02    4.30
   3   2  -1   60.66    3.86
   3   2  -1   63.47    3.86
   3   2  -1   68.02    4.71
   3   2  -1   66.05    4.03
  -3  -2   1   72.97    4.32
  -3  -2   1   61.87    4.52
  -3  -2   1   71.86    4.88
  -3  -2   1   63.54    3.86
  -3  -2   1   63.15    3.86
   2   2  -1    2.28    0.30
   2   2  -1    2.64    0.34
   2   2  -1    2.72    0.29
   2   2  -1    2.34    0.27
   2   2  -1    2.69    0.29
   2   2  -1    2.90    0.35
  -2  -2   1    3.02    0.31
  -2  -2   1    2.75    0.27
  -2  -2   1    2.70    0.29
  -2  -2   1    2.29    0.39
  -2  -2   1    2.56    0.29
   0   2  -1  380.90   24.38
   0   2  -1  387.68   28.69
   0   2  -1  400.98   22.31
   0   2  -1  399.74   22.80
   0   2  -1  394.23   22.80
   0  -2   1  393.94   22.80
   0  -2   1  365.91   24.37
   0  -2   1  368.56   25.40
   0  -2   1  434.84   28.70
   0  -2   1  411.02   22.80
  -1   2  -1  118.53    7.79
  -1   2  -1  113.73    6.98
  -1   2  -1  118.87    6.84
  -1   2  -1  116.26    7.46
  -1   2  -1  115.94    6.98
  -1   2  -1  122.86    8.76
  -1   2  -1  132.19    9.02
  -1   2  -1  117.52    7.71
   1  -2   1  116.85    7.46
   1  -2   1  122.50    6.85
   1  -2   1  130.62    9.02
   1  -2   1  116.42    7.13
   1  -2   1  114.44    8.76
   1  -2   1  117.79    6.99
   1  -2   1  121.00    6.99
  -2   2  -1  236.40   13.54
  -2   2  -1  221.00   14.10
  -2   2  -1  236.46   14.74
  -2   2  -1  230.35   17.82
  -2   2  -1  248.05   13.78
  -2   2  -1  230.47   13.78
  -2   2  -1  252.45   15.29
   2  -2   1  275.38   13.55
   2  -2   1  259.12   15.30
   2  -2   1  254.48   13.79
   2  -2   1  228.24   14.74
   2  -2   1  201.06   14.09
   2  -2   1  251.93   13.79
   2  -2   1  214.31   13.31
   2  -2   1  229.03   15.97
  -3   2  -1  669.46   39.99
  -3   2  -1  643.93   43.08
  -3   2  -1  702.08   47.99
  -3   2  -1  803.98   44.28
  -3   2  -1  739.41   40.62
  -3   2  -1  678.17   42.37
   3  -2   1  729.92   48.00
   3  -2   1  822.36   40.64
   3  -2   1  659.31   42.37
  -4   2  -1  189.98   13.44
  -4   2  -1  207.90   12.41
  -4   2  -1  202.91   11.55
  -4   2  -1  210.35   11.55
  -4   2  -1  189.78   11.87
   4  -2   1  191.26   11.54
   4  -2   1  199.13   11.24
   4  -2   1  220.65   11.45
   4  -2   1  184.68   11.55
  -5   2  -1   44.73    2.79
  -5   2  -1   44.79    3.03
  -5   2  -1   41.07    2.67
   5  -2   1   42.11    2.55
   5  -2   1   41.53    2.64
  -6   2  -1  148.30    9.02
  -6   2  -1  155.53   10.22
  -6   2  -1  152.05    9.41
  -6   2  -1  150.64    9.87
   6  -2   1  145.58    8.71
   6  -2   1  147.59    8.55
  -7   2  -1   19.07    1.39
  -7   2  -1   21.83    1.55
  -7   2  -1   19.30    1.34
  -7   2  -1   18.07    1.50
   7  -2   1   16.23    1.27
  -8   2  -1    5.40    0.66
  -8   2  -1    5.27    0.62
  -8   2  -1    5.82    0.71
  -8   2  -1    5.30    0.71
  -8   2  -1    5.69    0.77
   8  -2   1    4.38    0.59
  -9   2  -1    0.43    0.41
  -9   2  -1   -0.34    0.38
  -9   2  -1   -0.29    0.34
  -9  -1   1    1.22    0.60
  -9  -1   1    0.23    0.46
   8   1  -1   11.71    1.38
   8   1  -1   13.09    1.15
  -8  -1   1   13.91    1.29
  -8  -1   1   13.05    1.50
   7   1  -1  112.27    6.96
   7   1  -1  104.21    8.13
  -7  -1   1  114.58    8.71
  -7  -1   1  116.06    8.37
   6   1  -1    3.28    0.66
   6   1  -1    4.59    0.55
  -6  -1   1    3.72    0.56
   5   1  -1   62.66    3.79
   5   1  -1   53.51    4.41
  -5  -1   1   66.48    4.56
  -5  -1   1   59.47    3.52
  -5  -1   1   59.49    4.18
   4   1  -1   24.19    2.16
   4   1  -1   30.45    1.86
   4   1  -1   27.42    1.72
   4   1  -1   29.33    1.73
  -4  -1   1   28.91    1.71
  -4  -1   1   28.16    1.70
  -4  -1   1   33.19    2.23
  -4  -1   1   28.36    2.05
   3   1  -1   59.55    3.62
   3   1  -1   62.25    3.56
   3   1  -1   54.87    4.42
   3   1  -1   61.51    3.80
  -3  -1   1   59.52    3.62
  -3  -1   1   63.84    4.07
  -3  -1   1   59.94    4.24
  -3  -1   1   61.40    3.60
  -3  -1   1   72.09    3.55
   2   1  -1   12.54    0.91
   2   1  -1   10.35    0.68
   2   1  -1   11.17    0.75
   2   1  -1   10.73    0.72
   2   1  -1   10.42    0.88
  -2  -1   1   12.40    0.82
  -2  -1   1   11.48    0.73
  -2  -1   1   12.62    0.67
  -2  -1   1    9.25    0.69
  -2  -1   1   10.13    0.71
  -2  -1   1   12.62    0.88
   1   1  -1   28.12    1.88
   1   1  -1   28.08    1.72
   1   1  -1   34.21    2.16
  -1  -1   1   28.32    1.72
  -1  -1   1   28.68    1.89
  -1  -1   1   26.74    1.88
  -1  -1   1   27.94    1.82
  -1  -1   1   26.87    1.72
  -1  -1   1   30.49    2.24
  -1   1  -1    4.56    0.41
  -1   1  -1    2.91    0.33
  -1   1  -1    3.81    0.36
  -1   1  -1    3.75    0.39
  -1   1  -1    4.26    0.35
  -1   1  -1    4.19    0.34
  -1   1  -1    4.13    0.38
  -1   1  -1    3.92    0.37
   1  -1   1    3.72    0.36
   1  -1   1    4.02    0.34
   1  -1   1    2.95    0.39
   1  -1   1    4.94    0.35
   1  -1   1    3.54    0.40
   1  -1   1    3.98    0.38
   1  -1   1    3.43    0.32
   1  -1   1    3.10    0.33
   1  -1   1    4.78    0.37
  -3   1  -1   36.78    2.01
  -3   1  -1   31.24    2.09
  -3   1  -1   33.35    2.33
  -3   1  -1   31.49    1.94
  -3   1  -1   37.03    2.27
  -3   1  -1   32.81    2.05
   3  -1   1   34.17    1.96
   3  -1   1   30.79    2.00
   3  -1   1   33.13    2.27
  -4   1  -1    4.29    0.42
  -4   1  -1    4.41    0.42
  -4   1  -1    3.76    0.46
  -4   1  -1    4.44    0.49
   4  -1   1    4.65    0.43
   4  -1   1    4.48    0.47
   4  -1   1    4.89    0.55
  -5   1  -1   64.46    3.86
  -5   1  -1   59.70    4.06
  -5   1  -1   61.75    4.20
  -5   1  -1   62.83    3.71
   5  -1   1   59.11    3.52
   5  -1   1   54.08    4.07
  -6   1  -1    8.56    0.72
  -6   1  -1    8.97    0.73
  -6   1  -1    7.74    0.79
  -6   1  -1    7.98    0.83
   6  -1   1    7.27    0.69
  -7   1  -1    0.31    0.33
  -7   1  -1    0.36    0.37
  -7   1  -1   -0.30    0.30
  -7   1  -1    0.25    0.31
  -7   1  -1    0.41    0.28
  -8   1  -1    4.26    0.64
  -8   1  -1    4.30    0.66
  -8   1  -1    3.99    0.65
  -8   1  -1    4.22    0.57
  -8   1  -1    4.98    0.63
  -9   1  -1    8.88    0.87
  -9   1  -1    8.19    1.00
  -9   1  -1    8.55    0.98
  -9   0   1   -0.02    0.37
  -9   0   1   -0.03    0.45
   8   0  -1    1.08    0.55
   8   0  -1    0.99    0.46
  -8   0   1    0.42    0.37
  -8   0   1    0.65    0.35
  -8   0   1    1.20    0.43
  -8   0   1    0.88    0.45
   7   0  -1    3.66    0.75
   7   0  -1    5.45    0.64
  -7   0   1    4.11    0.68
  -7   0   1    3.86    0.59
   6   0  -1   11.45    1.19
   6   0  -1   11.53    0.96
   6   0  -1   12.71    0.94
  -6   0   1   12.78    1.12
   5   0  -1   81.18    6.49
   5   0  -1   90.32    5.58
   5   0  -1   95.44    5.28
  -5   0   1   95.55    6.71
  -5   0   1   89.93    6.16
   4   0  -1   69.87    4.29
   4   0  -1   65.99    5.28
   4   0  -1   71.99    4.54
  -4   0   1   74.28    5.03
  -4   0   1   78.12    4.27
  -4   0   1   81.80    5.47
   3   0  -1  159.80   11.97
   3   0  -1  165.77   10.32
   3   0  -1  165.43    9.72
   3   0  -1  157.51    9.87
  -3   0   1  166.17    9.87
  -3   0   1  179.59    9.59
  -3   0   1  189.29    9.72
  -3   0   1  170.22   10.31
  -3   0   1  168.90   11.03
  -3   0   1  170.94    9.86
  -3   0   1  182.57   11.98
   2   0  -1   22.83    1.72
   2   0  -1   22.34    1.39
   2   0  -1   23.46    1.37
   2   0  -1   22.96    1.48
  -2   0   1   22.23    1.46
  -2   0   1   26.00    1.72
  -2   0   1   23.97    1.38
  -2   0   1   22.95    1.39
  -2   0   1   20.40    1.58
  -2   0   1   26.16    1.39
  -2   0   1   26.17    1.39
   0   0  -1    0.01    0.02
   0   0  -1   -0.02    0.01
   0   0  -1   -0.04    0.02
   0   0  -1   -0.02    0.01
   0   0   1    0.02    0.02
   0   0   1   -0.01    0.02
   0   0   1    0.00    0.02
  -1   0  -1  135.39    8.69
  -1   0  -1  119.89    8.72
  -1   0  -1  142.25    9.10
  -1   0  -1  147.66    8.35
  -1   0  -1  140.98    8.14
  -1   0  -1  127.12    7.80
  -1   0  -1  141.92    7.56
  -1   0  -1  130.99    7.80
   1   0   1  127.60    7.80
   1   0   1  116.01    8.72
   1   0   1  136.35    7.80
   1   0   1  151.23    8.35
   1   0   1  139.08    7.56
   1   0   1  128.85    8.69
  -2   0  -1   97.93    6.56
  -2   0  -1   91.38    5.79
  -2   0  -1  108.15    6.14
  -2   0  -1  111.11    6.85
  -2   0  -1  102.66    5.71
   2   0   1   97.16    5.70
   2   0   1  101.44    6.14
   2   0   1   99.49    7.13
  -3   0  -1   56.85    3.67
  -3   0  -1   53.99    3.41
  -3   0  -1   64.60    4.00
  -3   0  -1   48.15    3.64
  -3   0  -1   52.07    3.23
  -3   0  -1   56.07    3.18
  -3   0  -1   58.97    3.78
   3   0   1   54.53    3.42
   3   0   1   51.50    3.98
   3   0   1   55.61    3.18
   3   0   1   58.48    3.80
   3   0   1   53.86    3.67
  -4   0  -1  148.29    8.75
  -4   0  -1  148.68    9.92
  -4   0  -1  164.91   10.31
   4   0   1  162.17    9.28
   4   0   1  158.43    8.62
   4   0   1  148.59    9.93
   4   0   1  135.59   10.76
  -5   0  -1   16.16    1.42
  -5   0  -1   17.52    1.24
  -5   0  -1   18.28    1.18
  -5   0  -1   17.07    1.27
   5   0   1   17.89    1.21
   5   0   1   16.06    1.34
   5   0   1   15.53    1.42
  -6   0  -1   41.44    3.34
  -6   0  -1   44.81    2.82
  -6   0  -1   44.12    2.98
   6   0   1   40.04    3.03
   6   0   1   45.93    2.81
  -7   0  -1    3.69    0.58
  -7   0  -1    3.12    0.56
  -7   0  -1    5.18    0.56
  -7   0  -1    3.65    0.58
  -8   0  -1   19.89    1.38
  -8   0  -1   18.61    1.64
  -8   0  -1   16.41    1.50
  -9   0  -1    0.80    0.52
  -9   0  -1    0.40    0.42
  -9   0  -1    0.81    0.39
  -9   1   1   15.22    1.29
  -9   1   1   18.17    1.38
   8  -1  -1    0.29    0.47
  -8   1   1   -0.07    0.32
  -8   1   1    0.04    0.33
  -8   1   1    0.42    0.38
  -8   1   1    0.15    0.31
  -8   1   1    0.18    0.32
   7  -1  -1   65.92    4.06
   7  -1  -1   63.72    4.99
   7  -1  -1   65.86    4.28
  -7   1   1   74.11    5.10
  -7   1   1   65.18    5.29
  -7   1   1   67.99    4.69
  -7   1   1   68.91    4.21
   6  -1  -1  115.31    6.70
   6  -1  -1  108.32    8.23
   6  -1  -1  114.45    6.57
   6  -1  -1  117.41    7.08
  -6   1   1  116.71    6.96
  -6   1   1  115.71    7.82
  -6   1   1  115.51    8.48
   5  -1  -1   52.18    3.35
   5  -1  -1   55.08    4.12
   5  -1  -1   57.12    3.28
   5  -1  -1   55.64    3.53
  -5   1   1   60.04    4.20
  -5   1   1   56.39    3.88
   4  -1  -1   57.50    3.45
   4  -1  -1   52.48    3.27
   4  -1  -1   55.83    3.20
   4  -1  -1   52.64    4.01
  -4   1   1   53.65    3.25
  -4   1   1   59.24    3.23
  -4   1   1   55.56    3.80
   3  -1  -1   60.04    3.72
   3  -1  -1   59.03    3.53
   3  -1  -1   60.66    3.53
   3  -1  -1   51.87    3.53
   3  -1  -1   60.51    4.32
   3  -1  -1   59.90    3.46
  -3   1   1   54.07    3.53
  -3   1   1   61.11    3.72
  -3   1   1   70.75    4.33
  -3   1   1   64.61    3.52
  -3   1   1   59.50    3.99
  -3   1   1   60.21    3.66
  -3   1   1   63.14    3.53
  -3   1   1   63.82    3.46
  -3   1   1   60.66    4.11
   2  -1  -1  318.30   21.03
   2  -1  -1  343.76   17.11
   2  -1  -1  281.13   18.13
   2  -1  -1  284.42   17.40
   2  -1  -1  304.51   16.84
  -2   1   1  315.57   17.09
  -2   1   1  292.14   16.83
  -2   1   1  295.32   17.41
  -2   1   1  291.03   17.84
  -2   1   1  286.74   18.13
   0  -1  -1  289.13   16.71
  -1  -1  -1  321.18   21.37
   1   1   1  306.14   22.14
   1   1   1  322.61   21.37
  -2  -1  -1   53.07    3.11
  -2  -1  -1   56.87    3.59
  -2  -1  -1   58.60    4.06
  -2  -1  -1   57.34    3.35
  -2  -1  -1   53.02    3.20
  -2  -1  -1   59.52    3.19
  -2  -1  -1   58.51    3.75
   2   1   1   49.87    3.34
   2   1   1   49.24    3.20
   2   1   1   51.65    3.75
   2   1   1   54.44    3.60
   2   1   1   52.56    3.90
   2   1   1   53.20    3.19
  -3  -1  -1    0.03    0.14
  -3  -1  -1    0.09    0.18
  -3  -1  -1    0.14    0.14
  -3  -1  -1    0.14    0.10
  -3  -1  -1    0.26    0.07
   3   1   1    0.03    0.15
   3   1   1   -0.05    0.22
   3   1   1    0.17    0.11
   3   1   1    0.03    0.08
   3   1   1    0.12    0.17
   3   1   1    0.03    0.21
  -4  -1  -1  146.17    9.76
  -4  -1  -1  165.41   11.08
  -4  -1  -1  159.76   10.21
  -4  -1  -1  155.38    8.63
   4   1   1  139.31   10.64
   4   1   1  133.82    9.78
   4   1   1  152.56    9.16
  -5  -1  -1   36.58    2.88
  -5  -1  -1   40.14    2.50
   5   1   1   35.47    2.80
   5   1   1   34.42    2.60
   5   1   1   37.36    2.39
  -6  -1  -1   10.88    1.07
  -6  -1  -1   12.17    0.85
   6   1   1   10.75    0.91
   6   1   1   10.65    1.07
   6   1   1   10.19    1.11
  -7  -1  -1   32.11    2.16
  -7  -1  -1   31.49    2.62
   7   1   1   33.76    2.22
  -8  -1  -1   14.09    1.40
  -9  -1  -1    8.11    1.05
  -9  -1  -1   10.74    0.96
  -9  -1  -1   11.11    1.22
  -9   2   1    1.81    0.58
  -9   2   1    1.35    0.54
  -9   2   1    0.78    0.44
   8  -2  -1    7.44    0.84
  -8   2   1    9.23    0.84
  -8   2   1    7.23    0.89
  -8   2   1    8.28    0.89
  -8   2   1    8.04    0.78
   7  -2  -1    1.81    0.39
   7  -2  -1    1.80    0.42
   7  -2  -1    1.80    0.52
  -7   2   1    2.18    0.46
  -7   2   1    2.05    0.42
  -7   2   1    1.45    0.37
  -7   2   1    2.08    0.38
  -7   2   1    2.23    0.41
   6  -2  -1  127.12    7.38
   6  -2  -1  120.28    9.21
   6  -2  -1  126.03    7.54
  -6   2   1  137.37    8.79
  -6   2   1  133.69    9.53
  -6   2   1  127.13    8.15
  -6   2   1  132.74    7.82
   5  -2  -1   80.86    4.47
   5  -2  -1   76.25    4.52
   5  -2  -1   75.26    4.44
   5  -2  -1   70.46    5.48
   5  -2  -1   76.12    4.40
  -5   2   1   73.38    4.64
  -5   2   1   77.48    5.21
  -5   2   1   79.11    4.44
   4  -2  -1    0.26    0.18
   4  -2  -1    0.42    0.23
   4  -2  -1    0.61    0.15
   4  -2  -1    0.47    0.12
   4  -2  -1    0.54    0.26
  -4   2   1    0.71    0.12
  -4   2   1    0.59    0.18
  -4   2   1    0.40    0.16
  -4   2   1    0.68    0.14
   3  -2  -1   44.65    2.50
   3  -2  -1   45.90    2.58
   3  -2  -1   46.15    3.12
   3  -2  -1   41.64    2.56
   3  -2  -1   42.04    2.55
   3  -2  -1   46.39    2.96
  -3   2   1   42.77    2.55
  -3   2   1   40.13    2.67
  -3   2   1   40.01    2.55
  -3   2   1   43.01    2.64
  -3   2   1   39.45    2.56
  -3   2   1   43.62    2.49
  -3   2   1   46.52    3.11
   2  -2  -1    0.53    0.17
   2  -2  -1    0.80    0.15
   2  -2  -1    1.05    0.20
   2  -2  -1    0.79    0.13
   2  -2  -1    0.68    0.16
   2  -2  -1    0.85    0.16
   2  -2  -1    0.83    0.15
  -2   2   1    0.90    0.13
  -2   2   1    0.62    0.15
  -2   2   1    0.60    0.17
  -2   2   1    0.88    0.16
  -2   2   1    0.79    0.14
  -2   2   1    0.96    0.16
  -2   2   1    0.91    0.17
   1  -2  -1   97.46    5.78
   1  -2  -1  101.85    5.67
   1  -2  -1   98.12    7.10
   1  -2  -1   87.98    6.57
   1  -2  -1   96.79    5.67
  -1   2   1  101.96    5.67
  -1   2   1   89.48    6.04
  -1   2   1   98.72    5.79
  -1   2   1  104.77    7.09
  -1   2   1   96.43    5.66
  -1   2   1   88.71    6.57
   0  -2  -1   25.93    1.72
   0  -2  -1   24.09    1.89
   0  -2  -1   26.22    1.63
   0  -2  -1   30.24    2.03
   0  -2  -1   30.62    1.65
   0   2   1   28.63    1.64
   0   2   1   25.25    1.71
   0   2   1   25.44    1.89
   0   2   1   26.40    2.03
   0   2   1   27.28    1.64
  -1  -2  -1    1.58    0.20
  -1  -2  -1    1.07    0.17
  -1  -2  -1    1.03    0.19
  -1  -2  -1    1.65    0.23
  -1  -2  -1    1.36    0.22
   1   2   1    0.83    0.17
   1   2   1    1.27    0.20
   1   2   1    0.93    0.20
   1   2   1    0.85    0.16
   1   2   1    1.33    0.15
   1   2   1    1.09    0.22
  -2  -2  -1   72.78    4.90
  -2  -2  -1   63.21    3.89
  -2  -2  -1   65.83    4.02
  -2  -2  -1   68.59    3.88
  -2  -2  -1   72.29    4.69
  -2  -2  -1   64.12    4.53
   2   2   1   61.11    4.69
   2   2   1   62.37    3.88
   2   2   1   66.72    4.55
   2   2   1   62.79    3.87
   2   2   1   68.41    4.33
   2   2   1   60.55    4.02
  -3  -2  -1   46.81    2.75
  -3  -2  -1   45.56    2.80
  -3  -2  -1   50.33    2.78
  -3  -2  -1   52.73    3.29
  -3  -2  -1   47.98    3.55
   3   2   1   46.03    2.78
   3   2   1   46.56    2.80
   3   2   1   44.59    2.92
   3   2   1   44.07    3.42
   3   2   1   45.16    3.15
  -4  -2  -1   18.10    1.02
  -4  -2  -1   15.65    1.03
  -4  -2  -1   14.72    0.96
  -4  -2  -1   15.00    1.32
   4   2   1   15.76    1.33
   4   2   1   16.05    1.09
   4   2   1   15.94    1.01
   4   2   1   13.65    0.96
   4   2   1   16.27    1.23
  -5  -2  -1    3.75    0.42
  -5  -2  -1    2.88    0.50
   5   2   1    3.16    0.44
   5   2   1    1.94    0.52
   5   2   1    3.54    0.59
  -6  -2  -1   20.17    1.79
   6   2   1   19.86    1.79
   6   2   1   22.43    1.70
   6   2   1   21.78    1.50
  -7  -2  -1   12.20    1.29
   7   2   1   13.57    1.11
   7   2   1   13.11    1.34
  -8  -2  -1    1.12    0.56
   8   2   1    1.47    0.51
  -9  -2  -1    0.16    0.51
  -9  -2  -1   -0.23    0.53
 -10   3   1   -0.11    0.52
   9  -3  -1   13.33    1.20
  -9   3   1   12.24    1.20
  -9   3   1   13.21    1.31
  -9   3   1   12.95    1.11
   8  -3  -1    2.46    0.51
   8  -3  -1    2.23    0.52
  -8   3   1    2.70    0.47
  -8   3   1    2.81    0.59
   7  -3  -1   18.70    1.40
   7  -3  -1   18.89    1.31
  -7   3   1   19.39    1.43
  -7   3   1   18.22    1.60
  -7   3   1   19.62    1.56
  -7   3   1   18.45    1.34
   6  -3  -1   68.84    4.01
   6  -3  -1   67.22    3.91
   6  -3  -1   63.69    3.86
  -6   3   1   66.89    4.27
  -6   3   1   64.02    3.90
  -6   3   1   70.11    4.08
  -6   3   1   62.66    5.05
   5  -3  -1   96.44    5.78
   5  -3  -1  106.81    5.69
   5  -3  -1   99.53    5.82
   5  -3  -1  104.49    5.82
  -5   3   1   95.83    6.26
  -5   3   1   97.10    5.81
  -5   3   1   97.14    5.78
  -5   3   1   95.65    5.99
   4  -3  -1  227.24   12.46
   4  -3  -1  222.24   12.84
   4  -3  -1  212.48   12.85
   4  -3  -1  236.69   14.89
   4  -3  -1  208.33   12.67
  -4   3   1  212.63   12.85
  -4   3   1  245.43   15.53
  -4   3   1  216.66   13.78
  -4   3   1  213.01   12.84
  -4   3   1  217.18   13.18
   3  -3  -1   20.20    1.32
   3  -3  -1   17.65    1.12
   3  -3  -1   18.30    1.15
   3  -3  -1   14.64    1.15
   3  -3  -1   19.80    1.20
  -3   3   1   16.89    1.18
  -3   3   1   16.39    1.14
  -3   3   1   20.47    1.37
  -3   3   1   17.59    1.25
  -3   3   1   17.61    1.17
  -3   3   1   18.14    1.16
   2  -3  -1  190.02   11.54
   2  -3  -1  182.13   13.10
   2  -3  -1  189.75   11.29
   2  -3  -1  195.47   14.16
   2  -3  -1  193.95   11.30
  -2   3   1  199.57   11.29
  -2   3   1  197.12   11.55
  -2   3   1  193.31   13.10
  -2   3   1  204.56   11.08
  -2   3   1  195.20   14.16
  -2   3   1  202.76   11.30
  -2   3   1  185.22   12.07
   1  -3  -1  144.48    9.38
   1  -3  -1  159.87    8.81
   1  -3  -1  139.47   10.21
   1  -3  -1  148.84    8.80
   1  -3  -1  153.24    8.99
   1  -3  -1  152.45   11.03
  -1   3   1  166.63    8.81
  -1   3   1  156.04   11.03
  -1   3   1  145.13   10.21
  -1   3   1  154.07    8.80
  -1   3   1  138.82    9.38
   0  -3  -1  265.78   16.93
   0  -3  -1  292.53   15.89
   0  -3  -1  305.68   19.96
   0  -3  -1  275.60   15.88
   0  -3  -1  257.02   18.47
   0   3   1  265.59   16.93
   0   3   1  291.26   15.88
   0   3   1  275.70   15.88
   0   3   1  260.09   18.47
   0   3   1  246.17   19.94
  -1  -3  -1  431.83   25.30
  -1  -3  -1  468.56   29.85
  -1  -3  -1  407.27   23.71
  -1  -3  -1  392.18   23.72
  -1  -3  -1  414.98   27.61
   1   3   1  422.27   27.62
   1   3   1  427.07   25.33
   1   3   1  383.68   23.71
   1   3   1  382.57   23.71
   1   3   1  396.35   29.84
   1   3   1  399.99   28.56
   1   3   1  383.78   24.63
  -2  -3  -1  324.99   19.28
  -2  -3  -1  319.68   19.26
  -2  -3  -1  344.41   24.27
   2   3   1  331.15   19.28
   2   3   1  312.98   19.26
   2   3   1  372.63   21.39
   2   3   1  321.73   20.03
   2   3   1  330.78   23.24
  -3  -3  -1    0.85    0.19
  -3  -3  -1    0.52    0.27
  -3  -3  -1    0.84    0.22
   3   3   1    0.33    0.17
   3   3   1    0.94    0.23
   3   3   1    0.66    0.29
   3   3   1    0.58    0.22
   3   3   1    0.33    0.28
  -4  -3  -1   56.83    4.52
  -4  -3  -1   56.95    3.53
  -4  -3  -1   62.42    3.58
   4   3   1   61.59    3.57
   4   3   1   62.52    4.01
   4   3   1   61.37    3.73
   4   3   1   59.84    4.37
   4   3   1   55.69    3.53
  -5  -3  -1   64.56    5.23
   5   3   1   69.13    5.08
   5   3   1   72.08    4.68
   5   3   1   71.98    4.34
   5   3   1   67.59    4.11
  -6  -3  -1    6.31    0.85
   6   3   1    7.02    0.87
   6   3   1    6.85    0.92
   6   3   1    7.79    0.74
  -7  -3  -1    1.63    0.55
   7   3   1    3.00    0.54
   7   3   1    2.86    0.68
  -8  -3  -1    1.02    0.55
   8   3   1    2.43    0.62
  10  -4  -1    9.34    1.08
 -10   4   1    8.36    1.05
 -10   4   1   10.51    1.24
   9  -4  -1   -0.08    0.39
   9  -4  -1    0.09    0.44
  -9   4   1   -0.37    0.45
  -9   4   1   -0.36    0.35
   8  -4  -1   53.98    3.33
   8  -4  -1   46.42    3.16
  -8   4   1   52.61    3.49
  -8   4   1   54.94    3.33
   7  -4  -1    4.63    0.54
   7  -4  -1    3.49    0.60
  -7   4   1    3.49    0.48
  -7   4   1    4.12    0.62
   6  -4  -1   92.83    5.61
   6  -4  -1   96.93    5.58
   6  -4  -1   94.84    5.46
  -6   4   1   95.65    5.75
  -6   4   1   96.63    6.02
  -6   4   1   88.37    5.56
   5  -4  -1  142.49    7.93
   5  -4  -1  131.91    7.86
   5  -4  -1  139.12    7.70
  -5   4   1  132.03    7.92
  -5   4   1  132.97    8.12
  -5   4   1  131.23    8.50
   4  -4  -1   30.46    2.10
   4  -4  -1   37.80    2.40
   4  -4  -1   32.34    2.09
   4  -4  -1   33.01    2.02
  -4   4   1   28.58    2.06
  -4   4   1   33.40    2.24
  -4   4   1   37.29    2.48
  -4   4   1   34.76    2.13
   3  -4  -1   29.49    1.74
   3  -4  -1   27.50    1.81
   3  -4  -1   29.00    1.82
   3  -4  -1   28.84    2.04
  -3   4   1   27.63    1.93
  -3   4   1   29.31    1.85
  -3   4   1   30.87    2.12
  -3   4   1   29.21    1.81
   2  -4  -1  137.15   10.82
   2  -4  -1  144.37   11.11
   2  -4  -1  137.23   10.02
   2  -4  -1  152.21    8.66
   2  -4  -1  167.45    8.50
  -2   4   1  145.83    9.23
  -2   4   1  150.95   10.82
  -2   4   1  149.04    8.65
   1  -4  -1  542.59   34.59
   1  -4  -1  643.51   31.73
   1  -4  -1  579.54   32.39
   1  -4  -1  492.48   37.66
  -1   4   1  539.04   34.58
  -1   4   1  537.93   40.71
  -1   4   1  580.21   32.38
   0  -4  -1   43.20    2.37
   0  -4  -1   39.11    2.59
   0  -4  -1   43.43    2.50
   0  -4  -1   42.18    3.07
   0   4   1   36.69    3.05
   0   4   1   41.36    2.49
   0   4   1   37.63    2.59
  -1  -4  -1  163.44   11.38
  -1  -4  -1  150.90    9.08
  -1  -4  -1  154.65    9.61
   1   4   1  156.65    9.07
   1   4   1  143.68    9.35
   1   4   1  158.73    9.65
   1   4   1  154.99   10.85
  -2  -4  -1   12.99    0.97
  -2  -4  -1   12.28    1.16
   2   4   1   13.33    0.93
   2   4   1   13.58    1.10
   2   4   1   14.54    1.04
   2   4   1   13.70    0.97
  -3  -4  -1   65.24    3.93
  -3  -4  -1   60.04    4.90
   3   4   1   65.36    4.04
   3   4   1   63.70    4.72
   3   4   1   69.30    4.34
   3   4   1   67.65    3.93
  -4  -4  -1   -0.11    0.29
  -4  -4  -1    0.58    0.28
   4   4   1   -0.09    0.36
   4   4   1    0.24    0.40
   4   4   1    0.70    0.29
   4   4   1    0.05    0.29
  -5  -4  -1    7.85    0.99
  -5  -4  -1    9.79    0.81
   5   4   1   10.71    0.82
   5   4   1   10.75    0.87
   5   4   1    9.92    1.01
   5   4   1   10.05    1.08
  -6  -4  -1    9.13    1.12
   6   4   1   10.88    1.12
   6   4   1   12.48    1.24
   6   4   1   11.91    0.99
  -7  -4  -1    1.03    0.55
   7   4   1    0.69    0.57
   7   4   1    0.11    0.44
   9  -5  -1    5.25    0.71
   9  -5  -1    5.87    0.82
  -9   5   1    4.56    0.66
  -9   5   1    4.94    0.80
   8  -5  -1    2.89    0.54
   8  -5  -1    3.00    0.62
  -8   5   1    2.80    0.60
  -8   5   1    2.33    0.47
   7  -5  -1   37.75    2.46
   7  -5  -1   38.29    2.34
  -7   5   1   36.98    2.53
  -7   5   1   34.72    2.40
   6  -5  -1    0.98    0.32
   6  -5  -1   -0.52    0.26
   6  -5  -1    0.01    0.35
  -6   5   1    0.09    0.26
  -6   5   1   -0.08    0.32
  -6   5   1   -0.17    0.25
   5  -5  -1    1.85    0.42
   5  -5  -1    0.79    0.32
   5  -5  -1    1.35    0.35
  -5   5   1    1.46    0.33
  -5   5   1    1.82    0.39
  -5   5   1    2.05    0.34
   4  -5  -1  122.38    7.24
   4  -5  -1  123.62    7.34
   4  -5  -1  131.16    7.09
   4  -5  -1  116.84    8.42
  -4   5   1  120.35    7.33
  -4   5   1  128.74    8.76
  -4   5   1  132.65    7.51
  -4   5   1  119.00    7.82
   3  -5  -1    0.25    0.20
   3  -5  -1    0.17    0.16
   3  -5  -1   -0.32    0.21
   3  -5  -1    0.04    0.25
  -3   5   1    0.09    0.22
  -3   5   1    0.14    0.17
  -3   5   1    0.23    0.26
   2  -5  -1   37.33    3.09
   2  -5  -1   43.26    2.49
   2  -5  -1   44.74    3.17
   2  -5  -1   41.86    2.56
  -2   5   1   41.91    2.54
  -2   5   1   39.78    2.67
  -2   5   1   38.59    3.09
   1  -5  -1  151.50    8.85
   1  -5  -1  154.88   11.04
   1  -5  -1  144.93    8.60
   1  -5  -1  161.16   11.36
  -1   5   1  146.98    8.83
  -1   5   1  140.90    9.37
   0  -5  -1   23.48    1.55
   0  -5  -1   23.01    1.42
   0  -5  -1   25.40    1.93
   0  -5  -1   21.36    1.56
   0  -5  -1   24.22    1.86
   0   5   1   22.32    1.58
   0   5   1   22.95    1.53
  -1  -5  -1    7.08    0.68
  -1  -5  -1    6.37    0.57
  -1  -5  -1    6.48    0.72
  -1  -5  -1    6.90    0.49
   1   5   1    6.71    0.54
   1   5   1    7.48    0.65
   1   5   1    6.15    0.64
   1   5   1    6.49    0.61
  -2  -5  -1   61.57    3.32
  -2  -5  -1   53.64    4.35
  -2  -5  -1   55.51    3.53
   2   5   1   55.72    3.65
   2   5   1   60.21    3.82
   2   5   1   57.23    3.52
   2   5   1   58.09    3.57
   2   5   1   56.66    4.15
  -3  -5  -1   36.53    3.06
  -3  -5  -1   36.32    2.48
   3   5   1   42.33    2.71
   3   5   1   39.62    2.49
   3   5   1   38.36    2.51
   3   5   1   41.89    2.96
  -4  -5  -1   20.14    1.92
  -4  -5  -1   23.20    1.58
   4   5   1   22.52    1.59
   4   5   1   24.62    1.58
   4   5   1   22.24    1.71
   4   5   1   25.33    1.91
  -5  -5  -1   29.69    2.91
  -5  -5  -1   36.97    2.35
   5   5   1   37.78    2.44
   5   5   1   37.70    2.88
   5   5   1   39.29    2.35
   5   5   1   37.94    2.62
  -6  -5  -1    0.34    0.46
   6   5   1    0.46    0.46
   6   5   1    0.37    0.52
   6   5   1   -0.64    0.38
  -7  -5  -1   10.55    1.33
  -7  -5  -1   11.97    1.57
   7   5   1   14.43    1.18
   9  -6  -1    0.14    0.50
   9  -6  -1    0.40    0.45
  -9   6   1    0.07    0.47
   8  -6  -1    8.56    1.02
   8  -6  -1    8.24    0.89
  -8   6   1    8.69    0.85
  -8   6   1    9.80    0.97
   7  -6  -1   14.64    1.34
   7  -6  -1   15.29    1.25
  -7   6   1   18.18    1.36
  -7   6   1   17.63    1.26
   6  -6  -1   33.01    2.23
   6  -6  -1   36.67    2.19
   6  -6  -1   33.81    2.31
  -6   6   1   36.71    2.27
  -6   6   1   33.03    2.37
  -6   6   1   32.71    2.20
   5  -6  -1    7.71    0.72
   5  -6  -1    8.19    0.79
   5  -6  -1    7.23    0.79
  -5   6   1    7.17    0.73
  -5   6   1    7.28    0.78
  -5   6   1    7.72    0.73
   4  -6  -1    1.04    0.37
   4  -6  -1    0.55    0.34
   4  -6  -1    1.53    0.32
   4  -6  -1    1.00    0.31
  -4   6   1    1.36    0.39
  -4   6   1    1.33    0.36
  -4   6   1    1.40    0.26
   3  -6  -1   92.89    7.00
   3  -6  -1   94.81    5.67
   3  -6  -1  101.91    5.57
  -3   6   1   92.24    5.65
  -3   6   1   91.62    6.00
   2  -6  -1   40.62    2.66
   2  -6  -1   48.50    3.44
   2  -6  -1   45.02    2.78
   2  -6  -1   44.67    3.36
  -2   6   1   41.82    2.74
  -2   6   1   42.68    2.88
   1  -6  -1  179.58   10.78
   1  -6  -1  178.89   13.46
   1  -6  -1  203.30   13.87
   1  -6  -1  170.34   10.49
  -1   6   1  179.68   11.44
  -1   6   1  187.12   10.78
   0  -6  -1   -0.23    0.25
   0  -6  -1    0.52    0.31
   0  -6  -1    0.04    0.19
   0  -6  -1    0.12    0.27
   0   6   1   -0.27    0.23
   0   6   1   -0.09    0.28
  -1  -6  -1   95.06    6.95
  -1  -6  -1   84.54    6.70
  -1  -6  -1   92.12    5.17
  -1  -6  -1   84.88    5.40
   1   6   1   98.42    5.72
   1   6   1   88.17    5.85
   1   6   1   87.27    6.35
   1   6   1   91.26    5.41
   1   6   1   85.73    5.48
  -2  -6  -1    6.24    0.72
  -2  -6  -1    5.18    0.75
  -2  -6  -1    6.21    0.50
   2   6   1    7.34    0.74
   2   6   1    6.99    0.73
   2   6   1    7.14    0.69
   2   6   1    7.17    0.61
   2   6   1    5.83    0.63
  -3  -6  -1    9.91    1.08
  -3  -6  -1   10.68    0.94
   3   6   1   10.46    0.86
   3   6   1   13.22    1.08
   3   6   1   10.80    0.95
   3   6   1    9.25    0.94
  -4  -6  -1    9.41    1.25
  -4  -6  -1   11.10    0.95
  -4  -6  -1    9.14    1.08
   4   6   1   10.85    0.91
   4   6   1   10.05    0.92
   4   6   1   12.52    1.14
   4   6   1    9.89    0.98
  -5  -6  -1   25.84    2.46
   5   6   1   31.21    2.46
   5   6   1   30.40    2.23
   5   6   1   31.36    2.07
  -6  -6  -1    7.00    1.07
  -6  -6  -1   10.22    1.37
   6   6   1   11.35    1.01
   6   6   1   10.43    1.23
   8  -7  -1    3.41    0.73
   8  -7  -1    4.72    0.69
  -8   7   1    4.30    0.65
  -8   7   1    4.80    0.74
   7  -7  -1   22.61    1.70
   7  -7  -1   26.99    1.88
  -7   7   1   23.50    1.84
  -7   7   1   26.59    1.78
  -7   7   1   24.57    1.74
   6  -7  -1   34.93    2.19
   6  -7  -1   33.75    2.28
   6  -7  -1   35.29    2.33
  -6   7   1   33.64    2.26
  -6   7   1   33.48    2.39
   5  -7  -1   45.95    2.81
   5  -7  -1   45.07    2.68
   5  -7  -1   42.06    2.80
  -5   7   1   43.31    2.78
  -5   7   1   42.43    2.95
   4  -7  -1    6.20    0.70
   4  -7  -1    5.84    0.70
  -4   7   1    6.13    0.68
  -4   7   1    6.58    0.73
   3  -7  -1    0.80    0.31
   3  -7  -1    0.90    0.25
   3  -7  -1    0.72    0.34
   3  -7  -1    0.63    0.36
  -3   7   1    0.91    0.35
  -3   7   1    0.90    0.38
   2  -7  -1   20.06    1.39
   2  -7  -1   23.86    1.75
   2  -7  -1   20.98    1.72
   2  -7  -1   18.77    1.46
  -2   7   1   18.70    1.47
  -2   7   1   19.56    1.44
   1  -7  -1   56.81    4.01
   1  -7  -1   49.86    3.03
   1  -7  -1   48.08    3.86
   1  -7  -1   49.96    3.18
  -1   7   1   47.10    3.29
  -1   7   1   50.68    3.16
   0  -7  -1  109.83    8.18
   0  -7  -1  105.36    6.14
   0  -7  -1   99.70    7.91
   0  -7  -1  108.20    6.41
   0   7   1  103.65    6.74
   0   7   1  110.90    6.40
  -1  -7  -1    8.82    1.02
  -1  -7  -1    8.42    0.66
  -1  -7  -1    6.31    0.87
  -1  -7  -1    8.59    0.86
   1   7   1    8.66    0.84
   1   7   1    7.32    0.66
   1   7   1    7.55    0.73
   1   7   1    9.18    0.87
  -2  -7  -1    9.18    1.11
  -2  -7  -1    9.37    0.95
  -2  -7  -1    9.28    1.03
   2   7   1    9.45    0.79
   2   7   1    8.52    0.88
   2   7   1    9.24    0.93
   2   7   1    9.29    0.86
   2   7   1   10.71    0.93
  -3  -7  -1    3.21    0.71
  -3  -7  -1    3.48    0.59
  -3  -7  -1    2.36    0.57
   3   7   1    3.63    0.59
   3   7   1    3.56    0.58
   3   7   1    3.65    0.47
  -4  -7  -1    2.64    0.65
  -4  -7  -1    4.47    0.66
  -4  -7  -1    5.38    0.91
   4   7   1    5.51    0.76
   4   7   1    5.88    0.64
   4   7   1    3.77    0.64
  -5  -7  -1    7.39    1.12
  -5  -7  -1    5.06    0.86
   5   7   1    5.52    0.72
   5   7   1    7.24    0.97
   6   7   1    2.03    0.61
   8  -8  -1    6.52    0.84
   7  -8  -1    2.38    0.56
   7  -8  -1    1.59    0.60
  -7   8   1    1.89    0.59
  -7   8   1    2.14    0.53
   6  -8  -1   23.01    1.61
   6  -8  -1   23.66    1.74
   6  -8  -1   23.33    1.69
  -6   8   1   22.64    1.66
  -6   8   1   21.72    1.72
   5  -8  -1   19.87    1.44
   5  -8  -1   20.91    1.55
   5  -8  -1   21.78    1.55
  -5   8   1   18.93    1.54
  -5   8   1   20.11    1.51
   4  -8  -1   22.11    1.64
   4  -8  -1   23.01    1.93
   4  -8  -1   25.12    1.72
  -4   8   1   24.12    1.67
  -4   8   1   22.88    1.73
   3  -8  -1    7.80    0.88
   3  -8  -1    7.90    0.79
   3  -8  -1    7.04    0.83
  -3   8   1    7.72    0.82
  -3   8   1    8.39    0.84
   2  -8  -1   -0.25    0.34
   2  -8  -1    0.57    0.33
   2  -8  -1    0.29    0.31
   2  -8  -1    1.08    0.37
  -2   8   1    0.26    0.36
  -2   8   1    0.48    0.37
   1  -8  -1   67.81    4.25
   1  -8  -1   79.37    5.64
   1  -8  -1   70.44    5.46
   1  -8  -1   75.27    4.48
  -1   8   1   73.99    4.45
  -1   8   1   65.44    4.65
   0  -8  -1   26.30    2.35
   0  -8  -1   30.01    2.48
   0  -8  -1   27.21    2.00
   0  -8  -1   29.01    1.82
   0   8   1   27.38    1.97
   0   8   1   30.80    2.07
   0   8   1   27.89    2.05
  -1  -8  -1   17.34    1.63
  -1  -8  -1   15.05    1.52
  -1  -8  -1   15.47    1.33
   1   8   1   16.09    1.18
   1   8   1   17.04    1.32
   1   8   1   19.03    1.39
  -2  -8  -1    2.52    0.59
  -2  -8  -1    2.81    0.61
  -2  -8  -1    3.90    0.76
   2   8   1    3.79    0.47
   2   8   1    2.71    0.57
  -3  -8  -1    9.68    1.31
  -3  -8  -1   10.32    1.05
  -3  -8  -1    8.10    1.10
   3   8   1   10.54    0.88
   3   8   1   10.98    1.06
  -4  -8  -1    0.59    0.53
  -4  -8  -1    0.34    0.43
  -4  -8  -1    0.32    0.56
   4   8   1    0.03    0.43
   4   8   1    0.83    0.45
   7  -9  -1    8.71    1.03
   7  -9  -1    7.87    0.92
   6  -9  -1    7.30    0.81
   6  -9  -1    5.72    0.85
   6  -9  -1    6.91    0.87
  -6   9   1    7.28    0.87
  -6   9   1    7.02    0.88
   5  -9  -1    6.86    0.82
   5  -9  -1    4.73    0.73
   5  -9  -1    4.89    0.69
  -5   9   1    6.90    0.79
  -5   9   1    4.82    0.74
   4  -9  -1   11.89    1.09
   4  -9  -1   11.97    1.13
  -4   9   1   12.53    1.11
  -4   9   1   11.69    1.15
   3  -9  -1   16.39    1.51
   3  -9  -1   15.75    1.34
   3  -9  -1   16.86    1.29
  -3   9   1   17.07    1.34
  -3   9   1   17.33    1.37
   2  -9  -1   29.43    1.93
   2  -9  -1   28.87    2.38
   2  -9  -1   30.23    2.08
  -2   9   1   27.96    2.10
  -2   9   1   29.50    2.04
  -2   9   1   28.78    2.18
   1  -9  -1    0.31    0.44
   1  -9  -1    0.73    0.45
   1  -9  -1    0.78    0.48
   1  -9  -1   -0.19    0.37
  -1   9   1    1.19    0.46
  -1   9   1    1.88    0.53
  -1   9   1    1.25    0.50
   0  -9  -1   61.33    4.68
   0  -9  -1   54.47    3.71
   0  -9  -1   54.54    4.48
   0   9   1   58.36    3.70
   0   9   1   60.05    3.88
  -1  -9  -1    0.88    0.51
  -1  -9  -1    0.76    0.47
  -1  -9  -1    1.76    0.61
   1   9   1    1.23    0.50
  -2  -9  -1    7.80    1.10
  -2  -9  -1    8.25    0.93
  -2  -9  -1    5.49    0.88
   2   9   1    5.67    0.83
  -3  -9  -1    2.44    0.70
  -3  -9  -1    4.11    0.71
  -3  -9  -1    2.40    0.74
   3   9   1    3.95    0.70
   6 -10  -1    7.05    0.86
   6 -10  -1    6.64    0.93
   6 -10  -1    5.68    0.89
  -6  10   1    8.81    1.08
  -6  10   1    8.82    0.99
   5 -10  -1    4.08    0.73
   5 -10  -1    3.95    0.65
   5 -10  -1    4.49    0.73
  -5  10   1    3.88    0.71
  -5  10   1    4.51    0.80
  -5  10   1    3.22    0.70
   4 -10  -1    5.39    0.81
   4 -10  -1    4.96    0.76
  -4  10   1    5.59    0.83
  -4  10   1    5.61    0.81
  -4  10   1    5.96    0.87
   3 -10  -1   41.23    2.72
   3 -10  -1   40.05    2.83
  -3  10   1   43.12    2.95
  -3  10   1   41.02    2.81
  -3  10   1   43.93    3.08
   2 -10  -1    1.69    0.57
   2 -10  -1    1.81    0.51
   2 -10  -1    2.30    0.53
  -2  10   1    2.06    0.60
  -2  10   1    1.45    0.59
  -2  10   1    2.73    0.60
   1 -10  -1    9.79    1.08
   1 -10  -1    8.80    1.10
  -1  10   1   10.27    1.09
  -1  10   1   10.22    1.08
   0 -10  -1    1.59    0.60
   0 -10  -1    1.77    0.61
   0 -10  -1    1.49    0.60
   0  10   1    1.25    0.54
  -1 -10  -1   11.66    1.44
  -1 -10  -1   12.71    1.34
  -1 -10  -1   12.44    1.28
   1  10   1   11.04    1.21
  -2 -10  -1    0.27    0.51
  -2 -10  -1    0.71    0.66
   2  10   1    0.68    0.51
   4 -11  -1   14.92    1.30
  -4  11   1   13.49    1.45
  -4  11   1   13.47    1.36
   3 -11  -1    2.57    0.62
  -3  11   1    4.42    0.79
  -2  11   1   13.79    1.38
   1 -11  -1    1.46    0.54
   0 -11  -1    7.58    1.03
  -1 -11   2    3.50    0.86
   0 -11   2   -0.18    0.46
   0 -11   2   -0.12    0.49
  -1  11  -2    9.10    1.12
   1 -11   2    7.20    1.00
  -2  11  -2    0.74    0.68
  -2  11  -2   -0.20    0.46
   2 -11   2   -0.18    0.48
   2 -11   2   -0.26    0.38
  -3  11  -2   18.51    1.61
  -3  11  -2   15.66    1.57
  -3  11  -2   18.09    1.48
   3 -11   2   15.30    1.57
   3 -11   2   15.09    1.45
   3 -11   2   17.13    1.41
  -4  11  -2   -0.67    0.60
  -4  11  -2    0.95    0.52
  -4  11  -2   -0.07    0.61
   4 -11   2   -0.58    0.47
   4 -11   2   -0.13    0.44
   5 -11   2   10.93    1.15
   3  10  -2    2.59    0.53
   3  10  -2    1.25    0.62
  -3 -10   2    2.65    0.68
   2  10  -2    7.19    0.94
   2  10  -2    8.59    0.82
  -2 -10   2    7.67    1.15
  -2 -10   2    7.12    0.97
  -2 -10   2    6.95    1.02
   1  10  -2   -0.27    0.65
   1  10  -2    0.15    0.50
  -1 -10   2   -0.13    0.51
  -1 -10   2   -0.06    0.51
  -1 -10   2   -0.05    0.46
   0  10  -2   21.18    1.74
   0 -10   2   22.19    2.01
   0 -10   2   22.53    1.79
   0 -10   2   24.10    2.13
  -1  10  -2    2.10    0.61
  -1  10  -2    2.04    0.68
   1 -10   2    2.28    0.60
   1 -10   2    1.98    0.59
   1 -10   2    1.68    0.56
  -2  10  -2    8.20    0.96
  -2  10  -2    9.27    1.00
  -2  10  -2    9.45    1.10
   2 -10   2    7.07    0.97
   2 -10   2    8.68    0.98
   2 -10   2    8.17    0.86
  -3  10  -2    7.51    0.86
  -3  10  -2    5.20    0.87
  -3  10  -2    6.27    0.93
   3 -10   2    5.47    0.81
   3 -10   2    5.17    0.75
   3 -10   2    5.18    0.78
  -4  10  -2    1.58    0.64
  -4  10  -2    1.35    0.51
  -4  10  -2    2.14    0.66
   4 -10   2    1.97    0.55
   4 -10   2    1.34    0.54
  -5  10  -2    2.19    0.69
  -5  10  -2    3.68    0.78
  -5  10  -2    1.31    0.55
   5 -10   2    1.93    0.60
   5 -10   2    2.97    0.63
   5 -10   2    2.66    0.57
  -6  10  -2    2.85    0.80
  -6  10  -2    4.72    0.75
   6 -10   2    3.88    0.74
   6 -10   2    3.59    0.71
   4   9  -2    5.96    0.77
   4   9  -2    5.93    0.86
  -4  -9   2    6.93    0.89
   3   9  -2   34.24    2.35
   3   9  -2   34.03    2.31
  -3  -9   2   31.82    2.80
  -3  -9   2   33.44    2.36
  -3  -9   2   33.55    2.99
   2   9  -2    3.83    0.74
   2   9  -2    4.30    0.58
   2   9  -2    3.31    0.67
  -2  -9   2    2.93    0.69
  -2  -9   2    4.01    0.70
  -2  -9   2    4.38    0.84
   1   9  -2   28.28    2.00
   1   9  -2   24.38    1.89
  -1  -9   2   26.65    2.34
  -1  -9   2   25.58    1.92
  -1  -9   2   23.88    2.22
   0   9  -2    0.35    0.44
   0   9  -2    0.54    0.51
   0  -9   2   -0.15    0.40
   0  -9   2   -0.21    0.40
   0  -9   2   -0.64    0.37
  -1   9  -2   21.60    1.85
  -1   9  -2   25.34    1.84
  -1   9  -2   24.46    1.76
   1  -9   2   24.81    1.63
   1  -9   2   22.15    2.03
   1  -9   2   22.74    1.76
   1  -9   2   25.30    2.12
  -2   9  -2    7.86    0.94
  -2   9  -2    9.74    1.01
  -2   9  -2    9.49    1.05
   2  -9   2    8.54    1.01
   2  -9   2    9.51    0.89
   2  -9   2    7.96    1.01
   2  -9   2    9.02    0.97
  -3   9  -2   60.25    3.88
  -3   9  -2   55.37    3.75
  -3   9  -2   52.85    3.50
   3  -9   2   56.75    3.42
   3  -9   2   55.34    3.55
   3  -9   2   50.21    4.24
  -4   9  -2   54.34    3.53
  -4   9  -2   54.02    3.77
  -4   9  -2   57.16    3.92
   4  -9   2   56.82    3.48
   4  -9   2   53.96    3.55
  -5   9  -2   12.15    1.20
  -5   9  -2   11.77    1.27
  -5   9  -2   13.49    1.16
   5  -9   2   13.36    1.19
   5  -9   2   11.76    1.08
   5  -9   2   13.13    1.17
  -6   9  -2   12.83    1.44
  -6   9  -2   14.42    1.33
  -6   9  -2   14.77    1.24
   6  -9   2   14.39    1.22
   6  -9   2   14.32    1.29
   6  -9   2   14.40    1.25
  -7   9  -2    4.82    0.90
  -7   9  -2    5.05    0.87
   7  -9   2    5.98    0.87
   7  -9   2    5.40    0.77
   5   8  -2    8.55    1.09
   5   8  -2    7.03    0.86
   4   8  -2    0.41    0.48
   4   8  -2   -0.37    0.42
   4   8  -2    0.49    0.38
  -4  -8   2    0.26    0.44
  -4  -8   2   -0.02    0.50
  -4  -8   2    0.18    0.48
   3   8  -2   39.22    3.00
   3   8  -2   40.95    2.58
   3   8  -2   39.36    2.58
  -3  -8   2   39.35    2.62
  -3  -8   2   34.71    3.12
  -3  -8   2   37.73    3.31
   2   8  -2   37.13    2.51
   2   8  -2   35.49    2.41
   2   8  -2   37.05    2.79
   2   8  -2   36.74    2.45
  -2  -8   2   35.67    2.95
  -2  -8   2   32.54    2.43
  -2  -8   2   39.87    3.15
   1   8  -2    4.59    0.69
   1   8  -2    5.65    0.66
   1   8  -2    6.50    0.79
  -1  -8   2    5.24    0.85
  -1  -8   2    5.11    0.77
  -1  -8   2    5.07    0.70
   0   8  -2   16.53    1.45
   0   8  -2   16.61    1.38
   0   8  -2   17.63    1.35
   0   8  -2   15.76    1.32
   0  -8   2   16.88    1.35
   0  -8   2   19.32    1.66
   0  -8   2   16.84    1.18
   0  -8   2   16.90    1.56
  -1   8  -2    7.22    0.89
  -1   8  -2    7.40    0.80
  -1   8  -2    6.29    0.79
   1  -8   2    7.76    0.83
   1  -8   2    7.79    0.93
   1  -8   2    6.73    0.86
   1  -8   2    6.89    0.70
  -2   8  -2  122.66    7.90
  -2   8  -2  123.23    7.40
  -2   8  -2  122.24    8.17
   2  -8   2  120.52    7.42
   2  -8   2  122.90    7.21
   2  -8   2  118.17    9.18
   2  -8   2  132.66    9.45
  -3   8  -2    0.93    0.51
  -3   8  -2    0.63    0.43
  -3   8  -2    1.69    0.53
   3  -8   2    0.21    0.39
   3  -8   2    0.21    0.40
   3  -8   2    0.68    0.36
   3  -8   2    0.46    0.32
  -4   8  -2    0.88    0.49
  -4   8  -2   -0.36    0.47
  -4   8  -2    0.80    0.40
   4  -8   2    0.05    0.41
   4  -8   2    0.58    0.38
  -5   8  -2    6.68    0.86
  -5   8  -2    7.36    0.93
  -5   8  -2    7.56    0.82
   5  -8   2    7.30    0.78
   5  -8   2    7.31    0.83
   5  -8   2    5.86    0.79
  -6   8  -2   25.47    1.83
  -6   8  -2   25.62    2.07
  -6   8  -2   25.79    1.94
   6  -8   2   25.33    1.85
   6  -8   2   26.46    1.89
   6  -8   2   26.77    1.81
  -7   8  -2   12.87    1.22
  -7   8  -2   14.64    1.40
   7  -8   2   12.40    1.14
   7  -8   2   13.29    1.29
   6   7  -2    2.89    0.66
   6   7  -2    3.10    0.80
   5   7  -2    4.15    0.63
   5   7  -2    3.15    0.73
  -5  -7   2    3.73    0.84
  -5  -7   2    3.10    0.74
   4   7  -2   28.38    1.91
   4   7  -2   27.32    2.24
   4   7  -2   29.08    1.91
  -4  -7   2   25.64    2.30
  -4  -7   2   27.31    1.90
  -4  -7   2   24.05    2.45
   3   7  -2   15.36    1.16
   3   7  -2   13.59    1.29
   3   7  -2   13.56    1.09
  -3  -7   2   12.38    1.33
  -3  -7   2   12.27    1.45
  -3  -7   2   13.06    1.15
   2   7  -2    0.73    0.38
   2   7  -2    0.19    0.34
   2   7  -2    0.05    0.49
   2   7  -2   -0.51    0.36
  -2  -7   2    0.46    0.45
  -2  -7   2    0.91    0.38
  -2  -7   2    0.52    0.43
   1   7  -2    9.49    0.85
   1   7  -2    8.22    0.83
   1   7  -2    8.60    0.92
   1   7  -2    8.71    0.77
  -1  -7   2    7.34    0.82
  -1  -7   2    7.45    1.00
  -1  -7   2    7.06    0.91
   0   7  -2    2.88    0.52
   0   7  -2    3.78    0.64
   0   7  -2    4.37    0.59
   0  -7   2    2.20    0.55
   0  -7   2    2.68    0.61
   0  -7   2    3.44    0.55
   0  -7   2    1.98    0.42
  -1   7  -2  103.02    6.97
  -1   7  -2  109.66    7.21
  -1   7  -2  106.70    6.54
   1  -7   2  109.32    6.34
   1  -7   2  103.34    8.12
   1  -7   2  120.43    8.39
   1  -7   2  110.29    6.57
  -2   7  -2    4.99    0.68
  -2   7  -2    5.08    0.65
  -2   7  -2    5.48    0.73
   2  -7   2    4.51    0.67
   2  -7   2    5.31    0.65
   2  -7   2    5.16    0.61
   2  -7   2    7.56    0.76
  -3   7  -2  152.07    9.74
  -3   7  -2  147.04    9.34
  -3   7  -2  143.88    8.75
   3  -7   2  151.12    8.78
   3  -7   2  158.69   11.20
   3  -7   2  143.99    8.57
   3  -7   2  135.63   10.91
  -4   7  -2   71.85    4.77
  -4   7  -2   67.31    4.54
  -4   7  -2   67.95    4.26
   4  -7   2   67.99    4.22
   4  -7   2   72.37    4.29
  -5   7  -2    0.15    0.41
  -5   7  -2    1.19    0.39
  -5   7  -2   -0.26    0.46
   5  -7   2    1.32    0.40
   5  -7   2   -0.29    0.37
   5  -7   2    0.85    0.34
  -6   7  -2    7.94    0.93
  -6   7  -2   10.08    1.09
  -6   7  -2    8.54    0.85
   6  -7   2    8.63    0.94
   6  -7   2    8.77    0.87
   6  -7   2    8.50    0.86
  -7   7  -2    2.71    0.70
  -7   7  -2    3.50    0.65
   7  -7   2    2.54    0.61
   7  -7   2    2.92    0.56
  -8   7  -2   17.58    1.60
  -8   7  -2   16.94    1.42
   8  -7   2   15.66    1.44
   8  -7   2   14.79    1.32
   7   6  -2    3.48    0.87
   6   6  -2   -0.05    0.45
   6   6  -2    0.17    0.54
  -6  -6   2   -0.15    0.49
  -6  -6   2    0.78    0.59
   5   6  -2   17.84    1.42
   5   6  -2   19.25    1.39
   5   6  -2   19.48    1.72
  -5  -6   2   16.88    1.84
  -5  -6   2   18.06    1.69
  -5  -6   2   18.97    1.37
   4   6  -2    0.64    0.36
   4   6  -2    0.38    0.33
   4   6  -2   -0.40    0.39
  -4  -6   2   -0.26    0.39
  -4  -6   2   -0.40    0.38
  -4  -6   2    0.20    0.33
   3   6  -2   16.76    1.23
   3   6  -2   18.77    1.28
   3   6  -2   17.81    1.46
  -3  -6   2   15.06    1.25
  -3  -6   2   15.85    1.50
  -3  -6   2   15.43    1.63
   2   6  -2  103.24    6.70
   2   6  -2  110.62    7.56
   2   6  -2  109.40    6.36
  -2  -6   2   97.62    8.18
  -2  -6   2  109.54    6.37
  -2  -6   2  104.44    7.91
   1   6  -2   -0.27    0.40
   1   6  -2   -0.26    0.32
   1   6  -2   -0.31    0.29
   1   6  -2   -0.68    0.28
  -1  -6   2   -0.70    0.34
  -1  -6   2   -0.50    0.29
  -1  -6   2   -0.38    0.32
   0   6  -2   90.81    5.45
   0   6  -2   91.88    5.97
   0   6  -2   89.83    5.82
   0  -6   2   87.56    6.77
   0  -6   2   94.83    7.00
   0  -6   2   87.95    5.46
   0  -6   2   90.87    5.25
  -1   6  -2   -0.13    0.27
  -1   6  -2   -0.33    0.34
  -1   6  -2    0.18    0.32
   1  -6   2    0.51    0.30
   1  -6   2    0.05    0.26
   1  -6   2   -0.05    0.27
   1  -6   2    0.05    0.26
  -2   6  -2  161.83   10.29
  -2   6  -2  157.35    9.63
  -2   6  -2  171.73   10.73
   2  -6   2  151.76   12.04
   2  -6   2  175.18   12.39
   2  -6   2  171.03    9.67
   2  -6   2  156.11    9.42
  -3   6  -2   14.48    1.23
  -3   6  -2   15.24    1.16
  -3   6  -2   13.45    1.14
  -3   6  -2   17.33    1.38
  -3   6  -2   13.09    1.29
   3  -6   2   15.04    1.16
   3  -6   2   15.36    1.34
   3  -6   2   18.85    1.37
   3  -6   2   16.87    1.18
  -4   6  -2  244.21   14.67
  -4   6  -2  251.08   16.39
  -4   6  -2  233.67   15.67
  -4   6  -2  273.17   18.91
   4  -6   2  250.28   14.69
   4  -6   2  253.72   14.44
   4  -6   2  249.05   17.00
   4  -6   2  251.92   14.18
  -5   6  -2    1.96    0.40
  -5   6  -2    1.81    0.47
  -5   6  -2    2.12    0.53
   5  -6   2    2.08    0.41
   5  -6   2    1.16    0.43
   5  -6   2    1.85    0.39
  -6   6  -2    8.15    0.97
  -6   6  -2    8.67    0.78
  -6   6  -2    8.42    0.88
   6  -6   2    9.31    0.91
   6  -6   2    8.10    0.77
   6  -6   2    6.99    0.78
  -7   6  -2   24.79    1.74
  -7   6  -2   23.48    1.82
  -7   6  -2   26.96    2.03
   7  -6   2   23.76    1.82
   7  -6   2   25.77    1.72
  -8   6  -2    7.73    1.07
  -8   6  -2    7.85    0.83
  -8   6  -2    8.28    0.93
   8  -6   2    6.88    0.96
   8  -6   2    9.30    0.93
  -9   6  -2   14.26    1.44
  -9   6  -2   13.21    1.23
  -9   6  -2   12.28    1.14
   7   5  -2    0.45    0.62
   7   5  -2    0.65    0.47
  -7  -5   2    0.15    0.56
  -7  -5   2   -0.13    0.51
   6   5  -2   15.45    1.56
   6   5  -2   16.85    1.31
  -6  -5   2   16.02    1.70
  -6  -5   2   15.55    1.52
   5   5  -2   -0.08    0.30
   5   5  -2    0.89    0.38
   5   5  -2    0.49    0.43
  -5  -5   2    0.14    0.29
  -5  -5   2    0.38    0.38
  -5  -5   2    0.30    0.45
   4   5  -2   13.61    1.04
   4   5  -2   13.27    1.24
   4   5  -2   13.83    1.04
  -4  -5   2   13.21    1.02
  -4  -5   2   11.79    1.33
  -4  -5   2   12.26    1.23
   3   5  -2  108.81    6.43
   3   5  -2  105.22    7.48
   3   5  -2  104.81    6.23
  -3  -5   2  103.23    6.23
  -3  -5   2  109.59    7.80
  -3  -5   2   93.56    8.06
   2   5  -2  145.48    7.99
   2   5  -2  130.46    8.46
   2   5  -2  135.69    9.55
  -2  -5   2  127.15   10.32
  -2  -5   2  134.73    7.98
  -2  -5   2  135.36    9.98
   1   5  -2   26.94    1.75
   1   5  -2   23.80    1.84
   1   5  -2   27.53    1.83
  -1  -5   2   28.73    2.24
  -1  -5   2   25.98    1.75
  -1  -5   2   25.85    2.12
   0   5  -2   15.50    1.19
   0   5  -2   15.29    1.23
   0   5  -2   14.54    1.13
   0   5  -2   15.69    1.02
   0  -5   2   18.88    1.45
   0  -5   2   17.18    1.17
   0  -5   2   15.44    1.04
   0  -5   2   16.35    1.38
  -1   5  -2  174.54   11.27
  -1   5  -2  172.81   10.55
  -1   5  -2  172.90   11.72
  -1   5  -2  187.13   13.62
  -1   5  -2  182.60   10.30
   1  -5   2  177.00   13.22
   1  -5   2  173.68   10.30
   1  -5   2  177.83   10.57
   1  -5   2  200.22   13.62
  -2   5  -2    0.05    0.26
  -2   5  -2    0.04    0.30
  -2   5  -2    0.23    0.22
  -2   5  -2   -0.32    0.29
   2  -5   2    0.63    0.24
   2  -5   2    0.14    0.19
   2  -5   2   -0.71    0.24
   2  -5   2   -0.14    0.24
  -3   5  -2   15.19    1.06
  -3   5  -2   14.93    1.12
  -3   5  -2   16.40    1.25
  -3   5  -2   13.54    1.18
  -3   5  -2   13.47    1.07
   3  -5   2   13.48    1.06
   3  -5   2   14.58    1.07
  -4   5  -2   45.27    3.27
  -4   5  -2   39.14    2.78
  -4   5  -2   42.09    2.61
  -4   5  -2   42.28    2.95
   4  -5   2   39.29    2.62
   4  -5   2   44.69    2.63
   4  -5   2   40.18    2.52
  -5   5  -2    0.27    0.20
  -5   5  -2   -0.05    0.33
  -5   5  -2   -0.17    0.22
  -5   5  -2   -0.02    0.39
  -5   5  -2    0.02    0.23
   5  -5   2   -0.60    0.31
   5  -5   2   -0.08    0.23
   5  -5   2    0.13    0.28
  -6   5  -2    7.73    0.76
  -6   5  -2    9.63    0.80
  -6   5  -2    9.76    0.87
  -6   5  -2    9.78    1.01
   6  -5   2   10.20    0.85
   6  -5   2   10.50    0.79
   6  -5   2    8.36    0.90
  -7   5  -2   16.27    1.40
  -7   5  -2   14.80    1.11
  -7   5  -2   13.77    1.19
   7  -5   2   13.40    1.24
   7  -5   2   15.29    1.16
  -8   5  -2   23.98    1.65
  -8   5  -2   22.80    1.74
  -8   5  -2   24.11    1.94
   8  -5   2   22.71    1.65
  -9   5  -2    0.73    0.53
  -9   5  -2    0.62    0.61
  -9   5  -2    0.50    0.40
   9  -5   2    0.64    0.47
  -8  -4   2    0.09    0.55
  -8  -4   2   -0.27    0.56
   7   4  -2   10.40    1.03
   7   4  -2   11.13    1.34
  -7  -4   2   10.97    1.22
  -7  -4   2   11.38    1.38
   6   4  -2    8.11    1.02
   6   4  -2    8.98    0.83
  -6  -4   2    7.38    1.08
  -6  -4   2    8.13    0.95
   5   4  -2   31.24    2.46
   5   4  -2   31.64    1.96
   5   4  -2   34.07    2.08
  -5  -4   2   26.96    2.62
  -5  -4   2   29.50    1.94
  -5  -4   2   29.62    2.47
   4   4  -2   50.86    3.93
   4   4  -2   54.59    3.36
   4   4  -2   57.44    3.25
  -4  -4   2   51.17    3.22
  -4  -4   2   49.05    4.24
  -4  -4   2   53.98    4.06
   3   4  -2   77.10    4.60
   3   4  -2   76.99    5.54
   3   4  -2   80.52    4.76
  -3  -4   2   72.23    4.59
  -3  -4   2   77.51    5.76
  -3  -4   2   67.70    5.97
  -3  -4   2   84.09    5.03
   2   4  -2  423.52   22.93
   2   4  -2  380.12   27.60
  -2  -4   2  415.97   28.83
  -2  -4   2  384.75   22.91
  -2  -4   2  368.32   29.69
   1   4  -2   57.29    3.97
   1   4  -2   58.93    4.07
   1   4  -2   65.82    3.74
  -1  -4   2   58.40    3.96
  -1  -4   2   61.31    3.74
  -1  -4   2   73.66    4.86
  -1  -4   2   59.98    4.65
   0   4  -2  138.57    8.46
   0   4  -2  141.37    9.38
   0   4  -2  152.76   10.94
   0   4  -2  141.70    9.06
   0   4  -2  149.31    8.23
   0  -4   2  146.82    8.23
   0  -4   2  131.57    9.01
   0  -4   2  144.13    8.47
   0  -4   2  150.65   10.61
  -1   4  -2   10.54    0.84
  -1   4  -2    8.30    0.75
  -1   4  -2    7.47    0.73
  -1   4  -2    9.80    0.71
  -1   4  -2    8.95    0.66
  -1   4  -2    7.91    0.79
   1  -4   2    8.57    0.80
   1  -4   2    9.47    0.71
   1  -4   2    7.23    0.64
   1  -4   2    8.12    0.79
  -2   4  -2   96.10    6.38
  -2   4  -2   93.35    6.11
  -2   4  -2   94.51    5.73
  -2   4  -2   90.64    7.14
  -2   4  -2  113.12    7.37
  -2   4  -2   91.92    6.27
   2  -4   2   98.90    5.74
   2  -4   2   93.49    7.15
   2  -4   2   98.93    5.63
   2  -4   2   98.21    7.34
  -3   4  -2  129.95    7.37
  -3   4  -2  119.28    7.86
  -3   4  -2  131.01    9.46
  -3   4  -2  109.10    7.35
  -3   4  -2  121.80    8.23
  -3   4  -2  129.05    8.12
   3  -4   2  129.77    7.26
   3  -4   2  140.47    7.38
   3  -4   2  121.60    7.37
   3  -4   2  120.47    7.10
  -4   4  -2   16.90    1.22
  -4   4  -2   17.29    1.23
  -4   4  -2   19.05    1.32
  -4   4  -2   18.80    1.43
  -4   4  -2   20.28    1.23
  -4   4  -2   18.06    1.49
   4  -4   2   18.19    1.21
   4  -4   2   16.49    1.22
   4  -4   2   18.22    1.28
   4  -4   2   20.53    1.24
  -5   4  -2  143.85    8.54
  -5   4  -2  142.31    8.53
  -5   4  -2  151.85   11.02
  -5   4  -2  146.36    9.62
  -5   4  -2  142.27    8.75
  -5   4  -2  147.72    9.17
   5  -4   2  149.99    8.54
   5  -4   2  142.98    8.49
   5  -4   2  141.16    8.53
   5  -4   2  149.59    8.32
  -6   4  -2   32.41    2.39
  -6   4  -2   31.49    2.21
  -6   4  -2   33.58    1.99
  -6   4  -2   32.76    2.10
   6  -4   2   33.47    2.16
   6  -4   2   31.04    2.05
   6  -4   2   32.22    1.99
  -7   4  -2   17.16    1.37
  -7   4  -2   14.99    1.11
  -7   4  -2   14.81    1.20
   7  -4   2   13.17    1.11
  -8   4  -2    1.02    0.47
  -8   4  -2    1.18    0.37
  -8   4  -2    0.80    0.56
   8  -4   2    0.23    0.40
  -9   4  -2   26.38    2.01
  -9   4  -2   23.57    1.69
  -9   4  -2   25.24    1.79
   9  -4   2   19.31    1.63
  -9  -3   2    4.46    0.81
   8   3  -2   27.11    2.04
   8   3  -2   27.03    2.48
  -8  -3   2   28.62    2.40
  -8  -3   2   29.08    2.64
   7   3  -2    2.60    0.72
   7   3  -2    2.84    0.57
  -7  -3   2    3.46    0.73
  -7  -3   2    3.97    0.65
   6   3  -2   27.80    2.54
   6   3  -2   33.91    2.18
  -6  -3   2   31.73    2.77
  -6  -3   2   33.29    2.57
   5   3  -2    7.43    0.59
   5   3  -2    7.92    0.69
   5   3  -2    5.52    0.83
  -5  -3   2    6.22    0.76
  -5  -3   2    5.26    0.88
  -5  -3   2    6.89    0.57
   4   3  -2  143.00    8.76
   4   3  -2  135.54   10.19
   4   3  -2  158.39    8.41
  -4  -3   2  134.38   10.96
  -4  -3   2  138.18    8.41
  -4  -3   2  149.48   10.59
  -4  -3   2  144.02    8.40
   3   3  -2    6.45    0.72
   3   3  -2    6.88    0.60
   3   3  -2    6.65    0.63
   3   3  -2    7.15    0.59
  -3  -3   2    7.44    0.73
  -3  -3   2    6.88    0.63
  -3  -3   2    7.16    0.57
  -3  -3   2    7.86    0.66
  -3  -3   2    6.99    0.81
  -3  -3   2    6.87    0.61
   2   3  -2  210.40   17.37
   2   3  -2  243.44   14.43
   2   3  -2  262.70   14.43
  -2  -3   2  254.80   14.44
  -2  -3   2  261.20   15.95
  -2  -3   2  250.34   18.72
  -2  -3   2  246.36   15.41
  -2  -3   2  221.35   14.42
  -2  -3   2  281.73   18.16
   1   3  -2  473.89   28.67
   1   3  -2  469.12   31.92
   1   3  -2  493.55   28.67
   1   3  -2  461.21   37.15
   1   3  -2  476.34   36.07
   1   3  -2  469.66   30.64
  -1  -3   2  485.74   30.65
  -1  -3   2  558.58   37.17
  -1  -3   2  503.79   31.92
  -1  -3   2  505.99   28.68
  -1  -3   2  536.57   36.09
  -1  -3   2  506.74   28.68
   0   3  -2   -0.11    0.16
   0   3  -2    0.11    0.12
   0   3  -2   -0.11    0.14
   0   3  -2    0.00    0.16
   0   3  -2    0.22    0.19
   0   3  -2   -0.16    0.12
   0   3  -2    0.26    0.24
   0  -3   2   -0.11    0.14
   0  -3   2   -0.17    0.13
   0  -3   2    0.09    0.15
   0  -3   2    0.06    0.19
   0  -3   2   -0.07    0.14
   0  -3   2    0.15    0.16
  -1   3  -2  195.82   12.69
  -1   3  -2  195.66   13.22
  -1   3  -2  196.53   14.90
  -1   3  -2  206.63   11.62
  -1   3  -2  216.90   11.88
  -1   3  -2  195.29   11.87
   1  -3   2  189.04   12.67
   1  -3   2  221.02   15.34
   1  -3   2  207.37   11.62
   1  -3   2  217.74   11.88
   1  -3   2  205.68   11.87
   1  -3   2  198.27   14.90
  -2   3  -2    3.07    0.36
  -2   3  -2    3.09    0.38
  -2   3  -2    3.04    0.38
  -2   3  -2    2.52    0.39
  -2   3  -2    3.18    0.38
  -2   3  -2    3.30    0.36
  -2   3  -2    2.67    0.32
  -2   3  -2    3.29    0.37
   2  -3   2    3.11    0.37
   2  -3   2    3.34    0.40
   2  -3   2    3.45    0.36
   2  -3   2    3.15    0.35
   2  -3   2    3.09    0.31
   2  -3   2    3.47    0.36
  -3   3  -2   83.34    6.50
  -3   3  -2   92.98    5.61
  -3   3  -2   88.97    5.68
  -3   3  -2   88.42    5.41
  -3   3  -2   93.29    5.06
  -3   3  -2   77.65    5.15
  -3   3  -2   86.27    5.06
   3  -3   2   72.16    5.15
   3  -3   2   89.97    5.06
   3  -3   2   88.67    5.62
   3  -3   2   96.23    5.03
   3  -3   2   77.61    4.89
   3  -3   2   82.84    5.06
  -4   3  -2   78.71    5.09
  -4   3  -2   91.53    5.36
  -4   3  -2   81.08    4.96
  -4   3  -2   85.77    5.62
  -4   3  -2   90.99    4.98
   4  -3   2   73.98    4.96
   4  -3   2   93.75    4.99
   4  -3   2   81.22    5.56
   4  -3   2   88.88    4.98
   4  -3   2   80.99    4.85
  -5   3  -2  138.03    9.34
  -5   3  -2  140.62    8.62
  -5   3  -2  140.46    9.05
  -5   3  -2  147.08    8.00
  -5   3  -2  126.48    8.23
  -5   3  -2  141.47    8.00
   5  -3   2  132.66    7.82
   5  -3   2  134.28    7.99
   5  -3   2  137.53    8.00
   5  -3   2  133.64    7.99
  -6   3  -2   17.99    1.42
  -6   3  -2   17.08    1.20
  -6   3  -2   16.99    1.43
  -6   3  -2   18.10    1.29
   6  -3   2   16.70    1.20
  -7   3  -2   15.52    1.48
  -7   3  -2   20.03    1.37
  -7   3  -2   18.01    1.29
  -7   3  -2   18.67    1.50
   7  -3   2   17.67    1.28
  -8   3  -2   24.86    1.64
  -8   3  -2   24.70    1.90
  -8   3  -2   24.24    1.72
  -8   3  -2   22.40    1.88
   8  -3   2   20.95    1.58
  -9   3  -2   -0.19    0.39
  -9   3  -2   -0.34    0.54
  -9   3  -2   -0.39    0.41
  -9   3  -2   -0.13    0.45
  -9   3  -2   -0.55    0.34
   9  -3   2   -0.57    0.41
  -9  -2   2    0.25    0.47
  -9  -2   2    0.28    0.53
   8   2  -2    3.70    0.67
   8   2  -2    5.72    0.94
  -8  -2   2    4.45    0.85
  -8  -2   2    4.74    0.75
   7   2  -2   27.39    1.97
   7   2  -2   28.16    2.39
  -7  -2   2   30.38    2.35
  -7  -2   2   26.37    2.51
   6   2  -2    7.46    1.00
   6   2  -2    9.02    0.80
  -6  -2   2    8.50    0.92
  -6  -2   2    8.98    1.09
   5   2  -2   45.01    2.80
   5   2  -2   39.18    3.27
   5   2  -2   43.21    2.62
   5   2  -2   47.38    2.60
  -5  -2   2   44.48    3.34
  -5  -2   2   41.38    3.52
  -5  -2   2   45.54    2.59
  -5  -2   2   40.23    2.62
   4   2  -2    2.30    0.29
   4   2  -2    2.30    0.27
   4   2  -2    1.39    0.42
   4   2  -2    1.83    0.32
  -4  -2   2    2.10    0.28
  -4  -2   2    2.56    0.39
  -4  -2   2    2.50    0.26
  -4  -2   2    1.40    0.42
   3   2  -2    0.48    0.18
   3   2  -2    0.63    0.17
   3   2  -2    0.69    0.19
   3   2  -2    0.47    0.25
  -3  -2   2    0.48    0.18
  -3  -2   2    1.07    0.30
  -3  -2   2    0.75    0.22
  -3  -2   2    0.85    0.23
  -3  -2   2    0.64    0.17
   2   2  -2  112.12    6.90
   2   2  -2  127.76    6.90
   2   2  -2  114.78    8.32
   2   2  -2  119.71    8.67
   2   2  -2  118.28    7.16
  -2  -2   2  118.88    7.35
  -2  -2   2  120.58    7.63
  -2  -2   2  100.99    6.87
  -2  -2   2  119.02    7.62
  -2  -2   2  117.76    6.90
  -2  -2   2  127.75    8.97
   1   2  -2    2.61    0.38
   1   2  -2    2.58    0.29
   1   2  -2    3.52    0.32
   1   2  -2    2.83    0.36
   1   2  -2    2.88    0.31
  -1  -2   2    3.31    0.33
  -1  -2   2    2.84    0.27
  -1  -2   2    2.83    0.35
  -1  -2   2    2.52    0.39
   0   2  -2    3.88    0.31
   0   2  -2    4.59    0.42
   0   2  -2    3.68    0.35
   0   2  -2    4.03    0.41
   0   2  -2    3.61    0.40
   0   2  -2    3.44    0.36
   0   2  -2    3.43    0.34
   0  -2   2    3.18    0.36
   0  -2   2    3.37    0.33
   0  -2   2    3.47    0.34
   0  -2   2    4.86    0.43
  -1   2  -2   95.77    6.72
  -1   2  -2   86.26    5.98
  -1   2  -2   95.03    5.37
  -1   2  -2   89.87    5.74
  -1   2  -2   88.59    5.36
  -1   2  -2   85.43    5.25
   1  -2   2  100.00    5.37
   1  -2   2   96.76    5.37
   1  -2   2   85.86    5.91
   1  -2   2   84.62    5.98
   1  -2   2   85.90    5.72
   1  -2   2   97.39    6.92
   1  -2   2   92.20    6.72
  -2   2  -2  694.29   52.33
   2  -2   2  703.62   46.85
  -3   2  -2  104.34    6.08
  -3   2  -2   94.38    7.07
  -3   2  -2  116.89    6.54
  -3   2  -2   93.31    6.23
  -3   2  -2  116.12    6.86
  -3   2  -2  112.76    6.80
  -3   2  -2  111.97    6.10
  -3   2  -2   99.73    7.38
   3  -2   2  102.05    6.53
   3  -2   2  112.42    6.05
   3  -2   2   98.48    7.09
   3  -2   2  106.88    6.09
   3  -2   2  109.63    6.81
   3  -2   2   93.55    5.91
   3  -2   2   92.33    6.07
  -4   2  -2  227.23   14.42
  -4   2  -2  230.45   16.36
  -4   2  -2  259.68   15.09
  -4   2  -2  251.58   14.05
  -4   2  -2  240.60   15.78
   4  -2   2  233.98   13.66
   4  -2   2  236.51   15.70
   4  -2   2  240.85   13.89
   4  -2   2  268.71   14.07
   4  -2   2  236.98   14.05
  -5   2  -2   14.27    1.19
  -5   2  -2   13.48    1.01
  -5   2  -2   16.58    1.08
  -5   2  -2   13.77    1.17
   5  -2   2   15.39    1.21
   5  -2   2   14.38    1.01
  -6   2  -2    6.17    0.59
  -6   2  -2    6.00    0.74
  -6   2  -2    6.01    0.71
  -6   2  -2    6.07    0.63
   6  -2   2    5.67    0.60
   6  -2   2    6.62    0.77
  -7   2  -2   19.72    1.54
  -7   2  -2   20.83    1.37
  -7   2  -2   18.77    1.40
  -7   2  -2   19.04    1.56
   7  -2   2   17.49    1.30
  -8   2  -2    3.78    0.66
  -8   2  -2    3.95    0.56
  -8   2  -2    2.83    0.49
  -8   2  -2    3.00    0.61
   8  -2   2    4.07    0.55
  -9   2  -2   14.09    1.15
  -9   2  -2   12.62    1.32
  -9   2  -2   15.47    1.40
  -9  -1   2   -0.12    0.45
   8   1  -2   27.24    2.50
   8   1  -2   27.92    2.07
  -8  -1   2   32.96    2.45
  -8  -1   2   28.51    2.61
   7   1  -2   13.65    1.05
   7   1  -2   11.00    1.32
  -7  -1   2   10.31    1.35
  -7  -1   2   13.02    1.20
   6   1  -2   20.45    1.93
   6   1  -2   26.44    1.52
   6   1  -2   23.30    1.63
  -6  -1   2   24.70    1.91
  -6  -1   2   21.51    2.04
   5   1  -2    3.75    0.40
   5   1  -2    4.22    0.35
   5   1  -2    4.22    0.34
   5   1  -2    3.12    0.58
  -5  -1   2    3.35    0.49
  -5  -1   2    5.06    0.55
  -5  -1   2    4.31    0.62
  -5  -1   2    4.23    0.36
   4   1  -2    0.26    0.16
   4   1  -2    0.25    0.12
   4   1  -2    0.42    0.21
   4   1  -2   -0.01    0.13
   4   1  -2   -0.19    0.25
  -4  -1   2    0.13    0.10
  -4  -1   2    0.11    0.23
  -4  -1   2    0.38    0.18
  -4  -1   2    0.38    0.14
   3   1  -2  421.45   24.54
   3   1  -2  357.54   29.64
   3   1  -2  439.10   30.91
   3   1  -2  396.55   24.04
   3   1  -2  411.93   25.55
   3   1  -2  459.49   24.53
  -3  -1   2  472.70   30.91
  -3  -1   2  428.85   23.72
  -3  -1   2  402.23   24.52
  -3  -1   2  430.20   24.54
  -3  -1   2  426.07   31.85
  -3  -1   2  444.30   27.26
   2   1  -2  111.72    6.20
   2   1  -2  113.51    7.81
   2   1  -2  100.30    6.06
   2   1  -2  101.47    6.20
   2   1  -2   90.81    7.49
   2   1  -2  105.23    6.45
  -2  -1   2   98.84    6.19
  -2  -1   2  115.03    8.09
  -2  -1   2  106.55    6.89
  -2  -1   2  121.81    6.22
   1   1  -2  313.00   24.50
  -1  -1   2  339.58   24.50
   0   1  -2   35.36    2.66
   0   1  -2   33.84    2.06
   0   1  -2   32.51    2.06
   0   1  -2   32.39    2.29
   0   1  -2   34.17    2.57
   0   1  -2   33.11    2.20
   0  -1   2   30.49    2.20
   0  -1   2   31.11    2.05
   0  -1   2   30.30    2.28
   0  -1   2   38.86    2.58
   0  -1   2   34.53    2.06
   0  -1   2   35.32    2.66
  -3   1  -2  359.48   23.52
  -3   1  -2  420.77   25.55
  -3   1  -2  445.33   25.69
  -3   1  -2  373.51   22.58
  -3   1  -2  398.35   22.23
  -3   1  -2  457.99   24.59
  -3   1  -2  363.27   22.96
  -3   1  -2  385.84   26.68
  -3   1  -2  391.38   23.95
   3  -1   2  399.73   22.24
   3  -1   2  371.34   22.95
   3  -1   2  370.46   25.54
   3  -1   2  429.01   26.74
  -4   1  -2   75.71    4.24
  -4   1  -2   68.97    4.46
  -4   1  -2   60.68    4.05
  -4   1  -2   66.03    4.62
   4  -1   2   72.18    4.58
   4  -1   2   63.36    3.86
   4  -1   2   61.45    4.46
  -5   1  -2   45.24    3.23
  -5   1  -2   46.83    3.35
  -5   1  -2   47.18    2.93
  -5   1  -2   53.39    3.06
   5  -1   2   46.07    2.80
   5  -1   2   47.17    3.28
   5  -1   2   46.23    3.29
  -6   1  -2   41.75    2.66
  -6   1  -2   41.18    2.95
  -6   1  -2   43.87    2.86
  -6   1  -2   40.45    2.57
   6  -1   2   37.96    2.89
   6  -1   2   39.07    2.46
  -7   1  -2    8.75    0.98
  -7   1  -2   13.35    1.05
  -7   1  -2   10.26    0.86
  -7   1  -2   10.93    0.90
  -8   1  -2   14.49    1.10
  -8   1  -2   15.04    1.27
  -8   1  -2   14.03    1.33
  -8   1  -2   11.96    1.24
  -9   1  -2   -0.27    0.41
  -9   1  -2   -0.01    0.35
  -9   1  -2    0.05    0.43
   9   0  -2    7.34    0.90
   9   0  -2    8.26    1.14
  -9   0   2    8.39    0.90
   8   0  -2    1.60    0.47
   8   0  -2    1.33    0.61
  -8   0   2    1.17    0.41
  -8   0   2    1.11    0.37
  -8   0   2    1.92    0.51
   7   0  -2   63.25    4.05
   7   0  -2   57.26    4.75
   7   0  -2   65.20    3.82
  -7   0   2   66.99    4.82
  -7   0   2   64.39    5.05
   6   0  -2   30.71    2.67
   6   0  -2   36.51    2.17
   6   0  -2   35.55    2.28
  -6   0   2   37.70    2.69
  -6   0   2   32.00    2.83
   5   0  -2    3.37    0.59
   5   0  -2    4.67    0.51
   5   0  -2    4.38    0.47
  -5   0   2    4.80    0.62
  -5   0   2    4.75    0.56
  -5   0   2    5.78    0.52
   4   0  -2   12.18    0.70
   4   0  -2    9.79    0.76
   4   0  -2   10.64    0.71
   4   0  -2    9.81    0.96
   4   0  -2   10.74    0.81
  -4   0   2   10.26    0.68
  -4   0   2    9.81    0.99
  -4   0   2   12.10    0.92
  -4   0   2   12.10    0.71
   3   0  -2  185.24   14.85
   3   0  -2  203.19   12.27
   3   0  -2  232.10   12.27
   3   0  -2  203.70   12.06
   3   0  -2  208.75   12.80
  -3   0   2  241.16   12.27
  -3   0   2  214.51   11.88
  -3   0   2  215.84   14.85
  -3   0   2  214.68   12.26
  -3   0   2  207.99   12.78
  -3   0   2  227.91   15.46
  -3   0   2  186.09   15.94
   2   0  -2    0.75    0.12
   2   0  -2    1.04    0.19
   2   0  -2    0.75    0.12
   2   0  -2    0.84    0.14
   2   0  -2    0.89    0.14
   2   0  -2    0.95    0.19
   2   0  -2    0.96    0.15
  -2   0   2    0.87    0.17
  -2   0   2    0.83    0.13
  -2   0   2    0.93    0.12
  -2   0   2    0.86    0.13
  -2   0   2    0.81    0.12
   1   0  -2   16.55    1.40
   1   0  -2   14.76    1.33
   1   0  -2   19.28    1.08
   1   0  -2   18.74    1.08
  -1   0   2   16.09    1.39
  -1   0   2   18.40    1.19
  -1   0   2   19.56    1.08
  -1   0   2   18.22    1.08
  -1   0   2   17.42    1.02
  -1   0   2   14.95    1.32
  -2   0  -2  214.29   13.06
  -2   0  -2  208.80   12.21
  -2   0  -2  193.39   12.21
  -2   0  -2  209.02   12.73
  -2   0  -2  195.63   13.64
  -2   0  -2  222.21   11.83
   2   0   2  219.15   11.83
   2   0   2  219.55   12.21
   2   0   2  189.08   13.60
   2   0   2  209.23   12.21
   2   0   2  240.40   14.24
  -3   0  -2    8.40    0.62
  -3   0  -2    9.75    0.60
  -3   0  -2    7.54    0.60
  -3   0  -2    7.50    0.63
  -3   0  -2    7.59    0.66
   3   0   2    7.36    0.72
   3   0   2    9.44    0.69
   3   0   2    7.31    0.58
  -4   0  -2   55.23    3.17
  -4   0  -2   50.85    3.34
   4   0   2   49.26    2.91
   4   0   2   50.00    3.47
   4   0   2   43.43    3.37
  -5   0  -2   19.55    1.28
  -5   0  -2   19.57    1.39
   5   0   2   17.53    1.47
   5   0   2   18.24    1.41
  -6   0  -2   18.82    1.39
  -6   0  -2   15.58    1.53
  -6   0  -2   20.37    1.28
   6   0   2   17.25    1.50
  -7   0  -2   26.09    1.73
  -7   0  -2   23.03    2.10
  -7   0  -2   26.47    1.74
  -7   0  -2   23.06    1.96
  -7   0  -2   28.40    1.91
   7   0   2   25.78    2.01
  -8   0  -2    2.27    0.52
  -8   0  -2    1.93    0.43
  -8   0  -2    0.81    0.43
  -9   0  -2   16.21    1.49
  -9   0  -2   12.61    1.34
  -9   0  -2   14.89    1.18
   9  -1  -2    0.92    0.60
  -9   1   2    0.66    0.39
  -9   1   2    1.39    0.53
   8  -1  -2    6.40    0.76
   8  -1  -2    7.75    0.85
   8  -1  -2    8.07    1.03
  -8   1   2    8.95    0.81
  -8   1   2    7.80    0.96
  -8   1   2    7.97    0.87
   7  -1  -2   11.10    1.38
   7  -1  -2   16.02    1.15
   7  -1  -2   15.46    1.17
  -7   1   2   17.07    1.32
  -7   1   2   16.23    1.20
  -7   1   2   14.95    1.14
  -7   1   2   12.35    1.38
   6  -1  -2   44.66    3.59
   6  -1  -2   47.33    2.92
   6  -1  -2   50.12    3.07
  -6   1   2   44.26    3.76
  -6   1   2   49.01    3.33
  -6   1   2   49.06    3.02
  -6   1   2   49.36    3.61
   5  -1  -2   98.33    6.12
   5  -1  -2  105.48    6.46
   5  -1  -2  103.28    7.52
   5  -1  -2  105.84    6.12
   5  -1  -2  108.67    6.00
  -5   1   2   91.59    6.11
  -5   1   2  100.58    8.01
  -5   1   2  112.49    6.12
  -5   1   2  116.95    7.76
  -5   1   2  110.33    7.14
   4  -1  -2    8.53    0.70
   4  -1  -2   10.24    0.61
   4  -1  -2    8.59    0.83
   4  -1  -2    9.88    0.65
   4  -1  -2    7.95    0.60
   4  -1  -2    9.61    0.70
  -4   1   2    8.59    0.82
  -4   1   2    7.65    0.59
  -4   1   2   10.30    0.60
  -4   1   2   10.37    0.77
  -4   1   2    9.88    0.71
   3  -1  -2    0.82    0.21
   3  -1  -2    0.79    0.17
   3  -1  -2    1.05    0.19
   3  -1  -2    1.01    0.24
   3  -1  -2    0.97    0.15
   3  -1  -2    1.09    0.15
  -3   1   2    1.26    0.15
  -3   1   2    1.21    0.23
  -3   1   2    0.92    0.17
  -3   1   2    1.07    0.17
  -3   1   2    0.77    0.13
  -3   1   2    0.84    0.19
   2  -1  -2    5.06    0.43
   2  -1  -2    4.47    0.33
   2  -1  -2    4.45    0.33
   2  -1  -2    4.87    0.42
   2  -1  -2    4.06    0.34
   2  -1  -2    5.08    0.38
   2  -1  -2    4.21    0.34
  -2   1   2    4.59    0.33
  -2   1   2    4.44    0.36
  -2   1   2    5.12    0.34
  -2   1   2    4.17    0.39
  -2   1   2    4.63    0.32
  -2   1   2    4.21    0.33
   1  -1  -2  239.94   13.10
   1  -1  -2  213.41   13.57
   1  -1  -2  252.41   13.59
   1  -1  -2  220.96   17.57
   1  -1  -2  233.69   13.89
  -1   1   2  245.29   13.58
  -1   1   2  234.68   13.89
  -1   1   2  236.20   13.58
   0  -1  -2  363.73   24.73
   0   1   2  370.69   24.73
  -1  -1  -2  435.62   27.68
  -1  -1  -2  410.42   28.68
  -1  -1  -2  441.20   23.77
   1   1   2  360.13   23.76
   1   1   2  382.88   27.68
   1   1   2  434.54   23.77
  -2  -1  -2    1.74    0.29
  -2  -1  -2    1.58    0.20
  -2  -1  -2    1.86    0.21
  -2  -1  -2    1.71    0.18
  -2  -1  -2    2.76    0.25
  -2  -1  -2    1.78    0.19
  -2  -1  -2    1.97    0.25
   2   1   2    1.29    0.21
   2   1   2    1.81    0.27
   2   1   2    1.83    0.22
   2   1   2    1.68    0.19
   2   1   2    1.55    0.30
   2   1   2    1.52    0.17
  -3  -1  -2  163.59   10.66
  -3  -1  -2  160.00    9.54
  -3  -1  -2  183.04   11.16
  -3  -1  -2  186.90    9.57
   3   1   2  159.78    9.54
   3   1   2  157.85    9.98
   3   1   2  162.04   11.18
   3   1   2  147.79    9.55
   3   1   2  162.04   10.69
  -4  -1  -2  189.33   10.81
  -4  -1  -2  194.58   12.64
  -4  -1  -2  181.63   10.82
  -4  -1  -2  179.45   13.71
  -4  -1  -2  180.85   10.69
  -4  -1  -2  199.16   12.10
   4   1   2  185.29   12.13
   4   1   2  188.80   12.68
   4   1   2  180.23   11.33
  -5  -1  -2    3.53    0.40
  -5  -1  -2    3.52    0.52
   5   1   2    4.31    0.60
   5   1   2    2.46    0.40
  -6  -1  -2   27.92    1.99
  -6  -1  -2   35.46    2.13
  -6  -1  -2   26.20    2.44
   6   1   2   32.66    2.06
   6   1   2   30.38    2.28
  -7  -1  -2    5.16    0.73
   7   1   2    5.55    0.83
  -8  -1  -2   17.23    1.63
  -9  -1  -2    2.69    0.66
  -9  -1  -2    2.03    0.59
  -9  -1  -2    2.20    0.51
 -10   2   2   -0.29    0.53
   9  -2  -2   25.77    1.92
  -9   2   2   29.47    2.04
  -9   2   2   26.18    1.91
   8  -2  -2    2.18    0.48
   8  -2  -2    2.02    0.59
  -8   2   2    1.64    0.55
  -8   2   2    1.62    0.43
   7  -2  -2   22.20    1.48
   7  -2  -2   21.46    1.55
   7  -2  -2   22.84    1.88
  -7   2   2   20.06    1.87
  -7   2   2   23.81    1.67
  -7   2   2   22.79    1.56
  -7   2   2   23.14    1.81
   6  -2  -2   63.98    4.82
   6  -2  -2   61.48    3.82
   6  -2  -2   63.54    3.95
  -6   2   2   58.87    5.05
  -6   2   2   70.98    4.90
  -6   2   2   70.98    4.52
  -6   2   2   69.28    4.07
   5  -2  -2   45.06    3.26
   5  -2  -2   41.47    2.62
   5  -2  -2   43.44    2.69
   5  -2  -2   45.61    2.60
   5  -2  -2   44.92    2.79
  -5   2   2   45.99    3.03
  -5   2   2   47.36    3.29
  -5   2   2   43.35    2.75
  -5   2   2   45.84    2.60
  -5   2   2   42.07    2.61
  -5   2   2   38.85    3.39
   4  -2  -2   11.46    0.83
   4  -2  -2   12.79    0.96
   4  -2  -2   10.53    0.74
   4  -2  -2   11.54    0.76
   4  -2  -2   11.49    0.81
   4  -2  -2   11.66    0.73
  -4   2   2   11.92    0.73
  -4   2   2   10.14    0.91
  -4   2   2    9.71    0.73
  -4   2   2   11.40    0.80
   1  -2  -2   12.50    0.81
   1  -2  -2   13.77    0.83
   1  -2  -2   12.41    0.93
   1  -2  -2   11.49    0.80
  -1   2   2   11.54    0.92
  -1   2   2   12.53    0.81
  -1   2   2   12.68    0.82
  -1   2   2   12.72    0.81
   0  -2  -2   19.06    1.23
   0  -2  -2   19.06    1.44
   0  -2  -2   21.49    1.53
   0  -2  -2   20.18    1.25
   0   2   2   20.69    1.24
   0   2   2   19.71    1.29
   0   2   2   18.27    1.43
   0   2   2   20.07    1.24
  -1  -2  -2  382.39   22.85
  -1  -2  -2  320.96   18.96
  -1  -2  -2  308.95   18.94
  -1  -2  -2  343.36   22.08
  -1  -2  -2  344.48   19.69
   1   2   2  294.87   18.94
   1   2   2  310.35   21.09
   1   2   2  341.08   22.08
   1   2   2  327.78   19.69
   1   2   2  297.90   18.95
  -2  -2  -2  417.58   26.61
  -2  -2  -2  514.83   26.60
  -2  -2  -2  472.05   30.99
  -2  -2  -2  495.00   27.68
  -2  -2  -2  500.50   33.53
   2   2   2  409.49   31.00
   2   2   2  425.83   27.68
   2   2   2  444.23   26.59
   2   2   2  428.41   26.61
   2   2   2  490.72   29.56
  -3  -2  -2   11.95    0.66
  -3  -2  -2    9.44    0.90
  -3  -2  -2    9.45    0.68
   3   2   2    9.33    0.65
   3   2   2    9.22    0.86
   3   2   2    9.56    0.71
   3   2   2    8.30    0.84
   3   2   2   10.32    0.84
   3   2   2    8.28    0.67
  -4  -2  -2  163.96    9.40
  -4  -2  -2  162.99   12.08
  -4  -2  -2  175.76    9.52
  -4  -2  -2  172.23    9.55
   4   2   2  167.13   10.69
   4   2   2  143.67    9.51
   4   2   2  153.99   11.59
   4   2   2  169.06    9.55
   4   2   2  166.03   11.18
   4   2   2  164.11    9.97
  -5  -2  -2   35.30    3.07
   5   2   2   43.07    2.57
   5   2   2   40.39    2.79
  -6  -2  -2   13.93    1.37
   6   2   2   15.32    1.36
   6   2   2   15.90    1.17
  -7  -2  -2   11.82    1.26
   7   2   2   11.98    1.25
   7   2   2   13.95    1.08
  -8  -2  -2   -0.06    0.46
 -10   3   2    0.71    0.59
   9  -3  -2    1.00    0.48
  -9   3   2    0.84    0.45
  -9   3   2    1.04    0.55
   8  -3  -2   30.82    2.09
   8  -3  -2   28.69    1.96
  -8   3   2   30.27    2.17
  -8   3   2   31.60    2.07
   7  -3  -2    0.06    0.33
   7  -3  -2   -0.07    0.39
   7  -3  -2    0.21    0.30
  -7   3   2    0.20    0.38
  -7   3   2    0.12    0.27
   6  -3  -2   18.97    1.47
   6  -3  -2   15.67    1.24
   6  -3  -2   17.50    1.13
   6  -3  -2   18.00    1.17
  -6   3   2   17.36    1.21
  -6   3   2   16.17    1.29
  -6   3   2   15.59    1.11
   5  -3  -2    4.58    0.42
   5  -3  -2    4.24    0.52
   5  -3  -2    3.75    0.44
   5  -3  -2    4.02    0.37
   5  -3  -2    4.14    0.54
  -5   3   2    4.01    0.38
  -5   3   2    4.53    0.46
  -5   3   2    3.56    0.39
   4  -3  -2   45.69    2.64
   4  -3  -2   41.71    2.71
   4  -3  -2   48.99    3.10
   4  -3  -2   45.26    2.69
   4  -3  -2   48.52    3.28
   4  -3  -2   41.66    2.72
  -4   3   2   43.16    3.25
  -4   3   2   42.43    2.70
  -4   3   2   46.06    2.70
  -4   3   2   46.04    2.79
   3  -3  -2   29.82    1.94
   3  -3  -2   33.31    2.31
   3  -3  -2   33.86    1.97
   3  -3  -2   30.61    1.93
   3  -3  -2   33.41    1.88
  -3   3   2   32.06    1.98
  -3   3   2   32.75    1.94
  -3   3   2   34.83    2.30
  -3   3   2   29.22    1.98
  -3   3   2   29.28    1.93
  -3   3   2   30.71    2.20
   2  -3  -2  333.76   22.90
   2  -3  -2  331.12   19.70
   2  -3  -2  342.57   20.16
   2  -3  -2  362.41   19.72
   2  -3  -2  365.78   19.33
  -2   3   2  327.10   20.45
  -2   3   2  340.81   19.70
  -2   3   2  355.32   19.71
  -2   3   2  355.45   20.15
  -2   3   2  323.12   21.05
  -2   3   2  303.12   22.89
   1  -3  -2  152.22   10.96
   1  -3  -2  171.51    9.46
   1  -3  -2  157.73    9.44
   1  -3  -2  167.07    9.64
  -1   3   2  153.94   10.96
  -1   3   2  165.97    9.44
  -1   3   2  155.14   10.06
  -1   3   2  156.97   11.82
  -1   3   2  178.10    9.45
   0  -3  -2   12.19    0.81
   0  -3  -2   12.55    0.95
   0  -3  -2   11.85    0.79
   0  -3  -2   11.17    0.90
   0   3   2   11.76    0.79
   0   3   2   11.24    0.78
   0   3   2   10.36    0.78
   0   3   2   10.78    0.90
   0   3   2   10.19    0.92
  -1  -3  -2  398.05   22.20
  -1  -3  -2  452.28   27.96
  -1  -3  -2  375.41   22.21
   1   3   2  350.11   23.05
   1   3   2  382.29   24.69
   1   3   2  331.71   22.19
   1   3   2  405.42   25.87
   1   3   2  370.38   22.21
  -2  -3  -2    2.79    0.42
  -2  -3  -2    3.19    0.40
  -2  -3  -2    3.69    0.37
  -2  -3  -2    2.86    0.32
   2   3   2    3.33    0.45
   2   3   2    3.21    0.35
   2   3   2    2.64    0.32
   2   3   2    2.58    0.40
   2   3   2    3.49    0.32
   2   3   2    2.44    0.39
  -3  -3  -2  136.99    7.76
  -3  -3  -2  125.48    9.76
  -3  -3  -2  142.80    7.72
   3   3   2  137.20    8.62
   3   3   2  134.02    9.06
   3   3   2  139.04    7.75
   3   3   2  118.78    7.71
   3   3   2  129.94    8.04
   3   3   2  124.94    9.34
  -4  -3  -2   20.53    1.32
  -4  -3  -2   19.80    1.69
  -4  -3  -2   21.45    1.28
  -4  -3  -2   17.64    1.30
   4   3   2   20.76    1.55
   4   3   2   21.71    1.39
   4   3   2   18.31    1.63
   4   3   2   19.31    1.28
   4   3   2   20.61    1.32
  -5  -3  -2    9.66    1.01
  -5  -3  -2   10.24    0.75
   5   3   2   10.34    1.04
   5   3   2   10.33    1.01
   5   3   2    9.43    0.83
   5   3   2    8.64    0.75
  -6  -3  -2    9.68    1.07
   6   3   2    9.35    1.06
   6   3   2   10.51    0.89
  -7  -3  -2    0.88    0.47
   7   3   2    0.60    0.52
   7   3   2    1.14    0.47
  -8  -3  -2    4.72    0.85
   8   3   2    7.29    0.85
  10  -4  -2   -0.35    0.48
   9  -4  -2    4.77    0.67
   9  -4  -2    4.89    0.76
  -9   4   2    5.78    0.84
  -9   4   2    5.04    0.67
   8  -4  -2    6.56    0.73
   8  -4  -2    6.16    0.80
  -8   4   2    6.27    0.82
  -8   4   2    6.33    0.71
   7  -4  -2   47.48    3.24
   7  -4  -2   51.17    3.11
  -7   4   2   53.76    3.28
  -7   4   2   53.17    3.44
   6  -4  -2   26.90    1.65
   6  -4  -2   25.20    1.72
   6  -4  -2   25.99    1.63
  -6   4   2   23.37    1.62
  -6   4   2   24.00    1.78
  -6   4   2   25.32    1.68
   5  -4  -2    9.64    0.90
   5  -4  -2   12.43    0.85
   5  -4  -2   10.68    0.84
  -5   4   2   10.08    0.82
  -5   4   2   12.33    0.86
  -5   4   2   11.84    0.93
   4  -4  -2  149.20    8.34
   4  -4  -2  147.68    8.64
   4  -4  -2  166.68    9.96
   4  -4  -2  136.74    8.51
  -4   4   2  141.10    8.62
  -4   4   2  143.08    9.23
  -4   4   2  143.73   10.35
  -4   4   2  148.33    8.82
   3  -4  -2   73.52    4.34
   3  -4  -2   77.22    4.17
   3  -4  -2   72.22    4.28
   3  -4  -2   70.02    4.97
  -3   4   2   69.99    4.44
  -3   4   2   73.79    4.33
  -3   4   2   73.59    4.98
  -3   4   2   75.22    4.42
  -3   4   2   69.61    4.62
   2  -4  -2  411.59   21.54
   2  -4  -2  357.96   25.52
   2  -4  -2  405.28   21.98
   2  -4  -2  355.76   27.58
  -2   4   2  354.67   25.52
  -2   4   2  390.69   21.97
  -2   4   2  367.93   23.46
  -2   4   2  386.14   27.57
   1  -4  -2    2.01    0.28
   1  -4  -2    2.04    0.32
   1  -4  -2    1.43    0.28
  -1   4   2    2.00    0.29
  -1   4   2    2.01    0.28
  -1   4   2    2.21    0.32
  -1   4   2    1.96    0.28
   0  -4  -2  116.32    6.77
   0  -4  -2  123.46    8.45
   0   4   2  111.53    7.15
   0   4   2  121.20    6.76
   0   4   2  112.97    7.85
   0   4   2  102.98    8.43
  -1  -4  -2   99.46    5.91
  -1  -4  -2   97.27    7.37
   1   4   2  102.48    7.03
   1   4   2  104.86    5.90
   1   4   2   90.16    6.05
   1   4   2  105.21    6.88
  -2  -4  -2   14.59    1.10
  -2  -4  -2   17.52    1.25
  -2  -4  -2   14.37    1.33
   2   4   2   15.26    1.25
   2   4   2   15.34    1.05
   2   4   2   17.53    1.30
   2   4   2   17.60    1.12
   2   4   2   14.36    1.18
  -3  -4  -2   34.72    2.16
  -3  -4  -2   31.29    2.68
   3   4   2   35.05    2.39
   3   4   2   34.50    2.19
   3   4   2   34.55    2.15
   3   4   2   34.98    2.58
  -4  -4  -2  134.07   11.21
  -4  -4  -2  154.78    8.91
   4   4   2  152.97   10.77
   4   4   2  149.39    9.25
   4   4   2  159.09    8.91
   4   4   2  158.75    9.91
  -5  -4  -2   44.49    2.70
  -5  -4  -2   37.52    3.41
   5   4   2   44.06    3.33
   5   4   2   45.12    2.83
   5   4   2   44.63    3.07
   5   4   2   45.28    2.70
  -6  -4  -2    1.13    0.48
   6   4   2    1.51    0.53
   6   4   2    0.58    0.41
  -7  -4  -2   15.66    1.62
   7   4   2   17.06    1.57
   7   4   2   18.99    1.41
   9  -5  -2    0.10    0.46
   9  -5  -2    0.27    0.42
  -9   5   2    0.25    0.39
  -9   5   2   -0.08    0.47
   8  -5  -2   18.16    1.55
   8  -5  -2   19.43    1.45
  -8   5   2   19.96    1.59
  -8   5   2   22.42    1.51
   7  -5  -2   -0.16    0.39
   7  -5  -2    0.29    0.36
  -7   5   2    0.31    0.40
  -7   5   2    0.24    0.31
   6  -5  -2   27.53    1.76
   6  -5  -2   26.74    1.86
   6  -5  -2   27.02    1.80
  -6   5   2   26.44    1.77
  -6   5   2   27.14    1.93
  -6   5   2   28.30    1.83
   5  -5  -2    6.83    0.70
   5  -5  -2    6.34    0.61
   5  -5  -2    7.15    0.65
  -5   5   2    5.37    0.59
  -5   5   2    6.30    0.60
  -5   5   2    5.95    0.67
   4  -5  -2   15.53    1.20
   4  -5  -2   17.63    1.16
   4  -5  -2   16.89    1.24
  -4   5   2   19.18    1.34
  -4   5   2   18.34    1.23
  -4   5   2   16.64    1.19
  -4   5   2   17.01    1.28
   3  -5  -2   16.87    1.12
   3  -5  -2   14.98    1.19
   3  -5  -2   16.96    1.11
  -3   5   2   14.75    1.08
  -3   5   2   15.03    1.14
   2  -5  -2   45.83    2.66
   2  -5  -2   44.68    3.33
   2  -5  -2   47.63    3.40
   2  -5  -2   48.19    2.74
  -2   5   2   42.36    2.85
  -2   5   2   38.52    3.09
  -2   5   2   43.63    2.71
  -2   5   2   42.18    3.30
   1  -5  -2  250.21   14.39
   1  -5  -2  243.12   14.06
   1  -5  -2  264.55   18.04
  -1   5   2  241.17   15.31
  -1   5   2  246.96   14.38
  -1   5   2  232.40   16.70
   0  -5  -2    0.65    0.26
   0  -5  -2    0.83    0.22
   0  -5  -2    1.26    0.32
   0  -5  -2    0.85    0.24
   0   5   2    0.70    0.25
   0   5   2    1.48    0.29
   0   5   2    0.91    0.30
  -1  -5  -2   54.06    3.36
  -1  -5  -2   53.87    4.14
  -1  -5  -2   53.20    3.46
   1   5   2   51.43    3.36
   1   5   2   56.83    3.88
   1   5   2   56.78    3.51
   1   5   2   56.21    3.35
   1   5   2   55.72    3.90
  -2  -5  -2    0.07    0.28
  -2  -5  -2    0.02    0.25
   2   5   2    0.36    0.18
   2   5   2    0.14    0.29
   2   5   2    0.64    0.28
   2   5   2   -0.17    0.25
  -3  -5  -2   55.03    3.53
  -3  -5  -2   51.37    4.38
   3   5   2   59.39    3.88
   3   5   2   56.95    3.60
   3   5   2   62.60    4.21
   3   5   2   59.38    3.54
  -4  -5  -2   27.60    2.75
  -4  -5  -2   35.25    2.24
   4   5   2   34.23    2.27
   4   5   2   41.24    2.72
   4   5   2   35.41    2.47
   4   5   2   35.44    2.24
  -5  -5  -2    3.81    0.68
   5   5   2    4.39    0.69
   5   5   2    5.62    0.63
  -6  -5  -2    6.06    0.88
   6   5   2    6.56    0.76
   6   5   2    5.69    0.84
   7   5   2    3.23    0.71
   7   5   2    3.42    0.63
   9  -6  -2    0.53    0.46
   9  -6  -2    0.75    0.55
   8  -6  -2    1.32    0.48
   8  -6  -2    1.56    0.58
  -8   6   2    1.77    0.54
  -8   6   2    1.38    0.43
   7  -6  -2    8.01    0.94
   7  -6  -2    7.52    0.82
  -7   6   2    8.50    0.82
  -7   6   2    8.87    0.80
  -7   6   2    8.25    0.89
   6  -6  -2   44.20    2.83
   6  -6  -2   47.36    2.90
   6  -6  -2   43.94    2.74
  -6   6   2   43.53    3.00
  -6   6   2   48.35    2.88
  -6   6   2   41.90    2.80
   5  -6  -2   53.74    3.40
   5  -6  -2   54.96    3.26
   5  -6  -2   51.52    3.38
  -5   6   2   53.81    3.60
  -5   6   2   56.45    3.39
  -5   6   2   57.84    3.46
   4  -6  -2   55.74    3.38
   4  -6  -2   54.44    3.34
   4  -6  -2   54.28    3.22
  -4   6   2   55.70    3.36
  -4   6   2   52.49    3.56
   3  -6  -2    2.07    0.35
   3  -6  -2    2.43    0.42
   3  -6  -2    2.34    0.41
  -3   6   2    2.37    0.41
  -3   6   2    2.02    0.32
  -3   6   2    2.27    0.40
   2  -6  -2   91.74    5.74
   2  -6  -2  107.58    7.32
   2  -6  -2   97.84    7.12
   2  -6  -2   90.66    5.59
  -2   6   2   94.27    6.07
  -2   6   2   91.45    5.73
   1  -6  -2    0.06    0.26
   1  -6  -2   -0.07    0.26
   1  -6  -2    0.22    0.29
   1  -6  -2    0.30    0.23
  -1   6   2   -0.27    0.24
  -1   6   2    0.07    0.27
   0  -6  -2   46.10    2.79
   0  -6  -2   46.27    3.60
   0  -6  -2   47.83    2.97
   0   6   2   46.97    3.06
   0   6   2   48.77    2.96
  -1  -6  -2    4.83    0.66
  -1  -6  -2    6.08    0.54
  -1  -6  -2    5.17    0.48
  -1  -6  -2    4.78    0.62
   1   6   2    5.04    0.49
   1   6   2    5.51    0.63
   1   6   2    6.52    0.64
  -2  -6  -2   71.46    4.59
  -2  -6  -2   79.59    4.36
  -2  -6  -2   66.80    5.67
   2   6   2   77.22    4.99
   2   6   2   81.71    5.40
   2   6   2   74.58    4.65
   2   6   2   74.02    4.58
  -3  -6  -2   17.91    1.77
  -3  -6  -2   19.95    1.48
   3   6   2   22.63    1.70
   3   6   2   21.38    1.59
   3   6   2   21.11    1.49
   3   6   2   20.97    1.44
  -4  -6  -2    3.85    0.57
  -4  -6  -2    3.38    0.64
   4   6   2    4.94    0.56
   4   6   2    3.95    0.58
   4   6   2    3.46    0.60
  -5  -6  -2   13.66    1.50
   5   6   2   16.27    1.39
   5   6   2   16.92    1.26
  -6  -6  -2    1.14    0.59
   6   6   2    2.03    0.50
   8  -7  -2    8.75    1.12
   8  -7  -2   10.73    1.04
  -8   7   2   11.40    1.06
  -8   7   2    9.25    0.97
   7  -7  -2   16.18    1.41
   7  -7  -2   16.29    1.26
  -7   7   2   16.88    1.37
  -7   7   2   16.40    1.29
  -7   7   2   15.68    1.28
   6  -7  -2   49.96    3.20
   6  -7  -2   48.85    3.07
   6  -7  -2   51.22    3.23
  -6   7   2   49.00    3.37
  -6   7   2   52.75    3.18
   5  -7  -2   13.73    1.14
   5  -7  -2   15.04    1.19
   5  -7  -2   14.13    1.08
  -5   7   2   13.57    1.16
  -5   7   2   14.23    1.12
   4  -7  -2   59.34    3.56
   4  -7  -2   57.60    3.74
   4  -7  -2   61.69    4.52
   4  -7  -2   62.00    3.70
  -4   7   2   58.81    3.72
  -4   7   2   61.80    3.95
   3  -7  -2   34.85    2.88
   3  -7  -2   36.20    2.36
   3  -7  -2   37.05    2.44
  -3   7   2   41.17    2.44
  -3   7   2   39.01    2.53
   2  -7  -2   13.00    1.17
   2  -7  -2   13.40    1.05
   2  -7  -2   13.21    1.16
   2  -7  -2   12.22    0.96
  -2   7   2   11.16    0.99
  -2   7   2   11.39    1.00
   1  -7  -2   69.02    4.96
   1  -7  -2   59.95    3.75
   1  -7  -2   62.04    3.94
   1  -7  -2   61.28    4.80
  -1   7   2   67.74    3.93
  -1   7   2   60.97    4.08
   0  -7  -2   -0.34    0.31
   0  -7  -2    0.13    0.30
   0  -7  -2    0.20    0.25
   0  -7  -2   -0.38    0.31
   0   7   2    0.21    0.20
   0   7   2    0.38    0.35
   0   7   2   -0.14    0.29
  -1  -7  -2   64.87    4.12
  -1  -7  -2   69.15    5.27
  -1  -7  -2   68.65    3.90
  -1  -7  -2   61.99    5.06
   1   7   2   61.95    4.11
   1   7   2   67.29    4.42
   1   7   2   64.33    4.10
   1   7   2   74.38    4.34
  -2  -7  -2   29.94    2.06
  -2  -7  -2   27.88    2.45
   2   7   2   31.08    1.97
   2   7   2   30.71    2.13
   2   7   2   29.89    2.04
  -3  -7  -2    7.82    0.84
  -3  -7  -2    5.76    0.85
   3   7   2    7.05    0.79
   3   7   2    7.31    0.69
   3   7   2    7.00    0.77
  -4  -7  -2    7.84    0.84
  -4  -7  -2    4.99    0.86
   4   7   2    8.40    0.77
   4   7   2    8.37    0.85
  -5  -7  -2    1.65    0.61
  -5  -7  -2    1.59    0.71
   5   7   2    2.31    0.50
   8  -8  -2    0.00    0.44
   7  -8  -2   48.21    3.12
   7  -8  -2   45.84    2.94
  -7   8   2   44.68    3.21
  -7   8   2   48.26    3.03
   6  -8  -2    0.66    0.39
   6  -8  -2    0.87    0.48
   6  -8  -2    0.54    0.43
  -6   8   2    0.91    0.43
  -6   8   2    0.46    0.45
   5  -8  -2   11.78    1.04
   5  -8  -2   11.17    0.95
   5  -8  -2   10.86    1.02
  -5   8   2    9.92    1.00
  -5   8   2   10.23    0.97
   4  -8  -2   26.79    1.90
   4  -8  -2   26.80    1.93
  -4   8   2   30.48    1.93
  -4   8   2   27.51    1.98
   3  -8  -2    9.27    0.92
   3  -8  -2    8.40    0.85
   3  -8  -2    9.67    0.90
  -3   8   2    8.51    0.87
  -3   8   2    8.92    0.90
   2  -8  -2   14.77    1.35
   2  -8  -2   13.66    1.19
   2  -8  -2   13.83    1.10
   2  -8  -2   17.71    1.40
  -2   8   2   14.50    1.18
  -2   8   2   14.08    1.17
   1  -8  -2    0.20    0.39
   1  -8  -2    0.54    0.39
   1  -8  -2    0.49    0.34
   1  -8  -2    0.73    0.39
  -1   8   2    0.44    0.41
  -1   8   2    0.25    0.36
   0  -8  -2   86.34    6.70
   0  -8  -2   94.49    6.95
   0  -8  -2   91.33    5.22
   0  -8  -2   85.60    5.45
   0   8   2   84.75    5.45
   0   8   2   89.14    5.44
   0   8   2   91.27    5.73
  -1  -8  -2    4.26    0.67
  -1  -8  -2    3.33    0.66
  -1  -8  -2    4.54    0.82
   1   8   2    4.72    0.67
   1   8   2    4.61    0.48
  -2  -8  -2   28.31    2.47
  -2  -8  -2   23.28    2.28
  -2  -8  -2   27.02    1.95
   2   8   2   29.06    1.84
   2   8   2   28.65    1.95
  -3  -8  -2    4.40    0.78
  -3  -8  -2    4.68    0.90
  -3  -8  -2    6.79    0.82
   3   8   2    6.13    0.80
  -4  -8  -2    1.16    0.51
  -4  -8  -2    1.31    0.65
  -4  -8  -2    1.49    0.52
   4   8   2    1.58    0.54
   7  -9  -2    1.16    0.51
  -7   9   2    1.04    0.50
   6  -9  -2    1.64    0.58
   6  -9  -2    2.01    0.51
   6  -9  -2    1.07    0.51
  -6   9   2    1.57    0.53
  -6   9   2    1.63    0.52
   5  -9  -2   16.27    1.24
   5  -9  -2   14.32    1.30
   5  -9  -2   16.18    1.35
  -5   9   2   16.25    1.31
  -5   9   2   15.06    1.32
   4  -9  -2   18.04    1.47
   4  -9  -2   16.87    1.40
  -4   9   2   19.34    1.47
  -4   9   2   18.20    1.44
   3  -9  -2    6.94    0.79
   3  -9  -2    7.85    0.88
   3  -9  -2    6.18    0.83
  -3   9   2    7.20    0.85
  -3   9   2    8.21    0.86
   2  -9  -2    0.43    0.39
   2  -9  -2    0.25    0.38
   2  -9  -2   -0.24    0.39
  -2   9   2    0.28    0.42
  -2   9   2    0.56    0.42
   1  -9  -2   84.44    6.09
   1  -9  -2   75.10    5.88
   1  -9  -2   74.82    4.61
   1  -9  -2   74.98    4.84
  -1   9   2   78.70    4.82
  -1   9   2   75.94    5.04
   0  -9  -2    0.17    0.46
   0  -9  -2    0.70    0.43
   0  -9  -2    0.01    0.43
   0   9   2    0.68    0.44
  -1  -9  -2   12.59    1.36
  -1  -9  -2   13.56    1.47
  -1  -9  -2   13.83    1.24
   1   9   2   13.11    1.21
  -2  -9  -2    4.60    0.92
  -2  -9  -2    5.57    0.82
  -2  -9  -2    4.57    0.81
   2   9   2    6.66    0.85
  -3  -9  -2    3.98    0.72
  -3  -9  -2    3.65    0.75
  -3  -9  -2    3.05    0.83
   3   9   2    4.72    0.75
   6 -10  -2   11.45    1.22
   6 -10  -2   12.45    1.14
  -6  10   2   12.27    1.22
   5 -10  -2    9.20    1.12
   5 -10  -2   12.91    1.15
   5 -10  -2   13.21    1.28
  -5  10   2   11.26    1.19
  -5  10   2   13.31    1.18
   4 -10  -2   17.42    1.38
   4 -10  -2   14.80    1.39
  -4  10   2   17.07    1.41
  -4  10   2   15.26    1.38
   3 -10  -2    4.24    0.78
   3 -10  -2    4.89    0.72
  -3  10   2    6.02    0.83
  -3  10   2    7.56    0.86
   2 -10  -2   12.88    1.28
   2 -10  -2   10.80    1.23
   2 -10  -2   11.28    1.09
  -2  10   2   15.72    1.27
  -2  10   2   13.41    1.21
   1 -10  -2    0.45    0.44
   1 -10  -2    0.23    0.48
  -1  10   2    1.16    0.48
   0 -10  -2   17.22    1.69
   0 -10  -2   18.51    1.56
   0  10   2   18.40    1.51
  -1 -10  -2   -0.06    0.49
  -1 -10  -2    0.37    0.54
  -1 -10  -2   -0.07    0.46
   1  10   2   -0.20    0.48
  -2 -10  -2    6.30    0.91
  -2 -10  -2    4.84    0.98
   2  10   2    4.76    0.80
   4 -11  -2    6.36    0.88
  -4  11   2    7.19    1.01
  -4  11   2    6.60    0.92
   3 -11  -2   16.14    1.39
  -3  11   2   17.88    1.54
   1 -11  -2    1.20    0.55
   0 -11  -2    1.24    0.57
  -1 -11   3   -0.01    0.53
   0  11  -3   19.54    1.79
   0 -11   3   18.63    1.89
   0 -11   3   22.82    2.02
  -1  11  -3    3.04    0.81
   1 -11   3    2.20    0.61
  -2  11  -3   20.48    1.81
  -2  11  -3   17.51    1.55
   2 -11   3   18.30    1.76
   2 -11   3   19.85    1.62
  -3  11  -3   13.36    1.39
  -3  11  -3   11.79    1.25
  -3  11  -3   13.37    1.46
   3 -11   3   14.26    1.27
   3 -11   3   11.14    1.35
  -4  11  -3    2.51    0.62
  -4  11  -3    2.60    0.75
   4 -11   3    2.80    0.64
   4 -11   3    2.91    0.66
   5 -11   3    1.48    0.63
   3  10  -3    3.27    0.59
   3  10  -3    4.42    0.76
  -3 -10   3    2.98    0.70
   2  10  -3    1.13    0.57
   2  10  -3    2.57    0.53
  -2 -10   3    1.83    0.70
  -2 -10   3    0.79    0.55
  -2 -10   3    2.16    0.62
   1  10  -3   18.76    1.63
   1  10  -3   20.96    1.78
  -1 -10   3   19.83    1.93
  -1 -10   3   22.46    2.09
  -1 -10   3   24.35    1.75
   0  10  -3    5.80    0.84
   0  10  -3    5.34    0.91
   0 -10   3    6.99    0.90
   0 -10   3    7.14    0.99
   0 -10   3    5.54    0.90
  -1  10  -3   32.42    2.61
  -1  10  -3   36.87    2.48
   1 -10   3   39.71    3.03
   1 -10   3   33.90    2.47
   1 -10   3   33.42    2.88
  -2  10  -3    0.66    0.58
  -2  10  -3    1.78    0.69
  -2  10  -3    1.29    0.52
   2 -10   3    1.96    0.54
   2 -10   3    1.19    0.50
  -3  10  -3    2.13    0.58
  -3  10  -3    2.69    0.76
  -3  10  -3    2.84    0.70
   3 -10   3    3.83    0.65
   3 -10   3    3.03    0.63
   3 -10   3    3.88    0.67
  -4  10  -3   -0.62    0.52
  -4  10  -3   -0.17    0.44
  -4  10  -3    0.09    0.58
   4 -10   3    0.00    0.44
   4 -10   3   -0.21    0.45
  -5  10  -3   18.57    1.78
  -5  10  -3   22.39    1.84
  -5  10  -3   23.54    1.65
   5 -10   3   16.33    1.50
   5 -10   3   23.15    1.68
   5 -10   3   22.77    1.67
  -6  10  -3   10.15    1.08
   6 -10   3    9.70    1.10
   6 -10   3   10.37    1.11
   4   9  -3    0.35    0.52
   4   9  -3    2.16    0.52
  -4  -9   3    1.80    0.55
   3   9  -3    5.90    0.73
   3   9  -3    7.53    0.89
  -3  -9   3    7.22    0.88
  -3  -9   3    3.92    0.90
  -3  -9   3    5.09    1.00
   2   9  -3    2.41    0.70
   2   9  -3    2.37    0.57
   2   9  -3    1.81    0.50
  -2  -9   3    2.50    0.69
  -2  -9   3    1.98    0.57
  -2  -9   3    2.79    0.63
   1   9  -3   15.35    1.26
   1   9  -3   16.41    1.38
  -1  -9   3   12.24    1.42
  -1  -9   3   14.07    1.27
  -1  -9   3   14.67    1.54
   0   9  -3   20.40    1.50
   0   9  -3   18.19    1.56
   0  -9   3   16.86    1.65
   0  -9   3   16.15    1.46
   0  -9   3   20.35    1.78
  -1   9  -3    0.31    0.53
  -1   9  -3    0.73    0.44
  -1   9  -3    0.08    0.47
   1  -9   3    0.50    0.39
   1  -9   3    0.47    0.44
   1  -9   3   -0.02    0.41
  -2   9  -3   44.08    3.13
  -2   9  -3   42.29    2.87
  -2   9  -3   42.19    3.08
   2  -9   3   51.88    3.60
   2  -9   3   41.48    2.88
   2  -9   3   42.86    2.76
   2  -9   3   40.31    3.45
  -3   9  -3    1.01    0.47
  -3   9  -3    1.21    0.59
  -3   9  -3    0.62    0.57
   3  -9   3   -0.15    0.43
   3  -9   3   -0.08    0.37
   3  -9   3    0.86    0.41
   3  -9   3    0.97    0.46
  -4   9  -3   -0.04    0.54
  -4   9  -3    1.27    0.47
  -4   9  -3    1.19    0.61
   4  -9   3    1.04    0.45
   4  -9   3    0.10    0.47
  -5   9  -3    0.96    0.44
  -5   9  -3    2.38    0.66
  -5   9  -3    1.06    0.60
   5  -9   3    0.45    0.43
   5  -9   3    1.05    0.46
   5  -9   3    0.19    0.47
  -6   9  -3   10.25    1.20
  -6   9  -3   10.55    1.17
  -6   9  -3   10.84    1.05
   6  -9   3    9.98    1.01
   6  -9   3    9.40    1.08
   6  -9   3    9.65    1.03
   5   8  -3    0.26    0.44
   5   8  -3    0.71    0.57
   4   8  -3   18.81    1.75
   4   8  -3   18.32    1.49
   4   8  -3   20.44    1.51
  -4  -8   3   19.67    1.81
  -4  -8   3   20.66    1.51
  -4  -8   3   17.63    1.93
   3   8  -3   25.24    2.01
   3   8  -3   22.39    1.69
   3   8  -3   25.80    1.77
  -3  -8   3   25.62    1.77
  -3  -8   3   22.45    2.22
  -3  -8   3   21.17    2.08
   2   8  -3    6.54    0.85
   2   8  -3    7.90    0.86
   2   8  -3    7.92    0.83
  -2  -8   3    7.70    0.86
  -2  -8   3    6.04    0.91
  -2  -8   3    7.00    1.03
   1   8  -3    4.72    0.67
   1   8  -3    4.18    0.71
   1   8  -3    5.00    0.64
  -1  -8   3    4.97    0.67
  -1  -8   3    5.40    0.84
  -1  -8   3    4.38    0.72
   0   8  -3    5.15    0.74
   0   8  -3    5.74    0.83
   0   8  -3    6.78    0.71
   0  -8   3    7.01    0.79
   0  -8   3    6.49    0.89
   0  -8   3    5.78    0.81
  -1   8  -3   22.51    1.83
  -1   8  -3   22.68    1.78
  -1   8  -3   20.63    1.64
   1  -8   3   24.56    2.03
   1  -8   3   24.54    1.56
   1  -8   3   23.22    1.97
   1  -8   3   22.31    1.67
  -2   8  -3   -1.01    0.42
  -2   8  -3    0.01    0.52
  -2   8  -3   -0.48    0.34
   2  -8   3   -0.51    0.29
   2  -8   3   -0.68    0.35
   2  -8   3   -0.66    0.32
   2  -8   3   -0.03    0.36
  -3   8  -3   97.64    6.37
  -3   8  -3   94.29    5.74
  -3   8  -3   95.78    6.15
   3  -8   3   94.24    7.26
   3  -8   3   99.58    5.78
   3  -8   3   95.43    5.61
   3  -8   3   85.24    7.09
  -4   8  -3    2.26    0.63
  -4   8  -3    3.45    0.57
  -4   8  -3    4.15    0.72
   4  -8   3    3.29    0.58
   4  -8   3    4.38    0.61
  -5   8  -3   23.87    1.90
  -5   8  -3   23.66    1.67
  -5   8  -3   24.07    1.83
   5  -8   3   22.56    1.62
   5  -8   3   22.78    1.70
   5  -8   3   23.43    1.72
  -6   8  -3   16.46    1.55
  -6   8  -3   18.83    1.38
  -6   8  -3   17.13    1.48
   6  -8   3   17.80    1.37
   6  -8   3   17.38    1.43
   6  -8   3   16.44    1.34
  -7   8  -3   12.46    1.23
  -7   8  -3   11.90    1.33
   7  -8   3   12.13    1.12
   7  -8   3   12.14    1.23
   6   7  -3    0.87    0.55
   6   7  -3    0.36    0.56
   5   7  -3    3.11    0.71
   5   7  -3    2.70    0.56
  -5  -7   3    2.94    0.56
  -5  -7   3    3.34    0.79
  -5  -7   3    3.04    0.68
   4   7  -3    2.48    0.54
   4   7  -3    2.36    0.65
   4   7  -3    3.20    0.56
  -4  -7   3    2.58    0.64
  -4  -7   3    1.77    0.64
  -4  -7   3    2.45    0.53
   3   7  -3   45.97    3.05
   3   7  -3   51.48    3.05
   3   7  -3   47.45    3.57
  -3  -7   3   42.69    3.88
  -3  -7   3   47.28    3.03
  -3  -7   3   47.47    3.72
   2   7  -3    0.81    0.39
   2   7  -3    0.52    0.48
   2   7  -3    1.18    0.42
  -2  -7   3    0.97    0.43
  -2  -7   3    1.02    0.48
  -2  -7   3    1.61    0.43
   1   7  -3    5.45    0.63
   1   7  -3    6.07    0.60
   1   7  -3    4.72    0.70
   1   7  -3    4.51    0.64
  -1  -7   3    5.12    0.77
  -1  -7   3    4.15    0.69
  -1  -7   3    4.25    0.61
   0   7  -3   55.07    3.62
   0   7  -3   52.54    3.35
   0   7  -3   52.67    3.57
   0  -7   3   53.14    4.11
   0  -7   3   50.33    3.36
   0  -7   3   54.70    4.27
  -1   7  -3    9.83    0.99
  -1   7  -3    9.17    0.91
  -1   7  -3    9.13    0.89
   1  -7   3    8.27    0.79
   1  -7   3    8.62    0.88
   1  -7   3    8.24    0.96
   1  -7   3    8.45    0.96
  -2   7  -3   28.21    1.97
  -2   7  -3   23.80    1.92
  -2   7  -3   26.47    1.80
   2  -7   3   25.23    1.72
   2  -7   3   26.38    1.81
   2  -7   3   23.52    2.11
   2  -7   3   29.16    2.20
  -3   7  -3   14.98    1.33
  -3   7  -3   14.95    1.36
  -3   7  -3   16.08    1.21
   3  -7   3   17.96    1.43
   3  -7   3   13.78    1.19
   3  -7   3   13.66    1.36
   3  -7   3   16.38    1.22
  -4   7  -3   63.08    3.92
  -4   7  -3   63.90    4.38
  -4   7  -3   60.01    4.18
   4  -7   3   64.44    3.88
   4  -7   3   66.05    3.95
  -5   7  -3    4.61    0.74
  -5   7  -3    4.33    0.70
  -5   7  -3    4.99    0.63
   5  -7   3    3.91    0.58
   5  -7   3    4.73    0.67
   5  -7   3    3.85    0.56
  -6   7  -3   26.80    2.19
  -6   7  -3   29.50    2.09
  -6   7  -3   27.83    1.92
   6  -7   3   29.46    2.01
   6  -7   3   26.13    1.89
   6  -7   3   31.01    1.96
  -7   7  -3   12.54    1.26
  -7   7  -3   11.63    1.13
   7  -7   3   11.67    1.06
  -8   7  -3   -0.08    0.59
  -8   7  -3    0.38    0.55
   8  -7   3    0.16    0.48
   6   6  -3    6.02    0.75
   6   6  -3    3.77    0.82
  -6  -6   3    4.32    0.76
  -6  -6   3    4.94    0.95
   5   6  -3    2.65    0.65
   5   6  -3    3.72    0.59
   5   6  -3    2.38    0.50
  -5  -6   3    2.04    0.68
  -5  -6   3    2.27    0.64
  -5  -6   3    3.21    0.53
   4   6  -3    3.87    0.66
   4   6  -3    4.94    0.61
   4   6  -3    4.54    0.59
  -4  -6   3    4.53    0.59
  -4  -6   3    3.37    0.73
  -4  -6   3    3.26    0.62
   3   6  -3   33.85    2.09
   3   6  -3   32.60    2.08
   3   6  -3   31.73    2.43
  -3  -6   3   30.13    2.06
  -3  -6   3   30.55    2.52
  -3  -6   3   26.96    2.64
   2   6  -3   21.75    1.65
   2   6  -3   23.60    1.85
   2   6  -3   23.65    1.61
  -2  -6   3   22.40    1.93
  -2  -6   3   25.36    1.63
  -2  -6   3   21.03    2.04
   1   6  -3  154.67   10.10
   1   6  -3  163.76   10.44
   1   6  -3  159.92    9.47
  -1  -6   3  169.05   12.24
  -1  -6   3  157.75    9.48
  -1  -6   3  155.51   11.84
   0   6  -3   49.38    3.60
   0   6  -3   52.04    3.37
   0   6  -3   56.54    3.20
   0   6  -3   55.37    3.67
   0  -6   3   52.91    3.38
   0  -6   3   53.00    4.16
   0  -6   3   60.52    4.33
  -1   6  -3   87.44    5.93
  -1   6  -3   94.77    6.12
  -1   6  -3   87.20    5.54
   1  -6   3  105.47    7.13
   1  -6   3   86.80    6.89
   1  -6   3   91.83    5.38
   1  -6   3   92.50    5.56
  -2   6  -3   29.28    2.11
  -2   6  -3   26.89    2.05
  -2   6  -3   29.50    1.91
   2  -6   3   26.49    2.29
   2  -6   3   30.50    2.36
   2  -6   3   29.57    1.86
   2  -6   3   30.97    1.93
  -3   6  -3  111.60    7.78
  -3   6  -3  120.92    7.95
  -3   6  -3  118.04    7.63
  -3   6  -3  115.42    7.13
   3  -6   3  132.56    9.15
   3  -6   3  119.75    7.15
   3  -6   3  122.11    7.01
  -4   6  -3    8.08    0.87
  -4   6  -3    7.56    0.75
  -4   6  -3    7.54    0.89
   4  -6   3    8.34    0.78
   4  -6   3    8.34    0.74
   4  -6   3    7.03    0.79
  -5   6  -3    6.10    0.75
  -5   6  -3    6.17    0.81
  -5   6  -3    6.56    0.68
   5  -6   3    7.35    0.71
   5  -6   3    6.95    0.69
   5  -6   3    5.91    0.73
  -6   6  -3    9.64    1.10
  -6   6  -3   11.34    0.87
  -6   6  -3    8.89    0.99
   6  -6   3   10.20    0.86
   6  -6   3    9.32    0.88
   6  -6   3   11.77    1.01
  -7   6  -3    6.92    0.96
  -7   6  -3    8.41    0.93
   7  -6   3    7.76    0.82
  -8   6  -3   28.69    1.92
  -8   6  -3   30.16    2.26
  -8   6  -3   25.74    2.01
   8  -6   3   24.19    1.88
  -9   6  -3    0.55    0.42
  -9   6  -3    0.53    0.55
   7   5  -3    6.25    1.12
   7   5  -3   11.56    1.02
  -7  -5   3    8.91    1.12
  -7  -5   3    8.84    1.28
   6   5  -3    0.35    0.51
   6   5  -3    0.16    0.42
  -6  -5   3   -0.22    0.45
  -6  -5   3    0.53    0.50
   5   5  -3   12.12    1.05
   5   5  -3   13.37    1.34
  -5  -5   3   14.45    1.33
  -5  -5   3   13.86    1.47
  -5  -5   3   14.08    1.05
   4   5  -3   29.87    1.95
   4   5  -3   29.72    1.90
   4   5  -3   29.36    2.30
  -4  -5   3   25.66    2.48
  -4  -5   3   27.95    2.34
  -4  -5   3   28.79    1.88
   3   5  -3  152.50   10.91
   3   5  -3  166.86    9.08
   3   5  -3  162.47    9.39
  -3  -5   3  135.61   11.74
  -3  -5   3  156.67   11.37
  -3  -5   3  146.62    9.06
   2   5  -3  177.84   10.09
   2   5  -3  177.46   12.11
   2   5  -3  164.81   10.72
  -2  -5   3  180.24   10.10
  -2  -5   3  156.98   13.05
  -2  -5   3  170.80   12.64
   1   5  -3   39.87    2.74
   1   5  -3   41.55    2.57
   1   5  -3   44.02    2.78
   1   5  -3   39.42    2.39
  -1  -5   3   43.50    3.32
  -1  -5   3   37.55    2.56
  -1  -5   3   41.57    3.18
   0   5  -3   47.13    3.06
   0   5  -3   49.88    2.93
   0   5  -3   47.72    3.29
   0   5  -3   50.02    3.35
   0  -5   3   46.27    3.78
   0  -5   3   55.70    3.95
   0  -5   3   52.10    3.09
  -1   5  -3   26.22    1.80
  -1   5  -3   28.53    1.96
  -1   5  -3   24.68    1.93
   1  -5   3   31.20    2.26
   1  -5   3   26.13    2.16
   1  -5   3   27.78    1.81
   1  -5   3   27.92    1.72
  -2   5  -3  388.90   26.29
  -2   5  -3  329.16   20.32
  -2   5  -3  333.28   22.64
  -2   5  -3  338.51   21.73
   2  -5   3  347.28   20.33
   2  -5   3  387.31   26.27
   2  -5   3  325.47   25.52
   2  -5   3  343.60   19.91
  -3   5  -3    0.34    0.33
  -3   5  -3   -0.05    0.19
  -3   5  -3    0.27    0.32
  -3   5  -3    0.27    0.23
  -3   5  -3    0.43    0.22
   3  -5   3   -0.05    0.22
   3  -5   3    0.36    0.26
  -4   5  -3   38.77    2.77
  -4   5  -3   40.87    2.46
  -4   5  -3   40.25    3.08
  -4   5  -3   36.30    2.62
   4  -5   3   44.64    2.48
   4  -5   3   38.16    2.48
   4  -5   3   35.90    2.37
  -5   5  -3   27.75    1.77
  -5   5  -3   27.20    2.06
  -5   5  -3   29.31    1.95
   5  -5   3   25.49    1.75
   5  -5   3   27.84    1.77
   5  -5   3   26.27    1.84
  -6   5  -3   17.79    1.32
  -6   5  -3   16.39    1.21
  -6   5  -3   16.67    1.16
  -6   5  -3   16.08    1.43
   6  -5   3   17.38    1.22
   6  -5   3   15.43    1.16
  -7   5  -3   35.16    2.54
  -7   5  -3   33.51    2.20
  -7   5  -3   33.92    2.36
   7  -5   3   31.53    2.17
  -8   5  -3    1.16    0.38
  -8   5  -3    3.19    0.74
  -8   5  -3    2.51    0.60
   8  -5   3    1.81    0.47
  -9   5  -3    6.19    0.89
  -9   5  -3    6.27    0.99
  -8  -4   3   10.39    1.52
  -8  -4   3   13.78    1.41
   7   4  -3    0.59    0.48
   7   4  -3    0.27    0.53
  -7  -4   3    0.86    0.57
  -7  -4   3    0.44    0.51
   6   4  -3    3.06    0.66
   6   4  -3    3.88    0.58
  -6  -4   3    2.68    0.58
  -6  -4   3    2.38    0.66
   5   4  -3    2.84    0.62
   5   4  -3    2.83    0.43
   5   4  -3    4.12    0.53
  -5  -4   3    3.35    0.68
  -5  -4   3    2.87    0.58
  -5  -4   3    3.59    0.43
   4   4  -3   55.08    4.46
   4   4  -3   67.51    3.69
   4   4  -3   63.78    3.82
  -4  -4   3   61.01    3.67
  -4  -4   3   60.80    4.60
  -4  -4   3   54.02    4.81
   3   4  -3   39.38    3.22
   3   4  -3   44.41    2.69
   3   4  -3   43.67    2.76
  -3  -4   3   47.97    2.90
  -3  -4   3   42.46    2.67
  -3  -4   3   44.62    3.34
  -3  -4   3   39.64    3.50
   2   4  -3  121.48    6.57
   2   4  -3  103.43    7.19
  -2  -4   3  103.48    6.54
  -2  -4   3  120.49    7.21
  -2  -4   3  102.09    8.49
  -2  -4   3  113.39    8.21
   1   4  -3   12.89    0.78
   1   4  -3   13.79    1.03
   1   4  -3   12.15    0.95
   1   4  -3   11.83    0.90
  -1  -4   3   12.76    1.10
  -1  -4   3   11.40    0.91
  -1  -4   3   11.51    1.13
  -1  -4   3   11.89    0.90
   0   4  -3    6.36    0.62
   0   4  -3    7.51    0.56
   0   4  -3    7.86    0.68
   0   4  -3    8.09    0.79
   0  -4   3    9.05    0.79
   0  -4   3    7.10    0.63
   0  -4   3    6.76    0.63
   0  -4   3    7.03    0.73
  -1   4  -3  117.03    6.73
  -1   4  -3  108.38    6.88
  -1   4  -3  111.27    7.66
  -1   4  -3  114.39    7.39
  -1   4  -3  130.33    8.90
   1  -4   3  124.97    8.88
   1  -4   3  113.26    6.89
   1  -4   3  114.53    8.62
  -2   4  -3   12.55    0.97
  -2   4  -3   11.00    0.94
  -2   4  -3   10.58    0.85
  -2   4  -3   13.08    1.03
  -2   4  -3   11.47    0.85
   2  -4   3   11.30    0.86
   2  -4   3   10.65    0.85
   2  -4   3   11.36    1.02
   2  -4   3   11.71    0.86
   2  -4   3   11.11    1.00
  -3   4  -3   35.38    2.45
  -3   4  -3   34.62    2.87
  -3   4  -3   38.31    2.28
  -3   4  -3   35.69    2.57
  -3   4  -3   38.64    2.49
   3  -4   3   33.56    2.19
   3  -4   3   42.63    2.30
   3  -4   3   35.93    2.49
   3  -4   3   37.55    2.28
  -4   4  -3   57.96    3.67
  -4   4  -3   57.10    3.87
  -4   4  -3   52.30    4.36
  -4   4  -3   51.42    3.47
  -4   4  -3   60.18    3.42
   4  -4   3   62.68    3.42
   4  -4   3   52.24    3.32
   4  -4   3   60.11    3.80
   4  -4   3   56.82    3.43
  -5   4  -3   96.11    5.93
  -5   4  -3   87.87    5.62
  -5   4  -3   96.30    5.52
  -5   4  -3   89.54    6.22
  -5   4  -3   95.72    5.50
   5  -4   3   91.77    5.49
   5  -4   3   96.79    5.52
   5  -4   3   89.89    5.38
  -6   4  -3   35.09    2.40
  -6   4  -3   35.82    2.14
  -6   4  -3   35.34    2.26
  -6   4  -3   35.43    2.57
   6  -4   3   34.09    2.21
   6  -4   3   35.72    2.15
  -7   4  -3    7.09    0.93
  -7   4  -3    9.19    0.82
  -7   4  -3    7.32    0.69
   7  -4   3    6.65    0.73
  -8   4  -3   38.05    2.45
  -8   4  -3   36.17    2.65
  -8   4  -3   35.95    2.31
   8  -4   3   29.67    2.24
  -9   4  -3    1.98    0.47
  -9   4  -3    2.62    0.75
  -9   4  -3    2.05    0.62
   9  -4   3    2.19    0.56
   8   3  -3    1.13    0.68
   8   3  -3    2.27    0.60
  -8  -3   3    1.33    0.62
  -8  -3   3    1.80    0.67
   7   3  -3    4.08    0.77
   7   3  -3    3.28    0.61
  -7  -3   3    3.78    0.66
  -7  -3   3    3.04    0.75
   6   3  -3   -0.69    0.39
   6   3  -3   -0.15    0.32
  -6  -3   3   -0.28    0.37
  -6  -3   3   -0.29    0.34
   5   3  -3   48.37    3.00
   5   3  -3   41.06    3.52
   5   3  -3   50.61    2.84
  -5  -3   3   46.55    2.82
  -5  -3   3   48.89    3.60
  -5  -3   3   42.81    3.79
   4   3  -3   23.28    1.95
   4   3  -3   26.77    1.56
   4   3  -3   23.89    1.63
  -4  -3   3   21.12    2.08
  -4  -3   3   26.34    1.98
  -4  -3   3   23.37    1.54
   3   3  -3   46.80    2.90
   3   3  -3   47.19    3.00
   3   3  -3   41.74    3.50
  -3  -3   3   49.36    3.15
  -3  -3   3   48.12    2.90
  -3  -3   3   46.98    3.81
  -3  -3   3   51.86    3.19
  -3  -3   3   49.97    3.64
   2   3  -3   86.43    4.99
   2   3  -3   79.37    5.00
   2   3  -3   77.38    5.47
  -2  -3   3   88.04    5.47
  -2  -3   3   85.44    5.49
  -2  -3   3   85.22    6.49
  -2  -3   3   87.73    5.01
  -2  -3   3   79.52    4.98
  -2  -3   3   89.44    6.26
   1   3  -3    0.25    0.12
   1   3  -3    0.41    0.26
   1   3  -3    0.63    0.24
   1   3  -3    0.10    0.18
   1   3  -3   -0.06    0.20
   1   3  -3    0.41    0.21
   1   3  -3   -0.05    0.17
  -1  -3   3    0.37    0.22
  -1  -3   3    0.10    0.17
  -1  -3   3    0.21    0.21
  -1  -3   3    0.41    0.17
  -1  -3   3    0.01    0.17
  -1  -3   3    0.70    0.24
   0   3  -3  154.49    9.10
   0   3  -3  144.77    9.73
   0   3  -3  152.46   11.41
   0   3  -3  142.93   10.10
   0   3  -3  158.21    8.87
   0   3  -3  176.63   11.78
   0   3  -3  151.54    9.09
   0  -3   3  143.07    9.71
   0  -3   3  164.83    9.11
   0  -3   3  168.43   11.41
   0  -3   3  152.84    9.09
   0  -3   3  146.78   10.10
   0  -3   3  165.07   11.76
  -1   3  -3  185.57   13.05
  -1   3  -3  189.30   11.47
  -1   3  -3  207.69   14.71
  -1   3  -3  204.90   11.72
  -1   3  -3  198.31   11.72
  -1   3  -3  197.56   12.55
   1  -3   3  184.23   12.52
   1  -3   3  210.60   11.72
   1  -3   3  205.32   14.71
   1  -3   3  183.15   13.05
   1  -3   3  211.13   11.73
   1  -3   3  235.42   15.16
  -2   3  -3  359.41   21.42
  -2   3  -3  353.34   22.17
  -2   3  -3  299.66   20.01
  -2   3  -3  355.77   25.90
  -2   3  -3  390.07   20.03
  -2   3  -3  314.40   25.16
  -2   3  -3  347.62   22.34
   2  -3   3  347.36   20.02
   2  -3   3  327.08   20.45
   2  -3   3  317.50   21.39
   2  -3   3  344.61   22.16
   2  -3   3  384.66   20.02
  -3   3  -3  415.46   34.18
  -3   3  -3  491.56   29.30
  -3   3  -3  465.28   28.25
  -3   3  -3  472.78   26.41
  -3   3  -3  474.95   29.50
  -3   3  -3  473.24   26.40
   3  -3   3  392.59   27.00
   3  -3   3  456.97   29.30
   3  -3   3  476.29   26.40
   3  -3   3  402.40   25.51
   3  -3   3  494.61   26.41
  -4   3  -3  505.62   28.72
  -4   3  -3  499.80   32.11
  -4   3  -3  542.46   28.74
  -4   3  -3  543.59   30.76
   4  -3   3  467.35   31.91
   4  -3   3  445.30   27.78
   4  -3   3  517.22   28.73
   4  -3   3  448.47   28.70
  -5   3  -3   37.76    2.48
  -5   3  -3   41.14    2.63
  -5   3  -3   40.72    2.81
  -5   3  -3   38.61    2.86
  -5   3  -3   40.88    2.38
  -5   3  -3   44.98    2.42
   5  -3   3   40.46    2.41
   5  -3   3   37.94    2.78
   5  -3   3   37.67    2.38
   5  -3   3   37.70    2.41
  -6   3  -3   44.58    2.90
  -6   3  -3   47.54    3.06
  -6   3  -3   45.49    3.27
  -6   3  -3   46.40    3.35
   6  -3   3   46.74    2.82
   6  -3   3   49.36    3.27
  -7   3  -3   14.69    1.08
  -7   3  -3   15.09    1.15
  -7   3  -3   16.70    1.34
  -7   3  -3   12.71    1.29
   7  -3   3   13.84    1.10
  -8   3  -3    1.58    0.39
  -8   3  -3    2.15    0.52
  -8   3  -3    2.82    0.66
  -8   3  -3    1.73    0.52
   8  -3   3    2.02    0.49
  -9   3  -3   14.20    1.14
  -9   3  -3   17.76    1.51
  -9   3  -3   13.15    1.37
   9  -3   3   12.80    1.16
  -9  -2   3    0.02    0.50
   8   2  -3   15.67    1.69
   8   2  -3   14.46    1.34
  -8  -2   3   17.14    1.76
  -8  -2   3   19.25    1.60
   7   2  -3   -0.21    0.47
   7   2  -3    0.33    0.38
  -7  -2   3    0.18    0.38
  -7  -2   3    0.17    0.44
   6   2  -3   20.04    1.79
   6   2  -3   21.54    1.48
  -6  -2   3   20.28    1.28
  -6  -2   3   21.14    1.73
  -6  -2   3   19.87    1.89
   5   2  -3    6.53    0.61
   5   2  -3    5.54    0.79
   5   2  -3    6.97    0.64
   5   2  -3    6.89    0.53
   5   2  -3    6.31    0.53
  -5  -2   3    7.27    0.74
  -5  -2   3    6.54    0.51
  -5  -2   3    6.02    0.59
  -5  -2   3    6.94    0.56
  -5  -2   3    6.35    0.85
   4   2  -3  144.22   10.40
   4   2  -3  146.24    8.58
   4   2  -3  142.95    8.93
   4   2  -3  148.49    8.35
   4   2  -3  152.39    8.55
  -4  -2   3  139.37   11.17
  -4  -2   3  143.18    8.57
  -4  -2   3  141.60    8.53
  -4  -2   3  154.40   10.79
  -4  -2   3  151.03    9.49
   3   2  -3   21.29    1.78
   3   2  -3   23.34    1.51
   3   2  -3   23.39    1.45
   3   2  -3   23.49    1.49
  -3  -2   3   22.44    1.62
  -3  -2   3   24.55    1.56
  -3  -2   3   21.43    1.93
  -3  -2   3   22.47    1.43
  -3  -2   3   23.44    1.48
  -3  -2   3   25.36    1.83
   2   2  -3  122.33    6.82
   2   2  -3  116.17    6.82
   2   2  -3  104.88    8.85
   2   2  -3  119.11    8.57
  -2  -2   3  122.00    6.82
  -2  -2   3  117.53    7.55
  -2  -2   3  109.00    6.80
  -2  -2   3  117.97    8.86
  -2  -2   3  118.53    7.27
   0   2  -3  320.16   18.41
   0   2  -3  294.74   20.51
   0   2  -3  335.21   23.15
   0   2  -3  316.24   23.84
   0   2  -3  321.36   18.41
   0   2  -3  288.20   19.69
   0  -2   3  290.57   20.50
   0  -2   3  291.86   19.68
   0  -2   3  354.26   23.85
   0  -2   3  351.11   23.15
   0  -2   3  337.36   18.41
   0  -2   3  307.07   18.40
  -1   2  -3   31.89    1.97
  -1   2  -3   32.64    1.98
  -1   2  -3   28.59    2.20
  -1   2  -3   32.65    2.46
  -1   2  -3   37.19    2.55
  -1   2  -3   31.86    2.14
   1  -2   3   30.99    2.15
   1  -2   3   31.97    2.13
   1  -2   3   30.55    1.97
   1  -2   3   30.85    1.97
   1  -2   3   35.01    2.28
   1  -2   3   33.15    2.54
   1  -2   3   31.77    2.21
  -2   2  -3  195.36   15.59
  -2   2  -3  217.98   12.05
  -2   2  -3  214.91   11.84
  -2   2  -3  218.57   12.04
  -2   2  -3  203.04   13.96
  -2   2  -3  235.09   12.90
  -2   2  -3  202.98   13.45
   2  -2   3  218.46   12.04
   2  -2   3  186.10   12.29
   2  -2   3  188.49   11.62
   2  -2   3  200.49   12.87
   2  -2   3  206.35   12.03
   2  -2   3  202.13   13.36
   2  -2   3  202.46   13.97
   2  -2   3  218.59   13.47
  -3   2  -3 1000.00   64.92
   3  -2   3  928.50   57.27
   3  -2   3  977.77   54.10
  -4   2  -3   17.97    0.96
  -4   2  -3   15.77    1.05
  -4   2  -3   11.75    1.16
  -4   2  -3   14.69    0.91
  -4   2  -3   12.64    0.95
  -4   2  -3   14.83    1.16
   4  -2   3   12.30    0.96
   4  -2   3   13.66    1.07
   4  -2   3   16.48    0.96
   4  -2   3   13.83    0.90
   4  -2   3   15.00    1.15
  -5   2  -3   24.84    1.64
  -5   2  -3   27.77    1.89
  -5   2  -3   29.20    1.74
  -5   2  -3   23.38    1.91
   5  -2   3   23.92    1.59
   5  -2   3   25.39    1.89
   5  -2   3   24.61    1.80
  -6   2  -3   45.52    2.86
  -6   2  -3   44.02    3.30
  -6   2  -3   47.87    2.99
  -6   2  -3   44.52    3.19
   6  -2   3   45.82    2.76
   6  -2   3   46.80    3.23
  -7   2  -3    9.03    0.78
  -7   2  -3   10.86    1.01
  -7   2  -3    9.04    0.83
  -7   2  -3    8.85    0.98
   7  -2   3    8.67    1.03
   7  -2   3    8.23    0.78
  -8   2  -3    5.84    0.63
  -8   2  -3    7.08    0.73
  -8   2  -3    6.37    0.84
  -8   2  -3    4.73    0.76
   8  -2   3    4.86    0.64
  -9   2  -3    2.16    0.61
  -9   2  -3    3.05    0.61
  -9   2  -3    1.93    0.47
  -9  -1   3    3.33    0.73
   8   1  -3    0.59    0.42
   8   1  -3   -0.82    0.49
  -8  -1   3   -0.32    0.39
  -8  -1   3   -0.26    0.36
   7   1  -3   23.01    1.72
   7   1  -3   21.96    2.08
  -7  -1   3   27.24    2.01
  -7  -1   3   23.68    2.18
   6   1  -3   15.22    0.98
   6   1  -3   11.97    1.28
   6   1  -3   12.43    1.05
  -6  -1   3   12.38    1.32
  -6  -1   3   15.03    1.21
   5   1  -3   13.22    0.88
   5   1  -3   12.32    0.89
   5   1  -3   10.61    1.15
   5   1  -3   11.78    0.95
   5   1  -3   13.30    0.83
  -5  -1   3   14.08    1.10
  -5  -1   3   13.41    0.82
  -5  -1   3   12.34    1.21
  -5  -1   3   11.35    0.86
   4   1  -3   47.62    2.87
   4   1  -3   41.65    3.58
   4   1  -3   52.50    2.92
   4   1  -3   47.76    3.06
   4   1  -3   50.01    2.94
  -4  -1   3   46.69    3.85
  -4  -1   3   51.69    2.93
  -4  -1   3   51.57    3.68
  -4  -1   3   50.15    2.90
   3   1  -3   58.47    3.53
   3   1  -3   55.54    4.29
   3   1  -3   66.14    4.44
   3   1  -3   54.70    3.44
   3   1  -3   59.61    3.67
   3   1  -3   64.42    3.52
  -3  -1   3   57.48    3.50
  -3  -1   3   60.46    3.90
  -3  -1   3   59.20    3.41
  -3  -1   3   66.92    3.54
  -3  -1   3   52.98    4.60
  -3  -1   3   58.72    4.42
   2   1  -3   54.56    4.20
   2   1  -3   55.62    3.47
   2   1  -3   62.39    3.36
   2   1  -3   57.01    3.35
   2   1  -3   46.76    4.35
  -2  -1   3   56.67    4.20
  -2  -1   3   56.44    3.71
  -2  -1   3   66.51    3.37
  -2  -1   3   58.99    3.34
  -2  -1   3   53.26    4.36
   1   1  -3   49.81    3.28
   1   1  -3   51.50    2.96
   1   1  -3   49.67    3.71
   1   1  -3   55.37    2.97
   1   1  -3   49.43    3.85
  -1  -1   3   58.32    2.97
  -1  -1   3   44.12    3.69
  -1  -1   3   46.23    3.83
  -1  -1   3   47.66    3.15
  -1  -1   3   51.27    2.95
  -1  -1   3   48.86    3.28
   0   1  -3  445.49   28.40
   0   1  -3  385.28   25.17
   0   1  -3  362.87   22.56
   0   1  -3  381.35   29.24
   0   1  -3  387.83   22.57
   0  -1   3  354.16   22.55
   0  -1   3  408.58   24.13
   0  -1   3  405.07   26.15
   0  -1   3  396.28   22.56
   0  -1   3  366.73   25.16
  -1   1  -3  546.23   31.92
  -1   1  -3  551.85   34.16
  -1   1  -3  580.54   35.64
  -1   1  -3  531.31   37.02
   1  -1   3  551.33   37.03
  -2   1  -3  540.14   32.77
  -2   1  -3  569.60   31.68
  -2   1  -3  613.33   38.05
   2  -1   3  614.77   36.41
   2  -1   3  593.57   36.61
   2  -1   3  493.54   32.76
   2  -1   3  530.34   32.77
   2  -1   3  583.48   31.68
  -3   1  -3   50.77    3.39
  -3   1  -3   49.95    3.05
  -3   1  -3   50.41    3.52
  -3   1  -3   48.94    2.97
  -3   1  -3   44.17    2.97
  -3   1  -3   56.99    3.22
   3  -1   3   58.03    3.21
   3  -1   3   59.63    3.41
   3  -1   3   47.87    3.39
   3  -1   3   44.31    2.96
   3  -1   3   49.20    2.98
   3  -1   3   48.93    2.92
  -4   1  -3   52.75    3.25
  -4   1  -3   57.91    3.74
  -4   1  -3   54.41    3.38
  -4   1  -3   56.90    3.89
   4  -1   3   58.16    3.24
   4  -1   3   52.30    3.25
   4  -1   3   56.59    3.76
   4  -1   3   63.29    3.84
   4  -1   3   51.12    3.27
  -5   1  -3   68.22    4.95
  -5   1  -3   72.97    4.76
  -5   1  -3   71.71    4.32
   5  -1   3   68.84    4.12
   5  -1   3   75.24    4.90
   5  -1   3   69.34    4.79
  -6   1  -3   10.10    0.96
  -6   1  -3   10.37    0.79
  -6   1  -3   11.09    0.96
  -6   1  -3    9.46    0.77
   6  -1   3    8.23    0.77
   6  -1   3    8.74    0.84
   6  -1   3   10.52    1.02
  -7   1  -3   24.54    2.10
  -7   1  -3   27.88    1.87
  -7   1  -3   31.58    2.07
  -7   1  -3   25.63    1.79
   7  -1   3   27.30    2.13
  -8   1  -3    0.82    0.46
  -8   1  -3    1.67    0.50
  -8   1  -3    1.69    0.39
  -9   1  -3    9.56    1.13
  -9   1  -3    9.12    1.11
  -9   1  -3   10.50    0.93
   9   0  -3    4.95    0.77
   9   0  -3    3.97    0.91
  -9   0   3    7.39    0.81
   8   0  -3    9.21    1.26
   8   0  -3   10.41    1.01
  -8   0   3   10.81    1.22
  -8   0   3   12.99    1.12
   7   0  -3    1.29    0.36
   7   0  -3    1.24    0.39
   7   0  -3    0.80    0.54
  -7   0   3    1.74    0.40
  -7   0   3    1.01    0.42
   6   0  -3   62.74    3.50
   6   0  -3   50.86    4.31
   6   0  -3   59.63    3.70
  -6   0   3   63.53    4.39
  -6   0   3   54.05    4.59
   5   0  -3   29.74    2.67
   5   0  -3   34.71    2.29
   5   0  -3   36.02    2.17
   5   0  -3   35.58    2.14
   5   0  -3   36.34    2.12
  -5   0   3   35.32    2.11
  -5   0   3   37.80    2.70
  -5   0   3   37.53    2.14
  -5   0   3   34.62    2.85
   4   0  -3  385.92   21.47
   4   0  -3  369.42   22.38
   4   0  -3  361.68   21.08
   4   0  -3  315.84   25.95
   4   0  -3  413.45   21.47
  -4   0   3  374.89   21.45
  -4   0   3  402.32   21.47
  -4   0   3  377.91   27.03
  -4   0   3  334.51   27.86
   3   0  -3  413.55   25.47
   3   0  -3  433.50   24.46
   3   0  -3  464.17   30.79
   3   0  -3  415.33   23.99
   3   0  -3  457.96   24.47
   3   0  -3  376.82   29.55
  -3   0   3  465.43   24.47
  -3   0   3  366.21   31.72
  -3   0   3  433.46   23.65
  -3   0   3  428.80   24.45
  -3   0   3  415.10   25.45
  -3   0   3  403.66   30.79
   2   0  -3    0.19    0.10
   2   0  -3    0.12    0.13
   2   0  -3    0.03    0.09
   2   0  -3    0.26    0.11
   2   0  -3    0.25    0.12
  -2   0   3    0.07    0.09
  -2   0   3    0.08    0.12
  -2   0   3    0.25    0.09
  -2   0   3    0.53    0.11
  -2   0   3    0.07    0.09
   1   0  -3   50.11    2.80
   1   0  -3   45.51    3.61
   1   0  -3   42.72    3.48
   1   0  -3   47.37    2.79
  -1   0   3   44.77    3.47
  -1   0   3   42.29    3.60
  -1   0   3   50.30    3.10
  -1   0   3   47.39    2.79
  -1   0   3   51.91    2.80
   0   0  -3   12.09    0.77
   0   0  -3   10.33    0.71
   0   0  -3   10.80    0.80
   0   0  -3   10.17    0.70
   0   0   3   10.97    0.71
   0   0   3   12.04    0.78
   0   0   3   11.50    0.73
   0   0   3    9.33    0.70
  -2   0  -3   -0.04    0.17
  -2   0  -3    0.18    0.10
  -2   0  -3   -0.07    0.10
  -2   0  -3    0.19    0.11
  -2   0  -3    0.05    0.12
   2   0   3    0.01    0.12
   2   0   3   -0.09    0.11
   2   0   3    0.08    0.21
   2   0   3    0.15    0.18
   2   0   3   -0.06    0.09
   2   0   3    0.05    0.15
   2   0   3    0.17    0.10
  -3   0  -3  282.28   18.74
  -3   0  -3  286.75   16.76
  -3   0  -3  286.77   16.76
   3   0   3  318.01   19.56
   3   0   3  280.44   18.69
   3   0   3  291.86   16.24
   3   0   3  260.86   18.75
   3   0   3  307.99   16.76
   3   0   3  292.27   16.76
  -4   0  -3  265.19   15.92
  -4   0  -3  241.12   14.86
  -4   0  -3  281.38   14.87
  -4   0  -3  257.61   16.66
   4   0   3  247.44   16.63
   4   0   3  252.84   14.86
   4   0   3  259.15   17.38
   4   0   3  250.62   14.44
  -5   0  -3   21.55    1.49
  -5   0  -3   20.72    1.36
   5   0   3   18.57    1.57
   5   0   3   20.06    1.54
  -6   0  -3   30.37    2.05
  -6   0  -3   29.97    2.01
  -6   0  -3   27.66    2.33
  -6   0  -3   36.25    2.23
   6   0   3   32.15    2.35
  -7   0  -3   -1.02    0.36
  -7   0  -3    0.22    0.34
  -7   0  -3    0.09    0.27
  -7   0  -3    0.00    0.33
   7   0   3    0.14    0.46
  -8   0  -3   12.09    1.23
  -8   0  -3   14.15    1.07
  -8   0  -3   11.56    1.31
   8   0   3   15.12    1.36
  -9   0  -3    1.95    0.48
  -9   0  -3    1.72    0.58
  -9   0  -3    2.26    0.64
   9  -1  -3    8.62    1.21
  -9   1   3   10.31    0.95
   8  -1  -3    1.25    0.61
   8  -1  -3    2.81    0.48
   8  -1  -3    2.29    0.51
  -8   1   3    2.43    0.49
  -8   1   3    1.44    0.45
   7  -1  -3   14.01    1.09
   7  -1  -3   12.50    1.35
   7  -1  -3   14.71    1.12
  -7   1   3   15.67    1.23
  -7   1   3   12.79    1.30
  -7   1   3   13.48    1.09
  -7   1   3   14.21    1.11
   6  -1  -3    2.60    0.42
   6  -1  -3    1.27    0.48
   6  -1  -3    2.13    0.40
   6  -1  -3    2.07    0.23
  -6   1   3    1.88    0.39
  -6   1   3    2.46    0.42
  -6   1   3    1.82    0.34
  -6   1   3    2.61    0.24
   5  -1  -3   26.51    1.70
   5  -1  -3   26.57    1.65
   5  -1  -3   23.75    1.55
   5  -1  -3   23.83    1.99
  -5   1   3   24.83    1.55
  -5   1   3   24.36    2.07
  -5   1   3   29.14    1.56
   4  -1  -3   25.46    1.62
   4  -1  -3   21.46    1.94
   4  -1  -3   26.05    1.67
   4  -1  -3   27.77    1.56
   4  -1  -3   28.21    1.58
   4  -1  -3   24.58    1.58
  -4   1   3   26.34    1.57
  -4   1   3   28.86    1.57
  -4   1   3   23.50    2.04
   3  -1  -3  320.90   17.52
   3  -1  -3  306.98   18.88
   3  -1  -3  316.64   18.14
   3  -1  -3  300.96   17.80
   3  -1  -3  321.89   18.13
   3  -1  -3  314.93   21.90
   3  -1  -3  319.70   23.50
  -3   1   3  330.65   17.53
  -3   1   3  298.48   18.13
  -3   1   3  343.49   18.14
  -3   1   3  298.83   18.86
  -3   1   3  284.70   23.48
   2  -1  -3  113.18    7.01
   2  -1  -3  118.57    6.51
   2  -1  -3  109.14    8.74
   2  -1  -3  116.12    6.76
   2  -1  -3  124.46    6.77
  -2   1   3  108.58    8.73
  -2   1   3  122.94    6.76
  -2   1   3  121.53    7.01
  -2   1   3  109.79    6.92
  -2   1   3  115.28    6.76
  -2   1   3  117.19    6.51
  -1  -1  -3  162.36    9.35
  -1  -1  -3  167.53    9.70
  -1  -1  -3  137.81   10.39
  -1  -1  -3  178.93    9.34
   1   1   3  152.59   10.41
   1   1   3  189.72    9.35
   1   1   3  152.08    9.34
   1   1   3  145.04   10.88
  -2  -1  -3  398.16   22.21
  -2  -1  -3  415.92   21.48
  -2  -1  -3  382.56   23.12
  -2  -1  -3  378.04   22.22
  -2  -1  -3  389.92   25.88
  -2  -1  -3  403.14   26.84
   2   1   3  338.72   24.78
   2   1   3  353.41   24.69
   2   1   3  411.46   22.21
   2   1   3  381.71   25.89
   2   1   3  370.61   22.21
  -3  -1  -3  195.66   12.05
  -3  -1  -3  173.20   10.31
  -3  -1  -3  197.60   10.33
  -3  -1  -3  172.04   11.52
   3   1   3  158.23   10.32
   3   1   3  177.40   10.32
   3   1   3  173.65   11.54
   3   1   3  175.24   12.06
  -4  -1  -3   68.97    4.62
  -4  -1  -3   70.82    4.11
  -4  -1  -3   70.31    4.12
   4   1   3   71.19    4.11
   4   1   3   66.29    4.12
   4   1   3   74.33    4.88
   4   1   3   69.95    4.71
  -5  -1  -3    8.13    0.98
  -5  -1  -3   11.15    0.83
   5   1   3   10.75    1.00
   5   1   3   10.49    0.93
  -6  -1  -3    4.01    0.67
  -6  -1  -3    5.59    0.58
   6   1   3    6.08    0.82
  -7  -1  -3   12.52    1.30
   7   1   3   13.99    1.31
  -8  -1  -3    3.72    0.69
  -8  -1  -3    2.98    0.49
  -8  -1  -3    2.86    0.61
   8   1   3    3.24    0.75
 -10   2   3   -0.44    0.52
   9  -2  -3    0.33    0.44
   9  -2  -3    0.16    0.54
  -9   2   3    0.02    0.39
  -9   2   3    0.91    0.51
   8  -2  -3   23.62    1.66
   8  -2  -3   22.21    2.01
  -8   2   3   23.78    1.66
   7  -2  -3    1.20    0.40
   7  -2  -3    1.34    0.51
   7  -2  -3    1.24    0.40
  -7   2   3    1.41    0.34
  -7   2   3    1.27    0.35
   6  -2  -3   46.54    2.80
   6  -2  -3   42.53    3.26
   6  -2  -3   42.61    2.69
   6  -2  -3   43.85    2.59
   6  -2  -3   44.39    2.61
  -6   2   3   40.06    3.38
  -6   2   3   40.92    2.59
  -6   2   3   47.11    2.76
   5  -2  -3   81.93    4.55
   5  -2  -3   84.48    4.46
   5  -2  -3   79.38    4.79
   5  -2  -3   70.07    4.55
   5  -2  -3   79.87    4.58
   5  -2  -3   76.62    5.56
  -5   2   3   77.86    4.72
  -5   2   3   72.75    5.89
  -5   2   3   84.07    4.55
  -5   2   3   68.66    4.55
   4  -2  -3   68.72    3.77
   4  -2  -3   62.91    4.71
   4  -2  -3   67.38    4.06
   4  -2  -3   64.79    3.87
   4  -2  -3   64.00    3.89
   4  -2  -3   68.42    3.89
  -4   2   3   66.65    4.01
  -4   2   3   64.12    4.98
  -4   2   3   70.85    3.88
  -4   2   3   60.87    3.88
   3  -2  -3   20.68    1.29
   3  -2  -3   21.17    1.32
   3  -2  -3   19.21    1.27
   3  -2  -3   21.44    1.25
   3  -2  -3   20.45    1.32
   3  -2  -3   20.77    1.54
  -3   2   3   21.09    1.22
  -3   2   3   20.88    1.33
  -3   2   3   19.86    1.45
  -3   2   3   19.75    1.30
  -3   2   3   22.46    1.29
  -3   2   3   20.22    1.28
   2  -2  -3  241.56   13.59
   2  -2  -3  236.49   13.89
   2  -2  -3  219.59   13.57
   2  -2  -3  223.19   14.09
   2  -2  -3  245.81   13.10
   2  -2  -3  233.46   17.54
  -2   2   3  249.07   13.59
  -2   2   3  238.06   13.58
  -2   2   3  238.57   13.89
  -2   2   3  226.88   15.78
  -2   2   3  222.42   14.08
   1  -2  -3  289.87   18.09
   1  -2  -3  323.80   18.50
   1  -2  -3  333.82   18.11
  -1   2   3  303.67   18.50
  -1   2   3  327.21   18.10
  -1   2   3  298.82   21.06
  -1   2   3  309.33   18.10
   0  -2  -3  115.20    8.16
   0  -2  -3  126.13    7.03
   0  -2  -3  107.89    7.14
   0  -2  -3  137.03    8.81
   0  -2  -3  115.06    7.01
   0   2   3  115.00    8.16
   0   2   3  122.95    7.02
   0   2   3  124.57    7.79
   0   2   3  118.53    7.02
  -1  -2  -3  329.57   22.36
  -1  -2  -3  320.08   19.21
  -1  -2  -3  355.21   19.94
  -1  -2  -3  320.08   19.19
  -1  -2  -3  365.61   23.15
  -1  -2  -3  380.89   24.19
   1   2   3  315.01   19.19
   1   2   3  311.44   22.36
   1   2   3  310.77   21.38
   1   2   3  317.43   19.94
   1   2   3  318.37   19.20
  -2  -2  -3  289.38   17.79
  -2  -2  -3  281.44   14.71
  -2  -2  -3  263.40   18.56
  -2  -2  -3  239.53   16.37
  -2  -2  -3  263.29   15.30
  -2  -2  -3  234.22   14.72
   2   2   3  238.76   15.30
   2   2   3  248.16   16.39
   2   2   3  247.90   17.17
   2   2   3  266.00   16.39
   2   2   3  227.09   14.72
   2   2   3  246.60   14.71
  -3  -2  -3  428.32   32.21
  -3  -2  -3  493.86   25.54
  -3  -2  -3  428.97   25.56
   3   2   3  426.46   26.60
   3   2   3  418.35   25.55
   3   2   3  462.37   29.80
   3   2   3  451.66   28.42
   3   2   3  420.81   25.53
  -4  -2  -3   14.67    0.94
  -4  -2  -3   12.70    1.28
  -4  -2  -3   14.98    0.97
   4   2   3   15.21    0.97
   4   2   3   14.44    1.22
   4   2   3   14.68    1.05
   4   2   3   14.78    1.22
   4   2   3   14.66    0.94
  -5  -2  -3    0.60    0.19
  -5  -2  -3    0.28    0.33
   5   2   3    0.20    0.28
   5   2   3    0.58    0.20
   5   2   3    0.25    0.32
   5   2   3    1.25    0.44
  -6  -2  -3    9.83    1.06
   6   2   3   10.47    1.10
   6   2   3   10.50    0.88
  -7  -2  -3    2.84    0.59
   7   2   3    3.26    0.72
  -8  -2  -3    4.69    0.80
   8   2   3    5.17    0.88
   9  -3  -3   20.96    1.60
  -9   3   3   21.63    1.64
  -9   3   3   18.20    1.49
   8  -3  -3    0.37    0.41
   8  -3  -3    0.35    0.51
   8  -3  -3    0.79    0.40
  -8   3   3    0.32    0.35
  -8   3   3   -1.01    0.44
   7  -3  -3   38.23    2.42
   7  -3  -3   39.53    3.05
   7  -3  -3   38.14    2.55
  -7   3   3   42.69    2.59
   6  -3  -3    0.04    0.25
   6  -3  -3    0.20    0.19
   6  -3  -3   -0.20    0.33
   6  -3  -3    0.02    0.28
  -6   3   3    0.22    0.19
  -6   3   3   -0.19    0.22
   5  -3  -3   73.51    4.15
   5  -3  -3   68.05    4.27
   5  -3  -3   74.63    4.29
   5  -3  -3   73.03    5.18
  -5   3   3   75.33    4.40
  -5   3   3   67.60    4.26
   4  -3  -3   25.05    1.45
   4  -3  -3   24.82    1.78
   4  -3  -3   21.90    1.48
   4  -3  -3   23.06    1.53
  -4   3   3   22.91    1.47
  -4   3   3   22.83    1.64
  -4   3   3   23.95    1.53
   3  -3  -3  119.71    6.55
   3  -3  -3  120.15    6.81
   3  -3  -3  112.13    6.70
   3  -3  -3  123.27    8.15
  -3   3   3  118.11    6.95
  -3   3   3  106.26    7.86
  -3   3   3  109.49    7.02
  -3   3   3  119.13    6.80
   2  -3  -3  572.27   35.41
   2  -3  -3  634.18   34.63
  -2   3   3  601.27   35.41
  -2   3   3  585.48   34.61
   1  -3  -3   61.85    3.51
   1  -3  -3   55.18    4.05
   1  -3  -3   59.26    3.54
   1  -3  -3   64.88    4.33
  -1   3   3   54.71    3.69
  -1   3   3   59.96    3.50
  -1   3   3   53.01    4.03
   0  -3  -3  450.57   29.80
   0  -3  -3  408.49   23.70
   0   3   3  387.03   25.27
   0   3   3  384.32   27.57
   0   3   3  412.96   23.70
  -1  -3  -3    0.87    0.26
  -1  -3  -3    0.70    0.22
  -1  -3  -3    1.27    0.23
   1   3   3    1.10    0.18
   1   3   3    0.95    0.22
   1   3   3    0.80    0.25
   1   3   3    0.99    0.15
  -2  -3  -3   70.65    4.40
  -2  -3  -3   75.58    4.52
  -2  -3  -3   73.96    5.53
   2   3   3   81.93    5.17
   2   3   3   68.18    4.52
   2   3   3   75.06    4.41
  -3  -3  -3    5.24    0.66
  -3  -3  -3    5.66    0.53
   3   3   3    5.80    0.68
   3   3   3    5.87    0.52
   3   3   3    6.35    0.68
   3   3   3    5.80    0.53
  -4  -3  -3    7.64    0.88
  -4  -3  -3    9.14    0.70
   4   3   3    8.30    0.71
   4   3   3    7.93    0.86
   4   3   3    8.37    0.69
   4   3   3    9.38    0.90
  -5  -3  -3    8.10    0.65
  -5  -3  -3    7.06    0.87
   5   3   3    8.32    0.72
   5   3   3    7.39    0.66
   5   3   3    7.62    0.88
  -6  -3  -3   12.93    1.42
   6   3   3   15.84    1.19
   6   3   3   18.39    1.44
  -7  -3  -3   14.05    1.44
   7   3   3   14.59    1.42
   8   3   3    0.06    0.56
  10  -4  -3    1.63    0.61
   9  -4  -3    6.82    0.79
   9  -4  -3    6.20    0.86
  -9   4   3    5.88    0.75
  -9   4   3    8.40    0.96
   8  -4  -3   17.80    1.34
   8  -4  -3   16.78    1.47
  -8   4   3   20.84    1.43
  -8   4   3   19.70    1.53
   7  -4  -3    0.17    0.39
   7  -4  -3    0.14    0.31
  -7   4   3    1.02    0.35
  -7   4   3    0.91    0.44
   6  -4  -3   24.23    1.54
   6  -4  -3   22.36    1.62
   6  -4  -3   23.59    1.85
   6  -4  -3   22.86    1.51
  -6   4   3   23.62    1.69
  -6   4   3   23.36    1.58
  -6   4   3   22.31    1.51
   5  -4  -3    7.07    0.67
   5  -4  -3    8.37    0.77
   5  -4  -3    7.57    0.65
   5  -4  -3    8.40    0.78
  -5   4   3    6.77    0.64
  -5   4   3    8.06    0.67
  -5   4   3    7.83    0.74
   4  -4  -3   18.12    1.30
   4  -4  -3   19.27    1.23
   4  -4  -3   18.93    1.29
   4  -4  -3   19.70    1.47
  -4   4   3   18.99    1.26
  -4   4   3   18.15    1.26
  -4   4   3   18.96    1.37
  -4   4   3   20.03    1.29
  -4   4   3   19.70    1.38
   3  -4  -3   91.12    5.23
   3  -4  -3   92.30    5.10
   3  -4  -3   94.29    5.33
  -3   4   3   83.96    6.11
  -3   4   3   83.27    5.44
  -3   4   3   94.13    5.41
  -3   4   3   89.56    5.66
  -3   4   3   89.38    5.31
   2  -4  -3   49.19    3.56
   2  -4  -3   53.98    3.04
   2  -4  -3   53.01    3.11
  -2   4   3   50.42    3.27
  -2   4   3   53.04    3.10
  -2   4   3   47.70    3.54
   1  -4  -3  218.30   14.56
   1  -4  -3  209.49   11.64
  -1   4   3  175.45   14.54
  -1   4   3  190.09   13.50
  -1   4   3  212.80   11.63
  -1   4   3  189.60   12.37
   0  -4  -3    2.50    0.37
   0  -4  -3    2.36    0.36
   0   4   3    2.62    0.39
   0   4   3    2.49    0.34
   0   4   3    2.50    0.30
  -1  -4  -3   85.99    6.30
  -1  -4  -3   97.95    5.98
  -1  -4  -3   82.64    5.05
   1   4   3   80.26    5.51
   1   4   3   86.41    5.05
   1   4   3   73.29    5.14
   1   4   3   87.45    5.88
  -2  -4  -3   29.50    1.95
  -2  -4  -3   27.69    2.40
   2   4   3   33.70    2.17
   2   4   3   30.22    1.94
   2   4   3   34.99    2.31
   2   4   3   28.99    1.93
  -3  -4  -3   15.50    1.16
  -3  -4  -3   13.83    1.41
   3   4   3   18.99    1.41
   3   4   3   15.50    1.15
   3   4   3   16.61    1.14
   3   4   3   19.19    1.32
  -4  -4  -3    9.04    0.99
  -4  -4  -3    8.62    0.79
   4   4   3    9.81    0.79
   4   4   3   10.33    0.98
   4   4   3    9.14    0.79
  -5  -4  -3   19.72    1.34
  -5  -4  -3   17.26    1.71
   5   4   3   20.30    1.40
   5   4   3   20.43    1.61
  -6  -4  -3    8.70    1.10
   6   4   3   10.14    0.91
   6   4   3   11.05    1.12
  -7  -4  -3   -0.14    0.47
   7   4   3    0.14    0.44
   7   4   3    0.18    0.53
   9  -5  -3    5.85    0.86
   9  -5  -3    6.28    0.74
  -9   5   3    5.22    0.71
  -9   5   3    5.52    0.85
   8  -5  -3   -0.36    0.34
   8  -5  -3    1.08    0.51
  -8   5   3    0.08    0.34
  -8   5   3   -0.12    0.45
   7  -5  -3   15.44    1.21
   7  -5  -3   17.15    1.37
  -7   5   3   18.35    1.29
  -7   5   3   15.92    1.22
  -7   5   3   17.94    1.39
   6  -5  -3    6.38    0.63
   6  -5  -3    4.61    0.67
   6  -5  -3    5.97    0.62
  -6   5   3    6.11    0.62
  -6   5   3    6.03    0.71
  -6   5   3    5.80    0.61
   5  -5  -3   32.37    2.16
   5  -5  -3   32.71    2.20
   5  -5  -3   33.15    2.09
  -5   5   3   34.95    2.16
  -5   5   3   34.20    2.32
  -5   5   3   36.27    2.20
   4  -5  -3  131.99    7.43
   4  -5  -3  127.85    7.14
   4  -5  -3  115.54    7.30
  -4   5   3  120.48    8.53
  -4   5   3  127.88    7.41
  -4   5   3  122.19    7.92
  -4   5   3  132.37    7.57
   3  -5  -3   47.74    2.84
   3  -5  -3   48.75    2.89
  -3   5   3   47.44    2.87
  -3   5   3   44.22    3.26
  -3   5   3   45.18    3.04
   2  -5  -3  283.16   19.61
   2  -5  -3  275.94   15.34
   2  -5  -3  283.11   15.67
  -2   5   3  254.39   18.16
  -2   5   3  258.87   16.68
  -2   5   3  247.37   19.58
  -2   5   3  277.28   15.66
   1  -5  -3    0.10    0.22
   1  -5  -3   -0.09    0.22
   1  -5  -3    0.37    0.25
  -1   5   3    0.09    0.20
  -1   5   3    0.12    0.23
  -1   5   3    0.14    0.22
   0  -5  -3  172.55    9.83
   0  -5  -3  163.16   12.26
   0   5   3  165.86   10.39
   0   5   3  175.07    9.82
   0   5   3  158.65   11.39
  -1  -5  -3   22.88    1.96
  -1  -5  -3   23.52    1.63
   1   5   3   25.59    1.62
   1   5   3   27.51    1.91
   1   5   3   22.76    1.55
   1   5   3   25.37    1.66
  -2  -5  -3    8.47    0.75
  -2  -5  -3    7.26    0.84
   2   5   3    7.60    0.86
   2   5   3    7.84    0.64
   2   5   3    9.01    0.81
   2   5   3    8.89    0.73
  -3  -5  -3    2.66    0.50
  -3  -5  -3    2.68    0.45
   3   5   3    2.36    0.44
   3   5   3    3.15    0.53
   3   5   3    2.27    0.35
  -4  -5  -3   17.07    1.74
  -4  -5  -3   19.58    1.43
   4   5   3   21.98    1.63
   4   5   3   22.60    1.44
   4   5   3   20.29    1.43
  -5  -5  -3   10.78    1.22
   5   5   3   12.57    1.02
   5   5   3   13.47    1.18
  -6  -5  -3    1.93    0.61
   6   5   3    2.30    0.54
   6   5   3    2.37    0.61
   7   5   3    4.80    0.70
   7   5   3    3.65    0.78
   9  -6  -3    1.41    0.54
   8  -6  -3   20.16    1.65
   8  -6  -3   19.43    1.47
  -8   6   3   19.90    1.62
  -8   6   3   21.47    1.53
   7  -6  -3    3.45    0.66
   7  -6  -3    4.07    0.58
   7  -6  -3    4.27    0.58
  -7   6   3    2.92    0.49
  -7   6   3    4.43    0.65
  -7   6   3    4.69    0.59
   6  -6  -3   62.20    3.75
   6  -6  -3   62.96    3.92
   6  -6  -3   63.28    3.90
  -6   6   3   62.47    4.15
  -6   6   3   61.23    3.87
  -6   6   3   66.40    3.96
   5  -6  -3   40.30    2.56
   5  -6  -3   37.48    2.52
   5  -6  -3   39.58    2.42
  -5   6   3   43.37    2.58
  -5   6   3   40.89    2.69
  -5   6   3   36.40    2.50
   4  -6  -3   74.36    4.37
   4  -6  -3   75.00    4.22
   4  -6  -3   73.37    4.42
  -4   6   3   73.17    4.40
  -4   6   3   67.84    4.67
   3  -6  -3   78.10    4.59
   3  -6  -3   74.11    5.73
   3  -6  -3   83.28    4.70
  -3   6   3   84.47    4.68
  -3   6   3   75.35    5.35
  -3   6   3   71.66    5.71
  -3   6   3   77.22    4.95
   2  -6  -3   26.76    2.26
   2  -6  -3   31.07    2.24
   2  -6  -3   28.47    1.80
   2  -6  -3   29.09    1.88
  -2   6   3   28.05    2.10
  -2   6   3   26.98    1.92
  -2   6   3   28.40    1.86
   1  -6  -3  111.05    6.80
   1  -6  -3  111.03    6.60
   1  -6  -3  120.18    8.45
  -1   6   3  114.53    7.16
  -1   6   3  115.27    6.79
  -1   6   3  111.54    7.86
   0  -6  -3    0.23    0.28
   0  -6  -3    0.31    0.27
   0  -6  -3    0.03    0.23
   0   6   3    0.25    0.27
   0   6   3    1.07    0.29
   0   6   3    0.22    0.28
  -1  -6  -3   30.26    2.73
  -1  -6  -3   35.11    2.29
   1   6   3   36.54    2.62
   1   6   3   37.49    2.33
   1   6   3   34.15    2.20
   1   6   3   37.29    2.28
  -2  -6  -3    4.71    0.70
  -2  -6  -3    5.96    0.67
   2   6   3    5.99    0.66
   2   6   3    5.59    0.54
   2   6   3    6.14    0.67
  -3  -6  -3   22.20    1.44
  -3  -6  -3   17.81    1.71
   3   6   3   18.68    1.51
   3   6   3   18.04    1.40
   3   6   3   20.26    1.36
  -4  -6  -3   23.90    1.66
  -4  -6  -3   20.03    2.02
   4   6   3   25.96    1.66
   4   6   3   22.95    1.81
   4   6   3   24.51    1.66
  -5  -6  -3    4.46    0.78
   5   6   3    4.10    0.69
   5   6   3    5.39    0.64
   6   6   3    4.52    0.67
   8  -7  -3   -0.31    0.46
   8  -7  -3    0.13    0.41
  -8   7   3   -0.13    0.34
  -8   7   3    0.40    0.48
   7  -7  -3   37.50    2.52
   7  -7  -3   38.66    2.45
   7  -7  -3   35.50    2.34
  -7   7   3   34.47    2.56
  -7   7   3   36.28    2.40
  -7   7   3   37.38    2.46
   6  -7  -3    3.01    0.53
   6  -7  -3    3.92    0.64
   6  -7  -3    3.15    0.56
  -6   7   3    2.42    0.55
  -6   7   3    3.22    0.53
   5  -7  -3  102.10    6.04
   5  -7  -3   99.07    5.84
   5  -7  -3   99.15    6.10
  -5   7   3  102.89    6.09
  -5   7   3  101.64    6.47
   4  -7  -3    1.24    0.41
   4  -7  -3    1.12    0.37
   4  -7  -3    2.10    0.46
  -4   7   3    1.55    0.43
  -4   7   3    2.29    0.43
   3  -7  -3   -0.27    0.30
   3  -7  -3   -0.51    0.29
   3  -7  -3    0.12    0.25
  -3   7   3    0.24    0.30
  -3   7   3    0.62    0.35
   2  -7  -3  103.47    6.36
   2  -7  -3   98.82    6.17
   2  -7  -3  112.58    7.85
   2  -7  -3  117.23    8.07
  -2   7   3   94.92    6.67
  -2   7   3  105.32    6.34
   1  -7  -3    2.89    0.43
   1  -7  -3    2.72    0.51
   1  -7  -3    4.16    0.59
   1  -7  -3    3.52    0.54
  -1   7   3    2.94    0.49
  -1   7   3    2.90    0.45
   0  -7  -3   36.69    2.35
   0  -7  -3   32.49    2.77
   0  -7  -3   33.68    2.15
   0   7   3   38.15    2.33
   0   7   3   35.88    2.37
  -1  -7  -3   11.03    0.83
  -1  -7  -3   10.35    1.12
  -1  -7  -3    9.13    0.99
   1   7   3   13.51    1.02
   1   7   3   12.42    1.02
   1   7   3   10.63    0.82
  -2  -7  -3   33.94    2.28
  -2  -7  -3   28.99    2.70
   2   7   3   35.70    2.27
   2   7   3   34.92    2.18
   2   7   3   35.12    2.39
  -3  -7  -3    0.56    0.42
  -3  -7  -3    0.21    0.40
   3   7   3    1.40    0.32
   3   7   3    0.88    0.43
   3   7   3    0.64    0.40
  -4  -7  -3    6.50    0.95
  -4  -7  -3    7.56    0.85
   4   7   3    9.31    0.90
   8  -8  -3   13.77    1.19
   7  -8  -3    0.47    0.41
   7  -8  -3    0.43    0.48
   7  -8  -3   -0.31    0.41
  -7   8   3   -0.26    0.43
  -7   8   3   -0.32    0.38
   6  -8  -3   11.44    1.04
   6  -8  -3   10.12    0.94
   6  -8  -3   11.03    1.10
  -6   8   3   10.92    1.00
  -6   8   3    9.81    1.00
   5  -8  -3   18.06    1.36
   5  -8  -3   20.44    1.49
   5  -8  -3   20.05    1.49
  -5   8   3   19.11    1.45
  -5   8   3   19.26    1.51
   4  -8  -3    4.67    0.69
   4  -8  -3    4.30    0.66
  -4   8   3    4.99    0.68
  -4   8   3    5.97    0.71
   3  -8  -3   12.07    1.19
   3  -8  -3   11.92    1.04
   3  -8  -3   13.51    1.12
  -3   8   3   12.97    1.08
  -3   8   3   13.69    1.08
   2  -8  -3    1.18    0.39
   2  -8  -3    1.06    0.39
   2  -8  -3    0.91    0.42
   2  -8  -3    1.34    0.40
  -2   8   3    1.45    0.42
  -2   8   3    1.47    0.42
   1  -8  -3   44.52    3.30
   1  -8  -3   35.35    2.48
   1  -8  -3   38.43    3.17
   1  -8  -3   41.71    2.69
  -1   8   3   39.31    2.70
  -1   8   3   44.10    2.67
   0  -8  -3    0.40    0.45
   0  -8  -3    0.01    0.39
   0  -8  -3    0.37    0.32
   0  -8  -3    0.18    0.37
   0   8   3    0.19    0.38
   0   8   3    0.61    0.40
  -1  -8  -3   52.63    3.49
  -1  -8  -3   50.45    4.23
  -1  -8  -3   57.48    4.44
   1   8   3   57.84    3.50
  -2  -8  -3    1.03    0.56
  -2  -8  -3    1.13    0.46
  -2  -8  -3    0.82    0.47
   2   8   3    0.95    0.46
  -3  -8  -3    5.63    0.77
  -3  -8  -3    4.64    0.82
   3   8   3    5.95    0.77
   7  -9  -3    2.06    0.54
  -7   9   3    1.34    0.49
   6  -9  -3   11.99    1.09
   6  -9  -3   11.10    1.17
   6  -9  -3   12.17    1.21
  -6   9   3   12.31    1.13
  -6   9   3   11.41    1.13
   5  -9  -3   13.42    1.17
   5  -9  -3   13.60    1.07
   5  -9  -3   10.97    1.15
  -5   9   3   11.24    1.11
  -5   9   3   12.16    1.12
   4  -9  -3   30.62    2.09
   4  -9  -3   27.52    2.00
  -4   9   3   28.67    2.05
  -4   9   3   29.87    2.11
   3  -9  -3   12.59    1.19
   3  -9  -3   12.34    1.12
  -3   9   3   14.14    1.16
  -3   9   3   14.50    1.19
   2  -9  -3   18.97    1.63
   2  -9  -3   16.12    1.44
   2  -9  -3   15.84    1.32
  -2   9   3   19.18    1.45
  -2   9   3   20.04    1.43
   1  -9  -3   -0.68    0.40
   1  -9  -3    0.25    0.37
   1  -9  -3    0.47    0.41
  -1   9   3   -0.01    0.43
  -1   9   3   -0.14    0.37
   0  -9  -3   20.33    1.64
   0  -9  -3   19.76    1.84
   0  -9  -3   22.44    1.98
   0   9   3   20.88    1.61
  -1  -9  -3   -0.12    0.41
  -1  -9  -3   -0.04    0.50
  -1  -9  -3    0.08    0.44
   1   9   3   -0.10    0.39
  -2  -9  -3    7.69    0.96
  -2  -9  -3    8.23    1.06
   2   9   3    6.70    0.91
  -3  -9  -3    0.00    0.58
  -3  -9  -3    0.47    0.51
   3   9   3   -0.06    0.43
   6 -10  -3    5.89    0.88
   6 -10  -3    5.80    0.78
  -6  10   3    6.96    0.90
   5 -10  -3    9.30    0.96
   5 -10  -3    8.53    1.00
   5 -10  -3    9.42    1.09
  -5  10   3    9.11    1.02
  -5  10   3    9.14    1.04
   4 -10  -3    4.07    0.72
   4 -10  -3    4.67    0.80
  -4  10   3    6.28    0.83
  -4  10   3    5.92    0.78
   3 -10  -3   16.77    1.45
   3 -10  -3   15.18    1.32
  -3  10   3   18.28    1.44
  -3  10   3   16.00    1.37
   2 -10  -3    5.98    0.89
   2 -10  -3    4.83    0.70
  -2  10   3    5.27    0.79
  -2  10   3    6.61    0.84
   1 -10  -3    5.02    0.79
  -1  10   3    6.10    0.83
   0 -10  -3    1.01    0.55
   0 -10  -3    0.48    0.46
   0  10   3    0.25    0.46
  -1 -10  -3    2.76    0.68
  -1 -10  -3    2.26    0.66
  -1 -10  -3    3.84    0.84
   1  10   3    1.88    0.63
  -2 -10  -3    0.56    0.62
   4 -11  -3   10.56    1.14
  -4  11   3   11.46    1.14
   3 -11  -3    0.37    0.49
   0 -11  -3    0.22    0.52
  -1 -11   4    3.32    0.78
   0  11  -4   -0.19    0.80
   0 -11   4    0.65    0.56
  -1  11  -4   24.12    1.99
   1 -11   4   21.44    2.05
  -2  11  -4    1.71    0.75
   2 -11   4    0.52    0.47
  -3  11  -4    2.44    0.82
  -3  11  -4    2.19    0.76
   3 -11   4    2.01    0.59
  -4  11  -4   -0.43    0.63
   2  10  -4    3.14    0.71
   2  10  -4    5.01    0.71
  -2 -10   4    4.68    0.90
  -2 -10   4    5.18    0.81
   1  10  -4   13.91    1.23
   1  10  -4   10.54    1.23
  -1 -10   4   13.42    1.25
  -1 -10   4   13.25    1.45
  -1 -10   4   11.06    1.32
   0  10  -4   15.37    1.53
   0  10  -4   15.85    1.42
   0 -10   4   17.91    1.47
   0 -10   4   18.01    1.73
   0 -10   4   17.31    1.65
  -1  10  -4    2.16    0.72
  -1  10  -4    2.31    0.58
   1 -10   4    1.15    0.54
   1 -10   4    1.86    0.57
   1 -10   4    2.12    0.63
  -2  10  -4   18.33    1.58
  -2  10  -4   21.38    1.82
  -2  10  -4   21.33    1.76
   2 -10   4   19.59    1.61
   2 -10   4   18.64    1.83
   2 -10   4   23.43    1.94
  -3  10  -4    0.41    0.45
  -3  10  -4    0.70    0.60
  -3  10  -4    0.49    0.62
   3 -10   4    0.68    0.43
   3 -10   4    0.65    0.48
  -4  10  -4   15.61    1.33
  -4  10  -4   13.81    1.54
  -4  10  -4   15.71    1.50
   4 -10   4   16.10    1.36
  -5  10  -4    3.59    0.85
  -5  10  -4    2.72    0.63
  -5  10  -4    2.09    0.72
   5 -10   4    3.04    0.59
   5 -10   4    1.88    0.58
  -6  10  -4   10.58    1.15
   6 -10   4   12.20    1.19
   4   9  -4   11.52    1.21
   4   9  -4   13.43    1.21
  -4  -9   4   13.17    1.20
   3   9  -4    1.74    0.60
   3   9  -4    2.38    0.56
   3   9  -4    2.47    0.52
  -3  -9   4    2.12    0.70
  -3  -9   4    1.06    0.59
  -3  -9   4    2.43    0.59
   2   9  -4    5.80    0.81
   2   9  -4    6.16    0.81
   2   9  -4    5.33    0.80
  -2  -9   4    7.18    0.87
  -2  -9   4    5.71    0.86
  -2  -9   4    5.58    0.96
   1   9  -4    8.62    0.95
   1   9  -4    4.95    0.80
   1   9  -4    7.24    0.83
  -1  -9   4    7.15    1.01
  -1  -9   4    6.20    0.90
  -1  -9   4    6.30    0.83
   0   9  -4   16.25    1.46
   0   9  -4   17.24    1.38
   0   9  -4   15.06    1.33
   0  -9   4   16.08    1.62
   0  -9   4   16.55    1.37
   0  -9   4   15.93    1.56
  -1   9  -4    5.35    0.75
  -1   9  -4    4.74    0.83
  -1   9  -4    6.10    0.76
   1  -9   4    5.88    0.84
   1  -9   4    4.98    0.76
   1  -9   4    5.00    0.73
  -2   9  -4   -0.09    0.55
  -2   9  -4    0.63    0.42
  -2   9  -4   -0.25    0.50
   2  -9   4    0.18    0.37
   2  -9   4   -0.15    0.37
   2  -9   4    0.77    0.44
  -3   9  -4   20.27    1.74
  -3   9  -4   20.72    1.75
  -3   9  -4   20.97    1.57
   3  -9   4   19.74    1.57
   3  -9   4   19.27    1.82
   3  -9   4   22.23    1.86
  -4   9  -4    0.19    0.40
  -4   9  -4    0.57    0.58
  -4   9  -4   -0.07    0.52
   4  -9   4    0.15    0.40
  -5   9  -4   18.87    1.46
  -5   9  -4   17.53    1.59
  -5   9  -4   17.75    1.62
   5  -9   4   16.35    1.36
   5  -9   4   19.17    1.46
  -6   9  -4   12.35    1.31
  -6   9  -4   10.91    1.26
  -6   9  -4   10.48    1.07
   6  -9   4    8.75    1.00
   6  -9   4   12.62    1.10
   5   8  -4    9.44    1.01
   5   8  -4    8.67    1.15
   4   8  -4    0.57    0.55
   4   8  -4    1.61    0.49
   4   8  -4    1.13    0.49
  -4  -8   4    1.05    0.46
  -4  -8   4    0.71    0.55
  -4  -8   4    1.76    0.62
   3   8  -4    2.07    0.56
   3   8  -4    1.75    0.57
   3   8  -4    2.38    0.49
  -3  -8   4    2.46    0.56
  -3  -8   4    0.89    0.56
  -3  -8   4    0.93    0.56
   2   8  -4    7.29    0.88
   2   8  -4    7.34    0.86
   2   8  -4    6.70    0.85
  -2  -8   4    6.61    0.93
  -2  -8   4    8.31    1.11
  -2  -8   4    8.92    0.91
   1   8  -4    4.99    0.73
   1   8  -4    7.17    0.87
   1   8  -4    6.15    0.77
   1   8  -4    6.78    0.73
  -1  -8   4    7.46    0.97
  -1  -8   4    6.84    0.88
  -1  -8   4    6.70    0.79
   0   8  -4    1.11    0.45
   0   8  -4    1.23    0.58
   0   8  -4    0.99    0.44
   0  -8   4    1.44    0.46
   0  -8   4    1.02    0.45
   0  -8   4    0.93    0.43
  -1   8  -4   15.25    1.31
  -1   8  -4   14.10    1.38
  -1   8  -4   13.62    1.20
   1  -8   4   16.81    1.47
   1  -8   4   14.17    1.21
   1  -8   4   15.21    1.40
  -2   8  -4   59.78    4.15
  -2   8  -4   58.31    3.82
  -2   8  -4   61.86    4.23
   2  -8   4   56.84    4.69
   2  -8   4   66.20    4.86
   2  -8   4   64.76    3.87
  -3   8  -4   -0.30    0.51
  -3   8  -4   -0.47    0.35
  -3   8  -4   -0.15    0.48
   3  -8   4   -0.26    0.30
   3  -8   4    0.00    0.29
   3  -8   4   -0.07    0.37
  -4   8  -4    8.21    0.98
  -4   8  -4    6.76    0.82
  -4   8  -4    8.70    1.02
   4  -8   4    9.06    0.89
  -5   8  -4   19.51    1.57
  -5   8  -4   17.76    1.57
  -5   8  -4   17.06    1.37
   5  -8   4   17.28    1.38
   5  -8   4   17.15    1.32
  -6   8  -4   30.18    2.46
  -6   8  -4   32.96    2.40
  -6   8  -4   32.84    2.17
   6  -8   4   33.41    2.17
   6  -8   4   30.23    2.14
  -7   8  -4   16.16    1.42
  -7   8  -4   13.09    1.45
   7  -8   4   14.97    1.26
   6   7  -4    4.01    0.85
   5   7  -4    3.42    0.74
   5   7  -4    3.49    0.62
  -5  -7   4    4.40    0.61
  -5  -7   4    3.56    0.72
  -5  -7   4    3.52    0.79
   4   7  -4   34.07    2.24
   4   7  -4   32.78    2.20
   4   7  -4   32.02    2.61
  -4  -7   4   32.81    2.19
  -4  -7   4   27.50    2.81
  -4  -7   4   34.07    2.70
   3   7  -4   13.30    1.28
   3   7  -4   13.75    1.10
   3   7  -4   12.50    1.11
  -3  -7   4   12.94    1.32
  -3  -7   4   13.63    1.10
  -3  -7   4   11.39    1.39
   2   7  -4    3.75    0.60
   2   7  -4    4.25    0.60
   2   7  -4    3.82    0.62
  -2  -7   4    4.29    0.61
  -2  -7   4    4.45    0.75
  -2  -7   4    3.14    0.62
   1   7  -4   16.47    1.28
   1   7  -4   15.89    1.35
   1   7  -4   15.71    1.25
  -1  -7   4   15.92    1.25
  -1  -7   4   15.80    1.56
  -1  -7   4   16.99    1.49
   0   7  -4   12.36    1.10
   0   7  -4   13.38    1.17
   0   7  -4   14.73    1.28
   0  -7   4   13.34    1.12
   0  -7   4   13.11    1.31
   0  -7   4   13.33    1.27
  -1   7  -4  273.16   16.72
  -1   7  -4  293.40   18.59
  -1   7  -4  268.69   17.90
   1  -7   4  309.42   21.61
   1  -7   4  275.24   20.97
   1  -7   4  293.14   16.76
  -2   7  -4   -0.20    0.47
  -2   7  -4    0.28    0.31
  -2   7  -4   -0.01    0.42
   2  -7   4    0.23    0.30
   2  -7   4   -0.12    0.27
   2  -7   4    0.46    0.30
  -3   7  -4   80.22    5.65
  -3   7  -4   82.50    5.25
  -3   7  -4   87.80    5.85
   3  -7   4   87.03    5.28
   3  -7   4   95.07    6.72
  -4   7  -4    4.35    0.62
  -4   7  -4    5.29    0.77
  -4   7  -4    5.61    0.81
   4  -7   4    5.63    0.62
   4  -7   4    4.21    0.61
  -5   7  -4   29.77    2.25
  -5   7  -4   29.99    2.05
  -5   7  -4   30.80    2.33
   5  -7   4   30.26    2.01
   5  -7   4   33.44    2.09
  -6   7  -4    6.88    0.89
  -6   7  -4    6.21    0.89
  -6   7  -4    5.29    0.67
   6  -7   4    6.04    0.73
   6  -7   4    6.52    0.71
  -7   7  -4    0.80    0.62
  -7   7  -4    2.48    0.66
   7  -7   4    1.86    0.56
  -8   7  -4    7.47    1.08
  -8   7  -4    7.99    1.02
   8  -7   4    6.63    0.88
   6   6  -4    1.26    0.59
   6   6  -4    1.20    0.49
  -6  -6   4    1.16    0.62
  -6  -6   4    0.87    0.53
   5   6  -4   23.79    2.09
   5   6  -4   25.34    1.76
   5   6  -4   24.12    1.70
  -5  -6   4   24.93    2.09
  -5  -6   4   23.47    1.66
  -5  -6   4   21.59    2.23
   4   6  -4   15.78    1.29
   4   6  -4   17.41    1.30
   4   6  -4   17.33    1.55
  -4  -6   4   18.25    1.30
  -4  -6   4   17.64    1.57
  -4  -6   4   15.06    1.66
   3   6  -4    3.92    0.53
   3   6  -4    2.55    0.56
   3   6  -4    2.34    0.48
  -3  -6   4    2.49    0.63
  -3  -6   4    3.68    0.51
  -3  -6   4    3.01    0.56
   2   6  -4   34.49    2.26
   2   6  -4   33.97    2.37
   2   6  -4   31.43    2.34
   2   6  -4   36.36    2.64
  -2  -6   4   34.66    2.90
  -2  -6   4   34.39    2.76
  -2  -6   4   36.70    2.27
   1   6  -4  125.85    8.28
   1   6  -4  134.41    8.55
   1   6  -4  131.38    7.46
   1   6  -4  130.62    7.76
  -1  -6   4  135.89    7.77
  -1  -6   4  131.19    9.69
  -1  -6   4  122.55   10.01
   0   6  -4   45.70    3.20
   0   6  -4   49.94    3.24
   0   6  -4   45.38    2.96
   0  -6   4   46.50    2.98
   0  -6   4   49.80    3.79
   0  -6   4   45.79    3.65
  -1   6  -4   17.81    1.38
  -1   6  -4   15.47    1.39
  -1   6  -4   16.02    1.24
   1  -6   4   19.55    1.56
   1  -6   4   16.73    1.48
   1  -6   4   16.94    1.26
  -2   6  -4   80.25    5.37
  -2   6  -4   78.46    4.98
  -2   6  -4   86.72    5.55
   2  -6   4   83.46    5.00
   2  -6   4   89.82    6.39
   2  -6   4   76.71    6.19
  -3   6  -4    4.82    0.59
  -3   6  -4    5.08    0.69
  -3   6  -4    5.00    0.73
   3  -6   4    5.45    0.59
  -4   6  -4  108.69    6.93
  -4   6  -4  106.03    6.45
  -4   6  -4  104.16    7.21
   4  -6   4  110.68    6.46
   4  -6   4  110.43    6.23
  -5   6  -4    1.39    0.51
  -5   6  -4    1.58    0.51
  -5   6  -4    1.20    0.37
   5  -6   4    2.58    0.46
   5  -6   4    2.46    0.42
  -6   6  -4    0.77    0.31
  -6   6  -4    1.09    0.52
  -6   6  -4    0.20    0.50
   6  -6   4    1.52    0.36
   6  -6   4    0.75    0.41
  -7   6  -4   42.64    2.73
  -7   6  -4   35.66    2.85
   7  -6   4   36.75    2.47
  -8   6  -4   -0.33    0.54
  -8   6  -4   -0.19    0.62
   8  -6   4    1.12    0.51
  -9   6  -4    2.42    0.72
   7   5  -4   -0.20    0.47
   7   5  -4   -0.77    0.48
  -7  -5   4   -0.13    0.50
  -7  -5   4   -0.52    0.46
   6   5  -4   24.40    1.72
   6   5  -4   20.47    2.01
  -6  -5   4   19.81    2.16
  -6  -5   4   26.85    2.06
   5   5  -4    4.29    0.59
   5   5  -4    4.43    0.57
   5   5  -4    3.45    0.70
  -5  -5   4    4.33    0.67
  -5  -5   4    4.29    0.53
  -5  -5   4    3.82    0.76
   4   5  -4    0.66    0.32
   4   5  -4    0.67    0.32
   4   5  -4    0.13    0.40
  -4  -5   4    0.70    0.30
  -4  -5   4   -0.01    0.34
  -4  -5   4    0.31    0.37
   3   5  -4   13.07    1.36
   3   5  -4   17.75    1.20
   3   5  -4   15.34    1.15
  -3  -5   4   14.23    1.50
  -3  -5   4   16.55    1.42
  -3  -5   4   15.76    1.13
   2   5  -4  139.97    9.59
   2   5  -4  147.04    8.71
  -2  -5   4  130.35   11.26
  -2  -5   4  149.35    8.71
  -2  -5   4  157.79   10.93
  -2  -5   4  159.97    9.61
   1   5  -4   27.91    2.05
   1   5  -4   29.84    2.08
   1   5  -4   30.17    1.93
   1   5  -4   32.54    1.77
  -1  -5   4   28.78    2.04
  -1  -5   4   25.99    2.44
  -1  -5   4   28.98    1.92
  -1  -5   4   30.73    2.36
   0   5  -4  116.67    7.57
   0   5  -4  113.11    7.06
   0   5  -4  122.67    7.82
   0   5  -4  123.44    6.85
   0  -5   4  115.49    7.06
   0  -5   4  126.48    9.11
   0  -5   4  114.81    8.82
  -1   5  -4  275.98   17.14
  -1   5  -4  251.08   15.39
  -1   5  -4  261.49   16.49
   1  -5   4  273.45   15.41
   1  -5   4  256.08   19.31
  -2   5  -4  103.80    7.20
  -2   5  -4  112.57    6.48
  -2   5  -4  105.42    6.94
   2  -5   4  122.77    8.32
   2  -5   4  103.04    8.07
   2  -5   4  105.21    6.47
  -3   5  -4   74.24    5.20
  -3   5  -4   74.37    5.01
  -3   5  -4   74.28    4.66
   3  -5   4   88.04    4.69
  -4   5  -4   55.59    3.31
  -4   5  -4   53.74    3.73
  -4   5  -4   54.24    3.57
   4  -5   4   48.65    3.19
   4  -5   4   57.75    3.31
  -5   5  -4   24.75    1.64
  -5   5  -4   25.64    1.82
  -5   5  -4   23.64    1.90
   5  -5   4   26.83    1.65
   5  -5   4   22.84    1.62
  -6   5  -4   27.13    2.18
  -6   5  -4   29.53    2.07
  -6   5  -4   29.45    1.84
   6  -5   4   27.48    1.87
   6  -5   4   29.53    1.83
  -7   5  -4   21.59    1.58
  -7   5  -4   19.51    1.70
  -7   5  -4   19.96    1.43
   7  -5   4   19.35    1.46
  -8   5  -4   29.42    2.21
  -8   5  -4   27.36    1.86
  -8   5  -4   27.56    2.02
   8  -5   4   23.81    1.83
  -9   5  -4    0.37    0.65
  -9   5  -4    0.16    0.36
  -9   5  -4   -0.15    0.52
  -8  -4   4    0.34    0.56
  -8  -4   4    0.18    0.54
   7   4  -4    9.08    0.95
   7   4  -4    6.92    1.07
  -7  -4   4    8.91    1.05
  -7  -4   4    7.96    1.17
   6   4  -4    0.18    0.44
   6   4  -4   -0.01    0.37
  -6  -4   4    0.40    0.45
  -6  -4   4    0.34    0.41
   5   4  -4   38.28    2.34
   5   4  -4   34.27    2.88
   5   4  -4   40.49    2.47
  -5  -4   4   37.25    2.31
  -5  -4   4   37.54    2.93
  -5  -4   4   33.01    3.09
   4   4  -4    0.01    0.24
   4   4  -4    0.17    0.27
   4   4  -4   -0.02    0.35
  -4  -4   4    0.35    0.24
  -4  -4   4    0.21    0.33
  -4  -4   4    0.84    0.42
   3   4  -4   13.93    1.09
   3   4  -4   14.48    1.08
   3   4  -4   14.47    1.30
  -3  -4   4   15.79    1.34
  -3  -4   4   13.48    1.41
  -3  -4   4   13.87    1.06
  -3  -4   4   17.52    1.13
  -3  -4   4   15.98    1.09
   2   4  -4   62.83    3.79
   2   4  -4   60.37    4.11
  -2  -4   4   65.79    4.12
  -2  -4   4   63.20    3.78
  -2  -4   4   66.19    4.73
  -2  -4   4   56.29    4.89
   1   4  -4  213.36   12.83
   1   4  -4  240.09   12.51
   1   4  -4  214.65   14.26
   1   4  -4  216.33   13.72
  -1  -4   4  203.84   16.61
  -1  -4   4  229.58   16.12
  -1  -4   4  215.57   14.24
  -1  -4   4  223.39   12.84
   0   4  -4   35.72    2.53
   0   4  -4   38.26    2.57
   0   4  -4   34.75    2.32
   0  -4   4   39.98    2.88
   0  -4   4   40.95    2.99
   0  -4   4   36.53    2.54
   0  -4   4   34.94    2.31
  -1   4  -4   41.28    2.91
  -1   4  -4   38.22    2.62
  -1   4  -4   37.98    2.85
   1  -4   4   44.08    2.63
   1  -4   4   50.69    3.38
   1  -4   4   42.97    3.24
  -2   4  -4  365.66   25.32
  -2   4  -4  393.59   22.71
  -2   4  -4  370.12   24.30
   2  -4   4  430.22   22.72
   2  -4   4  374.25   25.11
   2  -4   4  412.99   29.40
  -3   4  -4   49.92    2.90
  -3   4  -4   45.93    3.24
  -3   4  -4   45.25    3.11
   3  -4   4   52.54    2.89
   3  -4   4   44.67    3.15
   3  -4   4   45.50    2.78
  -4   4  -4   42.30    2.85
  -4   4  -4   42.78    2.99
  -4   4  -4   43.32    2.63
   4  -4   4   46.87    2.63
   4  -4   4   42.76    2.92
   4  -4   4   38.94    2.55
  -5   4  -4   85.32    5.02
  -5   4  -4   84.48    5.70
  -5   4  -4   80.97    5.15
  -5   4  -4   93.40    5.45
   5  -4   4   87.53    5.65
   5  -4   4   79.37    4.92
   5  -4   4   82.61    5.01
  -6   4  -4  111.99    7.22
  -6   4  -4  123.56    7.99
  -6   4  -4  117.41    7.01
  -6   4  -4  127.04    7.61
   6  -4   4  116.34    6.91
   6  -4   4  123.91    7.93
   6  -4   4  119.58    7.01
  -7   4  -4    0.59    0.29
  -7   4  -4    1.18    0.47
  -7   4  -4    0.84    0.54
   7  -4   4    0.88    0.39
  -8   4  -4   -0.73    0.53
  -8   4  -4   -0.57    0.45
  -8   4  -4    0.02    0.30
   8  -4   4    0.30    0.42
  -9   4  -4    5.18    0.91
  -9   4  -4    3.17    0.54
   8   3  -4    9.57    1.05
   8   3  -4    9.10    1.28
  -8  -3   4    9.25    1.31
  -8  -3   4   11.01    1.19
   7   3  -4    5.95    0.75
   7   3  -4    4.44    0.85
  -7  -3   4    6.02    0.80
  -7  -3   4    5.98    0.93
   6   3  -4    3.81    0.68
   6   3  -4    2.53    0.50
  -6  -3   4    2.87    0.35
  -6  -3   4    2.86    0.63
  -6  -3   4    3.10    0.55
   5   3  -4    0.14    0.22
   5   3  -4   -0.03    0.37
   5   3  -4   -0.04    0.28
  -5  -3   4    0.25    0.20
  -5  -3   4   -0.06    0.33
  -5  -3   4    0.34    0.33
   4   3  -4  100.83    5.67
   4   3  -4   95.21    5.90
   4   3  -4   89.68    6.88
  -4  -3   4   98.15    5.65
  -4  -3   4   96.26    7.12
  -4  -3   4   98.23    6.24
  -4  -3   4   89.28    7.40
   3   3  -4   12.64    0.91
   3   3  -4   12.48    0.92
   3   3  -4   11.95    1.12
  -3  -3   4   10.99    1.20
  -3  -3   4   12.92    0.97
  -3  -3   4   13.02    1.12
  -3  -3   4   13.66    0.89
  -3  -3   4   12.96    0.93
   2   3  -4   -0.09    0.20
   2   3  -4    0.15    0.21
  -2  -3   4    0.19    0.21
  -2  -3   4    0.50    0.25
  -2  -3   4    0.27    0.17
  -2  -3   4    0.08    0.17
   1   3  -4  498.10   33.68
   1   3  -4  501.65   32.31
   1   3  -4  526.22   30.24
  -1  -3   4  494.62   33.67
  -1  -3   4  546.80   30.24
  -1  -3   4  504.83   39.17
  -1  -3   4  581.56   38.05
   0   3  -4    1.99    0.34
   0   3  -4    1.81    0.38
   0   3  -4    1.42    0.34
   0   3  -4    1.49    0.29
   0  -3   4    1.62    0.31
   0  -3   4    1.33    0.27
   0  -3   4    2.17    0.30
   0  -3   4    1.53    0.27
  -1   3  -4  456.85   31.14
  -1   3  -4  457.02   29.89
  -1   3  -4  469.55   27.93
  -1   3  -4  451.95   27.36
  -1   3  -4  463.64   27.93
  -1   3  -4  549.50   36.18
   1  -3   4  449.01   30.91
   1  -3   4  521.77   36.17
   1  -3   4  478.19   27.92
   1  -3   4  504.05   35.13
   1  -3   4  500.07   27.93
  -2   3  -4   69.83    4.92
  -2   3  -4   76.57    4.76
  -2   3  -4   75.21    4.42
  -2   3  -4   79.97    4.42
   2  -3   4   76.27    4.41
   2  -3   4   77.41    4.40
   2  -3   4   67.65    4.84
   2  -3   4   71.12    4.46
  -3   3  -4    0.36    0.32
  -3   3  -4    0.59    0.20
  -3   3  -4    0.69    0.33
  -3   3  -4    0.83    0.22
   3  -3   4    0.83    0.22
   3  -3   4    0.24    0.16
   3  -3   4    0.22    0.20
   3  -3   4    0.46    0.19
  -4   3  -4    0.59    0.19
  -4   3  -4    0.84    0.23
  -4   3  -4    1.22    0.35
  -4   3  -4    0.83    0.33
  -4   3  -4    0.37    0.36
  -4   3  -4    1.43    0.23
   4  -3   4    0.77    0.24
   4  -3   4    0.37    0.23
   4  -3   4    0.62    0.20
   4  -3   4    0.25    0.31
  -5   3  -4  127.23    8.19
  -5   3  -4  145.18    7.28
  -5   3  -4  118.09    7.22
  -5   3  -4  133.50    7.81
  -5   3  -4  114.27    8.47
  -5   3  -4  117.76    7.43
   5  -3   4  115.98    8.40
   5  -3   4  126.88    8.16
   5  -3   4  118.69    7.08
   5  -3   4  116.63    7.22
   5  -3   4  129.80    7.27
  -6   3  -4    7.76    0.77
  -6   3  -4    7.24    0.86
  -6   3  -4    7.00    0.64
  -6   3  -4    6.59    0.85
   6  -3   4    7.43    0.88
   6  -3   4    7.00    0.70
  -7   3  -4    3.78    0.50
  -7   3  -4    4.91    0.77
  -7   3  -4    3.83    0.69
  -7   3  -4    5.85    0.67
   7  -3   4    4.78    0.78
   7  -3   4    3.99    0.56
  -8   3  -4   10.52    1.16
  -8   3  -4   10.62    0.96
  -8   3  -4    9.39    0.84
  -8   3  -4    9.07    1.08
   8  -3   4    9.00    0.90
  -9   3  -4    0.36    0.35
  -9   3  -4   -0.42    0.61
  -9   3  -4   -0.16    0.46
  -9  -2   4    7.33    1.11
   8   2  -4    0.38    0.45
   8   2  -4   -0.21    0.56
  -8  -2   4    0.21    0.44
  -8  -2   4    0.26    0.47
   7   2  -4   22.76    1.55
   7   2  -4   17.49    1.83
  -7  -2   4   18.30    1.91
  -7  -2   4   22.76    1.79
   6   2  -4    1.36    0.39
   6   2  -4    1.36    0.52
   6   2  -4    1.88    0.27
  -6  -2   4    1.62    0.25
  -6  -2   4    1.56    0.48
  -6  -2   4    1.71    0.41
   5   2  -4   75.59    6.12
   5   2  -4   85.70    5.25
   5   2  -4   91.86    4.99
   5   2  -4   85.84    4.88
  -5  -2   4   86.62    6.30
  -5  -2   4   76.30    6.56
  -5  -2   4   87.00    4.98
   4   2  -4   54.41    3.24
   4   2  -4   59.48    3.35
   4   2  -4   57.45    4.13
   4   2  -4   56.13    3.50
  -4  -2   4   58.76    3.69
  -4  -2   4   52.23    4.20
  -4  -2   4   52.90    4.41
  -4  -2   4   55.63    3.33
   3   2  -4   31.75    1.99
   3   2  -4   32.80    1.96
   3   2  -4   31.55    2.03
   3   2  -4   31.13    2.41
  -3  -2   4   30.84    1.94
  -3  -2   4   31.20    2.13
  -3  -2   4   28.63    2.57
  -3  -2   4   34.34    2.46
  -3  -2   4   34.35    1.99
   2   2  -4  223.93   13.78
   2   2  -4  262.24   13.79
   2   2  -4  242.06   15.32
  -2  -2   4  226.72   17.87
  -2  -2   4  231.54   15.32
  -2  -2   4  220.90   17.32
  -2  -2   4  242.62   13.77
  -2  -2   4  246.03   13.79
   1   2  -4   45.40    3.92
   1   2  -4   53.46    3.79
   1   2  -4   50.76    3.03
   1   2  -4   55.96    3.04
   1   2  -4   48.37    3.34
  -1  -2   4   56.22    3.78
  -1  -2   4   44.67    3.90
  -1  -2   4   46.60    3.22
  -1  -2   4   47.37    3.33
  -1  -2   4   50.46    3.02
  -1  -2   4   57.89    3.05
   0  -2   4  803.99   49.71
  -1   2  -4   27.69    1.87
  -1   2  -4   31.28    2.12
  -1   2  -4   30.89    1.89
  -1   2  -4   32.99    2.43
  -1   2  -4   29.26    2.34
  -1   2  -4   33.02    2.06
   1  -2   4   29.44    1.88
   1  -2   4   33.88    2.17
   1  -2   4   32.81    2.11
   1  -2   4   30.11    2.04
   1  -2   4   27.74    1.87
  -2   2  -4  345.30   27.01
  -2   2  -4  341.63   24.17
  -2   2  -4  365.97   23.28
  -2   2  -4  373.87   20.84
  -2   2  -4  359.53   22.32
  -2   2  -4  401.39   20.86
   2  -2   4  354.27   20.83
   2  -2   4  356.99   20.84
   2  -2   4  374.76   22.30
   2  -2   4  359.26   23.13
   2  -2   4  345.41   20.13
   2  -2   4  338.88   21.29
  -3   2  -4    0.61    0.25
  -3   2  -4    0.46    0.18
  -3   2  -4   -0.02    0.24
  -3   2  -4    0.45    0.17
  -3   2  -4    0.15    0.13
  -3   2  -4    1.99    0.37
   3  -2   4    0.35    0.22
   3  -2   4    0.44    0.17
   3  -2   4    0.26    0.16
   3  -2   4    0.65    0.29
   3  -2   4    0.24    0.15
   3  -2   4    0.50    0.15
  -4   2  -4   19.79    1.63
  -4   2  -4   22.01    1.37
  -4   2  -4   22.46    1.37
  -4   2  -4   20.40    1.32
  -4   2  -4   24.93    1.63
  -4   2  -4   25.23    1.51
   4  -2   4   22.51    1.36
   4  -2   4   21.48    1.55
   4  -2   4   18.90    1.35
   4  -2   4   19.28    1.32
   4  -2   4   20.92    1.59
  -5   2  -4   12.77    0.82
  -5   2  -4   11.67    0.83
  -5   2  -4    9.27    1.04
  -5   2  -4   13.41    0.94
  -5   2  -4   11.85    0.75
  -5   2  -4   12.59    1.07
   5  -2   4   11.67    0.86
   5  -2   4   13.06    0.94
   5  -2   4   10.21    0.75
   5  -2   4   11.31    1.05
   5  -2   4   11.50    0.82
  -6   2  -4    0.43    0.42
  -6   2  -4    0.56    0.35
  -6   2  -4    0.69    0.38
  -6   2  -4    0.73    0.26
   6  -2   4    1.39    0.50
   6  -2   4    1.00    0.27
   6  -2   4    0.46    0.32
  -7   2  -4   30.99    2.03
  -7   2  -4   36.87    2.38
  -7   2  -4   27.11    2.37
  -7   2  -4   34.14    2.16
   7  -2   4   30.95    2.39
   7  -2   4   28.27    1.98
  -8   2  -4    2.96    0.63
  -8   2  -4    4.49    0.73
  -8   2  -4    2.36    0.45
   8  -2   4    2.31    0.51
   8  -2   4    3.01    0.71
  -9   2  -4    2.92    0.65
  -9   2  -4    2.53    0.63
   8   1  -4    7.49    0.89
   8   1  -4    8.09    1.13
  -8  -1   4    9.17    1.12
   7   1  -4    1.33    0.42
   7   1  -4    0.68    0.51
  -7  -1   4    1.01    0.38
  -7  -1   4    1.10    0.46
   6   1  -4   31.22    2.10
   6   1  -4   27.64    2.48
   6   1  -4   34.55    1.96
  -6  -1   4   30.06    1.89
  -6  -1   4   30.76    2.62
  -6  -1   4   32.91    2.46
   5   1  -4    1.04    0.40
   5   1  -4    0.96    0.22
   5   1  -4    1.08    0.30
   5   1  -4    1.00    0.26
   5   1  -4    0.94    0.25
  -5  -1   4    1.61    0.39
  -5  -1   4    1.17    0.21
  -5  -1   4    1.47    0.25
  -5  -1   4    1.21    0.31
   4   1  -4  282.43   18.95
   4   1  -4  262.94   15.69
   4   1  -4  273.89   15.06
   4   1  -4  261.02   15.07
   4   1  -4  233.13   18.22
   4   1  -4  246.70   14.76
  -4  -1   4  254.09   15.04
  -4  -1   4  273.47   18.95
  -4  -1   4  236.79   19.56
  -4  -1   4  266.95   15.06
   3   1  -4  290.31   21.19
   3   1  -4  281.60   17.52
   3   1  -4  278.46   20.36
   3   1  -4  293.33   16.85
   3   1  -4  293.52   16.85
  -3  -1   4  320.19   16.86
  -3  -1   4  303.09   21.19
  -3  -1   4  267.37   21.86
  -3  -1   4  288.84   16.26
  -3  -1   4  286.43   16.84
  -3  -1   4  290.76   18.76
   2   1  -4  346.70   26.96
   2   1  -4  411.75   21.44
   2   1  -4  352.98   27.80
   2   1  -4  399.02   21.44
  -2  -1   4  359.12   23.88
  -2  -1   4  388.36   21.43
  -2  -1   4  350.96   26.96
  -2  -1   4  351.69   27.78
   1   1  -4  332.48   25.31
   1   1  -4  352.88   19.53
   1   1  -4  311.37   24.55
   1   1  -4  356.09   19.52
   1   1  -4  330.51   21.75
  -1  -1   4  377.39   19.53
  -1  -1   4  309.57   25.29
  -1  -1   4  329.28   21.75
  -1  -1   4  317.64   20.85
  -1  -1   4  349.81   24.55
  -1  -1   4  340.27   19.52
   0   1  -4  339.67   20.41
   0   1  -4  323.70   23.01
   0   1  -4  279.77   23.70
   0   1  -4  299.80   18.30
   0   1  -4  309.28   18.29
   0   1  -4  345.49   19.55
   0  -1   4  343.68   20.40
   0  -1   4  316.11   21.19
   0  -1   4  284.00   23.70
   0  -1   4  338.35   19.56
   0  -1   4  286.64   18.29
   0  -1   4  319.79   18.30
  -1   1  -4  170.32   13.25
  -1   1  -4  190.26   10.94
  -1   1  -4  178.27   10.23
  -1   1  -4  180.47   10.22
  -1   1  -4  188.25   11.42
  -1   1  -4  173.26   11.85
   1  -1   4  167.83    9.85
   1  -1   4  179.79   11.41
   1  -1   4  174.19   11.85
   1  -1   4  164.58   10.22
   1  -1   4  178.11   10.95
   1  -1   4  165.63   10.21
  -2   1  -4   10.17    0.76
  -2   1  -4    9.50    0.67
  -2   1  -4   10.24    0.67
  -2   1  -4    7.95    0.62
  -2   1  -4    9.57    0.82
  -2   1  -4    9.77    0.80
  -2   1  -4    9.98    0.64
   2  -1   4    9.37    0.67
   2  -1   4   10.11    0.64
   2  -1   4   10.06    0.66
   2  -1   4   10.77    0.82
   2  -1   4    9.64    0.81
   2  -1   4   10.52    0.73
  -3   1  -4   89.64    5.21
  -3   1  -4   90.21    5.98
  -3   1  -4   85.80    5.10
  -3   1  -4   89.95    5.75
  -3   1  -4   76.77    5.10
  -3   1  -4  101.93    5.50
   3  -1   4   83.49    5.11
   3  -1   4   75.38    5.73
   3  -1   4   88.67    4.97
   3  -1   4   99.60    5.47
   3  -1   4   87.63    5.95
   3  -1   4   78.68    5.09
  -4   1  -4   54.57    3.84
  -4   1  -4   51.00    3.68
  -4   1  -4   54.12    3.22
  -4   1  -4   59.05    3.32
  -4   1  -4   63.78    3.50
  -4   1  -4   48.30    3.22
   4  -1   4   51.02    3.70
   4  -1   4   53.61    3.23
   4  -1   4   52.59    3.21
   4  -1   4   54.31    3.18
   4  -1   4   59.72    3.80
  -5   1  -4   13.46    1.12
  -5   1  -4   12.68    1.16
  -5   1  -4   13.46    0.95
   5  -1   4   15.20    1.09
   5  -1   4   13.11    0.95
   5  -1   4   13.21    1.17
  -6   1  -4   55.30    4.22
  -6   1  -4   61.90    4.06
  -6   1  -4   69.61    3.84
  -6   1  -4   57.87    3.66
   6  -1   4   54.92    4.11
   6  -1   4   60.49    4.15
   6  -1   4   55.21    3.51
  -7   1  -4    9.47    0.96
  -7   1  -4    7.42    0.96
  -7   1  -4    8.72    0.76
   7  -1   4    9.69    1.09
  -8   1  -4   12.81    0.99
  -8   1  -4   10.28    1.19
   8  -1   4   12.90    1.38
  -9   1  -4    0.11    0.45
  -9   1  -4    0.01    0.47
   9   0  -4    1.96    0.58
   9   0  -4    2.48    0.79
  -9   0   4    2.57    0.54
   8   0  -4    4.24    0.64
   8   0  -4    4.21    0.79
  -8   0   4    3.30    0.63
   7   0  -4   16.77    1.70
   7   0  -4   19.70    1.36
   7   0  -4   20.57    1.45
  -7   0   4   18.48    1.75
  -7   0   4   21.64    1.64
   6   0  -4    0.68    0.18
   6   0  -4    1.24    0.34
   6   0  -4    0.61    0.28
   6   0  -4    0.85    0.43
  -6   0   4    0.72    0.28
  -6   0   4    0.72    0.31
   5   0  -4   39.07    3.18
   5   0  -4   41.90    2.58
   5   0  -4   42.96    2.72
   5   0  -4   42.94    2.58
   5   0  -4   43.89    2.56
  -5   0   4   46.44    3.22
  -5   0   4   43.31    2.54
  -5   0   4   43.36    2.57
  -5   0   4   38.55    3.37
   4   0  -4   37.41    2.38
   4   0  -4   37.22    2.27
   4   0  -4   34.98    2.81
   4   0  -4   38.06    2.82
   4   0  -4   37.58    2.28
   4   0  -4   40.23    2.28
  -4   0   4   38.20    2.84
  -4   0   4   41.56    2.28
  -4   0   4   37.50    2.26
  -4   0   4   33.81    2.97
   3   0  -4  167.76   10.04
   3   0  -4  148.31   12.53
   3   0  -4  177.61    9.66
   3   0  -4  175.57    9.66
   3   0  -4  176.25   12.12
   3   0  -4  155.77   11.68
  -3   0   4  169.75    9.65
  -3   0   4  178.94    9.66
  -3   0   4  154.57   12.12
  -3   0   4  169.83    9.32
  -3   0   4  150.77   12.52
   2   0  -4  438.69   22.43
   2   0  -4  366.43   29.04
   2   0  -4  394.49   23.29
   2   0  -4  332.07   28.17
   2   0  -4  384.56   22.40
  -2   0   4  421.17   22.41
  -2   0   4  410.01   22.41
  -2   0   4  374.07   28.16
  -2   0   4  390.61   24.98
  -2   0   4  360.18   29.02
   1   0  -4   12.52    0.85
   1   0  -4   12.72    0.87
   1   0  -4   12.52    1.03
   1   0  -4   12.63    1.11
   1   0  -4   13.22    0.93
  -1   0   4   14.54    0.94
  -1   0   4   13.87    0.86
  -1   0   4   13.62    0.94
  -1   0   4   11.47    1.09
  -1   0   4   12.95    0.85
   0   0  -4  217.38   18.80
   0   0  -4  244.46   14.52
   0   0  -4  275.23   16.18
   0   0  -4  252.50   16.81
   0   0  -4  234.51   14.51
   0   0   4  275.58   15.50
   0   0   4  221.83   14.51
   0   0   4  277.10   16.19
   0   0   4  253.68   14.52
  -1   0  -4    0.06    0.17
  -1   0  -4    0.26    0.15
  -1   0  -4    0.45    0.11
  -1   0  -4    0.46    0.15
  -1   0  -4    0.15    0.18
   1   0   4    0.34    0.15
   1   0   4    0.33    0.11
   1   0   4    0.94    0.20
   1   0   4    0.06    0.17
   1   0   4    0.46    0.15
  -2   0  -4  433.17   23.82
  -2   0  -4  361.93   26.58
  -2   0  -4  443.91   23.01
  -2   0  -4  422.57   23.81
  -2   0  -4  412.64   24.79
   2   0   4  414.14   23.81
   2   0   4  412.13   23.01
   2   0   4  416.99   27.74
   2   0   4  356.54   26.58
   2   0   4  439.82   23.82
  -3   0  -4   69.49    4.25
  -3   0  -4   71.28    4.25
  -3   0  -4   69.97    4.77
  -3   0  -4   78.28    4.34
   3   0   4   76.72    4.98
   3   0   4   71.75    4.25
   3   0   4   75.65    4.24
   3   0   4   63.21    4.79
   3   0   4   76.87    4.14
   3   0   4   69.53    4.81
  -4   0  -4   67.14    4.09
  -4   0  -4   64.65    4.50
  -4   0  -4   71.91    3.98
  -4   0  -4   63.43    3.97
   4   0   4   67.93    4.57
   4   0   4   67.27    3.98
   4   0   4   74.78    4.70
   4   0   4   67.67    3.91
   4   0   4   66.34    3.98
  -5   0  -4   59.82    3.76
  -5   0  -4   55.32    3.41
  -5   0  -4   54.64    3.96
   5   0   4   51.78    3.83
   5   0   4   56.29    3.91
  -6   0  -4   16.37    1.55
  -6   0  -4   21.81    1.49
  -6   0  -4   17.42    1.30
   6   0   4   20.56    1.52
   6   0   4   18.90    1.59
  -7   0  -4    9.16    0.90
  -7   0  -4    6.94    0.96
  -7   0  -4    7.49    0.94
  -7   0  -4    9.76    0.77
   7   0   4    8.00    1.04
  -8   0  -4    0.12    0.41
  -8   0  -4    0.96    0.35
  -8   0  -4    0.52    0.47
   8   0   4    0.57    0.57
   9  -1  -4    0.12    0.59
   9  -1  -4    0.78    0.46
  -9   1   4   -0.39    0.33
   8  -1  -4    7.45    1.01
   8  -1  -4    6.45    0.74
   8  -1  -4    8.70    0.86
  -8   1   4    5.82    0.73
   7  -1  -4    0.17    0.34
   7  -1  -4    0.63    0.33
   7  -1  -4    1.11    0.49
  -7   1   4    0.27    0.30
  -7   1   4    0.29    0.28
   6  -1  -4   64.86    3.73
   6  -1  -4   53.62    3.49
   6  -1  -4   62.91    4.38
   6  -1  -4   59.01    3.55
  -6   1   4   55.15    3.48
  -6   1   4   64.92    3.69
  -6   1   4   55.09    4.58
   5  -1  -4    9.32    0.73
   5  -1  -4    9.69    0.98
   5  -1  -4   11.35    0.74
   5  -1  -4   10.90    0.82
   5  -1  -4   10.64    0.83
  -5   1   4   10.67    0.71
  -5   1   4    9.53    0.95
  -5   1   4   11.03    0.72
   4  -1  -4  191.27   11.44
   4  -1  -4  189.23   14.05
   4  -1  -4  208.14   11.62
   4  -1  -4  205.66   12.11
   4  -1  -4  206.29   11.63
  -4   1   4  200.72   11.61
  -4   1   4  209.15   11.62
  -4   1   4  187.88   15.05
   3  -1  -4  239.18   19.36
   3  -1  -4  251.61   15.54
   3  -1  -4  275.07   14.96
   3  -1  -4  264.69   14.94
   3  -1  -4  237.36   18.03
   3  -1  -4  261.38   14.42
  -3   1   4  241.94   19.34
  -3   1   4  283.92   14.95
  -3   1   4  267.90   14.42
  -3   1   4  253.07   14.94
   2  -1  -4   72.53    4.23
   2  -1  -4   72.29    4.56
   2  -1  -4   81.46    4.44
   2  -1  -4   75.31    4.42
   2  -1  -4   75.43    5.72
  -2   1   4   77.49    4.42
  -2   1   4   68.30    5.69
  -2   1   4   76.53    4.42
  -2   1   4   73.05    4.51
  -2   1   4   77.67    4.23
   1  -1  -4   90.28    5.58
   1  -1  -4   92.10    7.22
   1  -1  -4   99.21    5.60
  -1   1   4   94.37    5.68
  -1   1   4   99.24    5.59
  -1   1   4  100.11    6.21
  -1   1   4   92.75    5.58
   0  -1  -4    6.36    0.50
   0  -1  -4    7.44    0.54
   0  -1  -4    6.72    0.46
   0  -1  -4    8.64    0.56
   0   1   4    7.43    0.56
   0   1   4    6.99    0.51
   0   1   4    6.65    0.51
   0   1   4    6.30    0.60
  -1  -1  -4  227.06   11.09
  -1  -1  -4  204.07   11.52
  -1  -1  -4  216.84   11.51
  -1  -1  -4  182.77   11.94
  -1  -1  -4  180.92   12.81
   1   1   4  189.48   11.50
   1   1   4  225.94   11.51
   1   1   4  180.43   12.82
   1   1   4  175.78   13.40
  -2  -1  -4   11.27    0.78
  -2  -1  -4   12.22    0.76
  -2  -1  -4    8.86    0.83
  -2  -1  -4   11.38    0.77
  -2  -1  -4   12.94    0.74
   2   1   4   10.79    0.91
   2   1   4   11.22    0.75
   2   1   4   12.20    0.77
   2   1   4   10.82    0.86
  -3  -1  -4  180.09   13.05
  -3  -1  -4  206.90   11.70
  -3  -1  -4  218.83   11.72
   3   1   4  206.04   13.67
   3   1   4  215.27   11.71
   3   1   4  184.17   11.70
   3   1   4  200.05   13.08
  -4  -1  -4   25.97    1.46
  -4  -1  -4   22.82    1.64
  -4  -1  -4   23.25    1.44
   4   1   4   21.17    1.75
   4   1   4   21.94    1.45
   4   1   4   23.71    1.44
   4   1   4   24.17    1.76
  -5  -1  -4   54.53    3.19
  -5  -1  -4   53.32    3.60
   5   1   4   54.69    3.74
   5   1   4   52.16    3.81
   5   1   4   54.44    3.19
  -6  -1  -4    9.20    1.05
  -6  -1  -4   10.13    0.89
   6   1   4    9.94    1.11
   6   1   4   11.71    1.00
  -7  -1  -4    0.76    0.45
   7   1   4    1.28    0.59
  -8  -1  -4    6.62    0.89
  -8  -1  -4    4.64    0.79
   8   1   4    7.18    1.03
   9  -2  -4   23.67    1.74
   9  -2  -4   24.45    2.15
  -9   2   4   22.77    1.72
   8  -2  -4    1.78    0.62
   8  -2  -4    1.39    0.47
  -8   2   4    1.66    0.43
   7  -2  -4   33.54    2.16
   7  -2  -4   30.63    2.53
   7  -2  -4   29.49    2.08
  -7   2   4   32.08    2.56
  -7   2   4   32.79    2.12
   6  -2  -4   14.10    1.05
   6  -2  -4   14.34    1.02
   6  -2  -4   12.53    0.93
   6  -2  -4   13.15    0.90
   6  -2  -4   11.79    1.19
  -6   2   4   13.19    1.00
  -6   2   4   12.87    0.89
  -6   2   4   12.86    1.13
   5  -2  -4   93.94    5.63
   5  -2  -4   97.14    5.48
   5  -2  -4   99.39    5.91
   5  -2  -4   93.13    5.66
   5  -2  -4   96.82    6.87
  -5   2   4   97.41    5.65
  -5   2   4   99.88    5.83
  -5   2   4   91.27    7.27
   4  -2  -4   13.71    0.87
   4  -2  -4   14.03    0.91
   4  -2  -4   13.24    0.93
   4  -2  -4   13.27    1.10
   4  -2  -4   13.04    0.95
  -4   2   4   13.73    0.89
  -4   2   4   12.58    1.08
  -4   2   4   12.70    0.93
   3  -2  -4   89.11    4.85
   3  -2  -4   83.51    4.64
   3  -2  -4   79.80    4.99
   3  -2  -4   84.56    5.81
   3  -2  -4   73.92    6.21
  -3   2   4   84.23    4.95
  -3   2   4   84.32    4.83
  -3   2   4   77.87    4.97
   2  -2  -4   37.28    2.73
   2  -2  -4   36.89    2.16
   2  -2  -4   32.99    2.13
   2  -2  -4   35.77    2.02
  -2   2   4   33.61    2.46
  -2   2   4   35.78    2.14
  -2   2   4   34.69    2.14
  -2   2   4   35.77    2.17
   1  -2  -4    3.01    0.28
   1  -2  -4    2.92    0.31
   1  -2  -4    3.01    0.34
  -1   2   4    3.55    0.38
  -1   2   4    3.56    0.33
  -1   2   4    3.30    0.30
  -1   2   4    3.34    0.33
   0  -2  -4  125.82    7.71
   0  -2  -4  122.68    7.85
   0  -2  -4  140.62    7.74
   0   2   4  133.19    7.72
   0   2   4  133.38    8.57
   0   2   4  133.29    8.99
   0   2   4  137.33    7.72
  -1  -2  -4    0.00    0.11
  -1  -2  -4    0.16    0.15
  -1  -2  -4    0.28    0.17
   1   2   4    0.16    0.14
   1   2   4    0.05    0.14
   1   2   4    0.02    0.18
   1   2   4    0.08    0.20
  -2  -2  -4  264.51   17.06
  -2  -2  -4  322.16   17.06
  -2  -2  -4  329.41   16.48
  -2  -2  -4  278.44   18.99
  -2  -2  -4  302.50   17.73
   2   2   4  280.79   19.01
   2   2   4  275.17   17.06
   2   2   4  306.36   17.06
   2   2   4  287.79   19.89
  -3  -2  -4    1.75    0.24
  -3  -2  -4    0.90    0.22
  -3  -2  -4    0.82    0.21
   3   2   4    0.65    0.24
   3   2   4    0.99    0.38
   3   2   4    1.27    0.33
   3   2   4    1.07    0.20
   3   2   4    1.13    0.23
  -4  -2  -4   33.25    1.92
  -4  -2  -4   25.84    2.48
  -4  -2  -4   31.26    1.95
   4   2   4   32.00    1.95
   4   2   4   32.82    1.92
   4   2   4   34.21    2.30
   4   2   4   31.51    2.34
  -5  -2  -4    7.41    0.95
  -5  -2  -4   10.09    0.69
   5   2   4    9.09    0.70
   5   2   4    9.74    0.93
   5   2   4    9.39    1.01
  -6  -2  -4    1.13    0.44
   6   2   4    1.16    0.51
  -7  -2  -4    3.27    0.67
   7   2   4    4.71    0.82
   8   2   4    2.32    0.73
   9  -3  -4    3.64    0.67
   9  -3  -4    5.17    0.85
  -9   3   4    2.56    0.56
  -9   3   4    3.61    0.72
   8  -3  -4   24.90    2.10
   8  -3  -4   24.38    1.79
  -8   3   4   24.13    1.73
   7  -3  -4   -0.32    0.32
   7  -3  -4    0.09    0.41
   7  -3  -4   -0.10    0.29
  -7   3   4    0.25    0.30
   6  -3  -4   31.63    1.99
   6  -3  -4   35.33    2.48
   6  -3  -4   31.32    1.96
   6  -3  -4   30.52    2.08
  -6   3   4   33.00    2.09
  -6   3   4   29.48    1.97
   5  -3  -4   10.67    0.83
   5  -3  -4   12.01    1.02
   5  -3  -4   12.03    0.82
   5  -3  -4   11.14    0.91
  -5   3   4   10.53    0.80
  -5   3   4   11.99    0.87
   4  -3  -4    9.23    0.67
   4  -3  -4    9.11    0.70
   4  -3  -4    8.20    0.73
   4  -3  -4    9.73    0.81
  -4   3   4    8.42    0.65
  -4   3   4    9.04    0.67
  -4   3   4    8.99    0.71
  -4   3   4    9.36    0.70
   3  -3  -4  248.44   13.52
   3  -3  -4  246.08   16.23
   3  -3  -4  222.19   13.26
   3  -3  -4  238.58   13.01
  -3   3   4  210.92   15.66
  -3   3   4  240.23   13.50
  -3   3   4  242.40   13.80
  -3   3   4  208.03   13.97
   2  -3  -4   32.11    1.82
   2  -3  -4   33.83    1.98
  -2   3   4   30.68    1.94
  -2   3   4   27.60    2.22
  -2   3   4   33.75    1.96
   1  -3  -4  137.91    9.20
   1  -3  -4  159.12    9.06
   1  -3  -4  165.15   11.31
  -1   3   4  165.96    9.05
  -1   3   4  145.89   10.49
   0  -3  -4   17.52    1.22
   0  -3  -4   15.38    1.01
   0  -3  -4   12.40    0.95
   0   3   4   16.19    1.00
   0   3   4   14.14    1.04
   0   3   4   14.15    0.98
   0   3   4   14.18    1.14
  -1  -3  -4   12.29    0.88
  -1  -3  -4    9.75    0.77
  -1  -3  -4   11.51    0.96
   1   3   4   11.19    0.90
   1   3   4    8.65    0.74
   1   3   4    9.58    0.78
  -2  -3  -4    6.99    0.54
  -2  -3  -4    6.32    0.59
  -2  -3  -4    8.25    0.78
   2   3   4    7.31    0.58
   2   3   4    6.56    0.53
   2   3   4    6.74    0.71
   2   3   4    6.87    0.60
  -3  -3  -4   27.03    2.32
  -3  -3  -4   29.60    1.84
   3   3   4   29.66    1.87
   3   3   4   31.27    2.12
   3   3   4   29.33    1.83
   3   3   4   27.20    2.17
  -4  -3  -4   12.14    1.32
  -4  -3  -4   15.01    1.04
   4   3   4   15.73    1.04
   4   3   4   14.69    1.06
   4   3   4   15.67    1.28
   4   3   4   16.01    1.30
  -5  -3  -4    8.83    1.07
  -5  -3  -4   10.74    0.82
   5   3   4   10.15    0.86
   5   3   4   11.65    0.83
   5   3   4   11.87    1.07
   5   3   4   11.11    1.10
  -6  -3  -4    7.16    0.95
   6   3   4    8.95    1.01
  -7  -3  -4    0.42    0.43
   7   3   4    1.03    0.60
   9  -4  -4    5.33    0.81
  -9   4   4    5.04    0.68
  -9   4   4    5.34    0.83
   8  -4  -4    0.80    0.53
   8  -4  -4    2.04    0.46
   8  -4  -4    1.48    0.51
  -8   4   4    1.70    0.55
  -8   4   4    1.54    0.44
   7  -4  -4   70.07    5.32
   7  -4  -4   71.27    4.45
   7  -4  -4   73.22    4.28
  -7   4   4   76.60    4.54
  -7   4   4   68.82    4.37
  -7   4   4   77.44    4.78
   6  -4  -4    0.05    0.32
   6  -4  -4    0.01    0.23
   6  -4  -4   -0.05    0.25
   6  -4  -4   -0.36    0.32
  -6   4   4   -0.14    0.23
  -6   4   4   -0.23    0.21
   5  -4  -4    4.57    0.49
   5  -4  -4    4.07    0.56
   5  -4  -4    4.60    0.58
   5  -4  -4    4.29    0.49
  -5   4   4    4.72    0.49
  -5   4   4    5.29    0.46
  -5   4   4    5.35    0.53
   4  -4  -4  205.21   13.86
   4  -4  -4  200.93   11.57
   4  -4  -4  206.71   11.13
   4  -4  -4  189.83   11.37
  -4   4   4  185.91   13.35
  -4   4   4  200.26   11.55
  -4   4   4  211.28   11.81
  -4   4   4  181.00   11.93
   3  -4  -4   32.63    2.16
   3  -4  -4   35.44    2.08
   3  -4  -4   37.18    2.22
  -3   4   4   37.47    2.21
  -3   4   4   32.90    2.48
  -3   4   4   36.79    2.22
   2  -4  -4  183.31   10.09
  -2   4   4  165.43   10.72
  -2   4   4  179.54   10.08
  -2   4   4  160.54   11.66
   1  -4  -4    1.15    0.26
   1  -4  -4    1.51    0.30
  -1   4   4    1.44    0.26
  -1   4   4    1.02    0.28
  -1   4   4    1.41    0.26
   0  -4  -4  231.00   15.60
   0  -4  -4  210.08   12.45
   0   4   4  213.98   12.43
   0   4   4  207.03   13.20
   0   4   4  201.93   14.45
  -1  -4  -4    1.77    0.29
  -1  -4  -4    1.94    0.37
  -1  -4  -4    1.63    0.33
   1   4   4    1.65    0.25
   1   4   4    1.76    0.37
   1   4   4    1.85    0.32
  -2  -4  -4   46.78    3.86
  -2  -4  -4   47.24    3.09
   2   4   4   53.15    3.11
   2   4   4   55.94    3.65
  -3  -4  -4   39.46    2.55
  -3  -4  -4   35.54    3.19
   3   4   4   41.82    2.55
   3   4   4   43.94    3.03
   3   4   4   43.30    2.87
   3   4   4   41.75    2.59
  -4  -4  -4   28.60    1.87
  -4  -4  -4   24.43    2.33
   4   4   4   29.79    1.88
   4   4   4   29.93    2.14
   4   4   4   28.99    2.24
   4   4   4   30.66    1.91
  -5  -4  -4    4.17    0.72
   5   4   4    6.26    0.64
   5   4   4    6.46    0.81
  -6  -4  -4    1.73    0.52
   6   4   4    1.50    0.54
   7   4   4    6.36    0.97
   9  -5  -4    0.36    0.43
   9  -5  -4   -0.11    0.49
   8  -5  -4   15.73    1.27
   8  -5  -4   18.26    1.46
  -8   5   4   17.57    1.43
  -8   5   4   16.60    1.30
   7  -5  -4    0.09    0.39
   7  -5  -4   -0.28    0.27
   7  -5  -4    0.76    0.35
  -7   5   4   -0.35    0.40
  -7   5   4    0.10    0.27
  -7   5   4    0.42    0.34
   6  -5  -4   74.18    4.56
   6  -5  -4   77.63    4.73
   6  -5  -4   79.31    4.75
  -6   5   4   79.21    5.08
  -6   5   4   78.36    4.71
  -6   5   4   80.63    4.83
   5  -5  -4    9.38    0.84
   5  -5  -4    9.86    0.89
   5  -5  -4   11.39    0.95
  -5   5   4   11.78    0.88
  -5   5   4   11.53    0.88
  -5   5   4   10.94    0.88
  -5   5   4   11.51    0.97
   4  -5  -4   34.35    2.21
   4  -5  -4   36.44    2.23
   4  -5  -4   34.65    2.09
  -4   5   4   34.95    2.46
  -4   5   4   33.52    2.33
  -4   5   4   37.21    2.23
  -4   5   4   34.08    2.19
  -4   5   4   32.47    2.16
   3  -5  -4  201.84   10.84
   3  -5  -4  190.51   11.08
   3  -5  -4  204.37   11.32
  -3   5   4  192.89   11.29
  -3   5   4  185.04   12.03
  -3   5   4  181.17   13.06
   2  -5  -4   58.59    4.11
   2  -5  -4   55.95    3.29
   2  -5  -4   54.86    3.38
  -2   5   4   54.06    3.53
  -2   5   4   48.99    3.83
  -2   5   4   56.93    3.36
   1  -5  -4  113.82    6.79
   1  -5  -4  119.37    8.41
  -1   5   4  112.43    7.15
  -1   5   4  113.79    6.77
  -1   5   4  110.64    7.84
   0  -5  -4    2.93    0.44
   0  -5  -4    2.23    0.40
   0   5   4    2.65    0.40
   0   5   4    2.22    0.42
   0   5   4    2.93    0.34
  -1  -5  -4   27.88    1.77
  -1  -5  -4   24.83    2.13
   1   5   4   31.50    2.08
   1   5   4   26.40    1.82
   1   5   4   24.22    1.67
   1   5   4   27.46    1.75
  -2  -5  -4    6.13    0.81
  -2  -5  -4    6.79    0.70
   2   5   4    7.30    0.59
   2   5   4    7.69    0.69
   2   5   4    8.70    0.86
  -3  -5  -4   20.77    1.90
  -3  -5  -4   22.46    1.55
   3   5   4   20.24    1.52
   3   5   4   22.62    1.50
   3   5   4   23.49    1.72
   3   5   4   24.57    1.85
  -4  -5  -4   21.90    1.47
  -4  -5  -4   18.90    1.82
   4   5   4   19.74    1.65
   4   5   4   20.80    1.46
   4   5   4   21.52    1.45
  -5  -5  -4    7.94    1.09
   5   5   4   11.91    0.90
   5   5   4    9.59    1.06
  -6  -5  -4    4.45    0.84
   6   5   4    7.06    0.89
   6   5   4    6.43    0.72
   7   5   4    0.00    0.54
   9  -6  -4    8.62    0.92
   8  -6  -4   -0.31    0.45
   8  -6  -4   -0.17    0.35
  -8   6   4    0.05    0.46
  -8   6   4    0.13    0.36
   7  -6  -4   19.27    1.39
   7  -6  -4   20.32    1.45
   7  -6  -4   19.55    1.53
  -7   6   4   17.67    1.39
  -7   6   4   19.97    1.42
  -7   6   4   18.30    1.52
   6  -6  -4   46.94    2.79
   6  -6  -4   43.71    2.88
   6  -6  -4   44.57    2.94
  -6   6   4   42.31    2.86
  -6   6   4   46.88    2.93
  -6   6   4   49.82    3.12
   5  -6  -4   92.76    5.83
   5  -6  -4   94.92    5.77
   5  -6  -4   93.58    5.58
  -5   6   4   98.71    6.22
  -5   6   4  104.44    5.95
  -5   6   4   96.65    5.82
   4  -6  -4    1.27    0.31
   4  -6  -4    1.08    0.37
   4  -6  -4    1.47    0.38
  -4   6   4    1.61    0.37
  -4   6   4    1.07    0.39
  -4   6   4    1.44    0.31
   3  -6  -4   16.43    1.20
   3  -6  -4   16.84    1.16
  -3   6   4   13.62    1.26
  -3   6   4   16.50    1.20
  -3   6   4   16.69    1.17
   2  -6  -4    9.22    0.79
   2  -6  -4    7.35    0.70
   2  -6  -4    7.93    0.82
  -2   6   4    7.64    0.72
  -2   6   4    8.56    0.73
  -2   6   4    7.92    0.79
   1  -6  -4    0.05    0.26
   1  -6  -4    0.20    0.29
   1  -6  -4    0.46    0.29
  -1   6   4    0.33    0.27
  -1   6   4    0.73    0.30
  -1   6   4   -0.19    0.24
   0  -6  -4   84.21    4.92
   0  -6  -4   74.38    6.02
   0   6   4   86.61    4.90
   0   6   4   79.19    5.66
   0   6   4   80.31    5.09
  -1  -6  -4    0.67    0.34
  -1  -6  -4    0.88    0.34
   1   6   4    0.90    0.33
   1   6   4    0.79    0.39
  -2  -6  -4   18.98    1.82
  -2  -6  -4   21.33    1.54
   2   6   4   23.26    1.66
   2   6   4   23.68    1.80
   2   6   4   21.22    1.43
   2   6   4   21.20    1.53
  -3  -6  -4    7.14    0.99
  -3  -6  -4   10.34    0.91
   3   6   4    9.53    0.78
   3   6   4   10.54    0.90
   3   6   4    8.93    0.95
  -4  -6  -4   14.83    1.18
  -4  -6  -4   12.21    1.41
   4   6   4   16.35    1.14
   4   6   4   15.03    1.18
   4   6   4   14.52    1.34
  -5  -6  -4    7.82    1.10
   5   6   4   12.37    0.93
   5   6   4    9.04    1.05
   6   6   4    1.33    0.59
   8  -7  -4    6.99    0.96
   8  -7  -4    6.31    0.76
   7  -7  -4    1.90    0.57
   7  -7  -4    1.56    0.45
   7  -7  -4    0.88    0.45
  -7   7   4    1.93    0.45
  -7   7   4    1.87    0.48
  -7   7   4    1.50    0.52
   6  -7  -4   47.81    3.28
   6  -7  -4   50.49    3.11
   6  -7  -4   51.79    3.28
  -6   7   4   54.52    3.26
  -6   7   4   51.64    3.45
   5  -7  -4    6.35    0.65
   5  -7  -4    5.35    0.72
   5  -7  -4    5.25    0.70
  -5   7   4    5.63    0.69
  -5   7   4    6.51    0.74
   4  -7  -4    2.48    0.50
   4  -7  -4    2.86    0.45
   4  -7  -4    2.54    0.49
  -4   7   4    2.66    0.47
  -4   7   4    3.10    0.53
   3  -7  -4   21.13    1.47
   3  -7  -4   22.81    1.54
  -3   7   4   18.50    1.49
  -3   7   4   22.53    1.49
  -3   7   4   20.26    1.62
   2  -7  -4    0.30    0.34
   2  -7  -4    0.19    0.30
   2  -7  -4    0.43    0.33
   2  -7  -4   -0.18    0.27
  -2   7   4   -0.30    0.31
  -2   7   4    0.25    0.29
  -2   7   4   -0.13    0.29
   1  -7  -4   28.71    1.85
   1  -7  -4   26.88    1.96
   1  -7  -4   28.50    2.32
  -1   7   4   32.35    1.97
  -1   7   4   28.32    1.97
  -1   7   4   29.17    2.22
   0  -7  -4    2.47    0.41
   0  -7  -4    2.71    0.52
   0  -7  -4    3.69    0.57
   0   7   4    3.44    0.48
   0   7   4    3.53    0.59
   0   7   4    2.35    0.47
  -1  -7  -4   51.94    4.50
  -1  -7  -4   62.73    3.52
  -1  -7  -4   60.71    3.72
   1   7   4   61.18    3.71
  -2  -7  -4    0.32    0.36
  -2  -7  -4    0.46    0.41
   2   7   4    1.10    0.43
   2   7   4    0.43    0.41
  -3  -7  -4   26.52    2.49
  -3  -7  -4   29.64    2.06
   3   7   4   31.04    2.22
   3   7   4   32.63    2.08
  -4  -7  -4    1.61    0.49
  -4  -7  -4    1.28    0.52
   4   7   4    1.33    0.48
   8  -8  -4   -0.01    0.43
   7  -8  -4    7.90    0.98
   7  -8  -4    7.66    0.83
   7  -8  -4    8.30    0.93
  -7   8   4    7.91    0.88
  -7   8   4    8.03    0.96
   6  -8  -4    1.33    0.47
   6  -8  -4    1.04    0.42
   6  -8  -4    0.84    0.50
  -6   8   4    0.46    0.44
  -6   8   4    0.46    0.40
   5  -8  -4    0.58    0.40
   5  -8  -4    0.74    0.37
   5  -8  -4    0.44    0.44
  -5   8   4   -0.07    0.38
  -5   8   4    0.34    0.36
   4  -8  -4   51.95    3.37
   4  -8  -4   48.63    3.28
   4  -8  -4   53.27    3.15
  -4   8   4   52.95    3.50
  -4   8   4   55.03    3.35
   3  -8  -4   22.41    1.66
   3  -8  -4   24.31    1.76
  -3   8   4   23.59    1.74
  -3   8   4   26.18    1.73
   2  -8  -4    0.86    0.38
   2  -8  -4    0.54    0.41
   2  -8  -4    0.55    0.37
  -2   8   4    0.37    0.35
  -2   8   4    0.08    0.37
   1  -8  -4    0.62    0.39
   1  -8  -4    0.43    0.42
   1  -8  -4    1.06    0.37
   1  -8  -4    0.60    0.44
  -1   8   4    1.18    0.39
  -1   8   4    0.67    0.40
   0  -8  -4   53.79    3.27
   0  -8  -4   52.11    3.48
   0  -8  -4   51.33    4.19
   0   8   4   60.49    3.50
  -1  -8  -4    0.28    0.41
  -1  -8  -4   -0.06    0.37
   1   8   4   -0.21    0.35
  -2  -8  -4    5.41    0.74
  -2  -8  -4    3.84    0.72
   2   8   4    4.82    0.68
  -3  -8  -4    0.58    0.47
  -3  -8  -4    0.01    0.41
   3   8   4    0.51    0.44
   7  -9  -4    0.12    0.45
  -7   9   4    1.64    0.52
   6  -9  -4    8.66    0.99
   6  -9  -4    7.59    0.93
   6  -9  -4    7.83    0.83
  -6   9   4    8.52    0.97
  -6   9   4    6.93    0.88
   5  -9  -4   40.21    2.55
   5  -9  -4   41.05    2.74
   5  -9  -4   39.26    2.69
  -5   9   4   41.18    2.71
  -5   9   4   39.97    2.80
   4  -9  -4    0.38    0.44
   4  -9  -4    1.13    0.50
  -4   9   4    0.49    0.45
  -4   9   4    0.26    0.42
   3  -9  -4    9.51    0.97
   3  -9  -4    9.33    1.07
  -3   9   4   11.45    1.09
  -3   9   4    9.70    0.98
   2  -9  -4   16.61    1.43
   2  -9  -4   17.15    1.32
  -2   9   4   17.38    1.41
  -2   9   4   17.41    1.36
   1  -9  -4   22.07    1.77
   1  -9  -4   23.18    1.62
   1  -9  -4   22.95    2.01
  -1   9   4   25.57    1.77
   0  -9  -4    0.78    0.48
   0  -9  -4    0.35    0.43
   0  -9  -4    1.26    0.55
   0   9   4    0.28    0.43
  -1  -9  -4   13.11    1.47
  -1  -9  -4   14.58    1.31
   1   9   4   16.34    1.31
  -2  -9  -4    0.35    0.49
  -2  -9  -4    0.85    0.64
  -2  -9  -4    0.03    0.48
   2   9   4    0.86    0.50
  -3  -9  -4    0.68    0.54
   3   9   4    0.93    0.50
   5 -10  -4   16.66    1.45
   5 -10  -4   15.53    1.41
  -5  10   4   15.81    1.40
  -5  10   4   17.40    1.44
   4 -10  -4    4.46    0.72
   4 -10  -4    2.89    0.68
  -4  10   4    3.36    0.68
  -4  10   4    3.12    0.64
   3 -10  -4    8.37    0.96
   3 -10  -4    8.12    1.07
  -3  10   4   10.81    1.10
  -3  10   4   10.02    1.00
   2 -10  -4    6.82    0.85
   2 -10  -4    7.61    0.99
  -2  10   4    9.85    1.02
   1 -10  -4    2.04    0.64
  -1  10   4    3.41    0.67
   0 -10  -4    8.11    1.05
  -1 -10  -4    2.32    0.68
   3 -11  -4    5.76    0.82
   1  11  -5    2.48    0.87
   0  11  -5   13.66    1.50
   0 -11   5   16.48    1.67
  -1  11  -5    9.28    1.26
   1 -11   5   11.45    1.37
  -2  11  -5    8.12    1.18
   2 -11   5    8.24    1.08
  -3  11  -5    0.00    0.66
   3 -11   5    0.31    0.43
  -4  11  -5    6.42    1.05
   2  10  -5    6.16    0.87
  -2 -10   5    7.18    1.10
  -2 -10   5    7.62    0.95
   1  10  -5    4.16    0.85
   1  10  -5    2.40    0.60
  -1 -10   5    2.65    0.70
  -1 -10   5    2.35    0.69
  -1 -10   5    4.54    0.72
   0  10  -5    2.61    0.60
   0  10  -5    2.52    0.79
   0 -10   5    2.19    0.61
   0 -10   5    2.37    0.65
   0 -10   5    1.50    0.56
  -1  10  -5   14.90    1.39
  -1  10  -5   13.73    1.30
  -1  10  -5   13.16    1.47
   1 -10   5   14.22    1.30
   1 -10   5   13.58    1.47
   1 -10   5   17.25    1.59
  -2  10  -5    2.13    0.72
  -2  10  -5    1.74    0.64
  -2  10  -5    1.51    0.56
   2 -10   5    1.39    0.57
   2 -10   5    1.25    0.49
   2 -10   5    1.80    0.57
  -3  10  -5   -0.21    0.60
  -3  10  -5    0.02    0.45
  -3  10  -5    0.63    0.62
   3 -10   5   -0.43    0.33
   3 -10   5    0.39    0.44
  -4  10  -5    2.25    0.81
  -4  10  -5    1.52    0.55
  -4  10  -5    1.51    0.70
   4 -10   5    1.86    0.58
  -5  10  -5   14.15    1.50
  -5  10  -5   14.16    1.28
   5 -10   5   14.83    1.29
  -6  10  -5    8.23    0.99
   6 -10   5    9.98    1.05
   4   9  -5    0.15    0.44
   4   9  -5    0.76    0.57
  -4  -9   5    0.29    0.48
   3   9  -5    4.58    0.70
   3   9  -5    5.03    0.73
   3   9  -5    5.48    0.82
  -3  -9   5    3.52    0.74
  -3  -9   5    4.51    0.88
  -3  -9   5    4.90    0.74
   2   9  -5    2.43    0.59
   2   9  -5    3.07    0.61
  -2  -9   5    2.00    0.56
  -2  -9   5    2.49    0.66
  -2  -9   5    1.94    0.57
   1   9  -5   20.26    1.69
   1   9  -5   18.13    1.57
   1   9  -5   20.90    1.75
  -1  -9   5   22.80    1.64
  -1  -9   5   20.84    1.97
  -1  -9   5   19.85    1.85
   0   9  -5   29.44    2.27
   0   9  -5   34.43    2.43
   0   9  -5   32.03    2.45
   0  -9   5   34.98    2.86
   0  -9   5   35.99    2.33
   0  -9   5   31.14    2.71
  -1   9  -5   10.12    1.06
  -1   9  -5    8.19    0.99
  -1   9  -5    8.95    1.13
   1  -9   5    9.87    1.12
   1  -9   5   11.23    1.02
   1  -9   5   11.48    1.22
  -2   9  -5   16.09    1.43
  -2   9  -5   14.49    1.29
  -2   9  -5   15.89    1.49
   2  -9   5   14.11    1.44
   2  -9   5   17.10    1.54
   2  -9   5   13.95    1.27
  -3   9  -5    0.85    0.64
  -3   9  -5   -0.14    0.52
  -3   9  -5   -0.23    0.43
   3  -9   5   -0.06    0.39
   3  -9   5   -0.21    0.36
   3  -9   5   -0.08    0.33
  -4   9  -5   15.66    1.44
  -4   9  -5   15.26    1.47
  -4   9  -5   12.73    1.23
   4  -9   5   15.24    1.27
  -5   9  -5    3.94    0.84
  -5   9  -5    3.81    0.66
  -5   9  -5    4.72    0.89
   5  -9   5    3.39    0.61
   5  -9   5    4.42    0.65
  -6   9  -5    8.56    1.16
  -6   9  -5    9.69    1.22
  -6   9  -5    8.08    0.95
   6  -9   5    9.52    0.99
   6  -9   5    9.60    0.98
   5   8  -5    0.57    0.58
   4   8  -5    6.72    0.93
   4   8  -5    6.05    0.77
   4   8  -5    4.95    0.73
  -4  -8   5    7.01    0.83
  -4  -8   5    4.89    0.95
  -4  -8   5    5.50    0.87
   3   8  -5    3.60    0.68
   3   8  -5    2.75    0.59
   3   8  -5    4.37    0.65
  -3  -8   5    3.98    0.79
  -3  -8   5    2.92    0.64
  -3  -8   5    3.71    0.62
   2   8  -5   35.94    2.68
   2   8  -5   33.62    2.31
  -2  -8   5   35.85    2.33
  -2  -8   5   33.18    2.79
  -2  -8   5   30.96    2.92
   1   8  -5    4.83    0.72
   1   8  -5    8.15    0.90
   1   8  -5    7.71    0.81
  -1  -8   5    7.26    0.81
  -1  -8   5    6.07    0.85
  -1  -8   5    6.50    0.93
   0   8  -5   10.19    1.10
   0   8  -5   11.58    1.02
   0   8  -5    8.31    0.95
   0  -8   5   10.02    1.11
   0  -8   5    9.30    0.96
   0  -8   5    8.52    1.05
  -1   8  -5   43.71    2.91
  -1   8  -5   42.35    3.14
  -1   8  -5   45.42    3.16
   1  -8   5   42.64    3.52
   1  -8   5   47.54    3.67
   1  -8   5   46.12    2.92
  -2   8  -5    0.15    0.50
  -2   8  -5    0.96    0.61
  -2   8  -5    0.22    0.39
   2  -8   5   -0.13    0.31
   2  -8   5    0.09    0.34
   2  -8   5    0.12    0.38
  -3   8  -5   95.21    5.92
  -3   8  -5  103.02    6.59
  -3   8  -5   97.42    6.39
   3  -8   5   93.71    7.53
   3  -8   5   97.60    5.93
  -4   8  -5   -0.23    0.35
  -4   8  -5   -0.33    0.50
  -4   8  -5    0.61    0.58
   4  -8   5    0.30    0.36
  -5   8  -5    8.81    1.13
  -5   8  -5    9.76    0.97
  -5   8  -5    7.99    1.08
   5  -8   5   10.30    0.99
   5  -8   5    9.90    0.93
  -6   8  -5    8.56    1.13
  -6   8  -5   11.09    1.24
  -6   8  -5    9.28    0.96
   6  -8   5    9.68    1.00
   6  -8   5   10.39    0.97
  -7   8  -5    1.23    0.68
  -7   8  -5   -0.26    0.63
   7  -8   5    1.84    0.58
   6   7  -5    1.36    0.64
   5   7  -5    0.90    0.56
   5   7  -5    0.55    0.38
   5   7  -5    0.23    0.46
  -5  -7   5    1.47    0.43
  -5  -7   5    0.61    0.49
  -5  -7   5    0.55    0.51
   4   7  -5    3.37    0.68
   4   7  -5    3.34    0.56
   4   7  -5    2.99    0.58
  -4  -7   5    2.58    0.71
  -4  -7   5    4.67    0.62
  -4  -7   5    2.42    0.65
   3   7  -5   44.24    3.47
   3   7  -5   47.79    3.00
   3   7  -5   46.40    2.95
  -3  -7   5   41.18    3.76
  -3  -7   5   46.05    2.94
  -3  -7   5   46.56    3.62
   2   7  -5   33.29    2.30
   2   7  -5   32.85    2.40
   2   7  -5   39.78    2.72
  -2  -7   5   29.32    2.91
  -2  -7   5   36.24    2.81
  -2  -7   5   36.31    2.32
   1   7  -5    0.00    0.53
   1   7  -5    0.04    0.33
   1   7  -5    1.87    0.52
  -1  -7   5    0.41    0.37
  -1  -7   5    0.39    0.32
  -1  -7   5    0.04    0.33
   0   7  -5  137.71    8.94
   0   7  -5  127.55    8.33
   0   7  -5  143.09    9.23
   0  -7   5  151.54   10.77
   0  -7   5  143.53    8.37
   0  -7   5  136.30   10.41
  -1   7  -5   14.76    1.23
  -1   7  -5   15.34    1.43
  -1   7  -5   16.18    1.36
   1  -7   5   16.41    1.52
   1  -7   5   15.93    1.24
   1  -7   5   15.58    1.44
  -2   7  -5   13.20    1.08
  -2   7  -5   12.80    1.27
  -2   7  -5   14.09    1.25
   2  -7   5   14.85    1.10
   2  -7   5   12.87    1.28
   2  -7   5   11.96    1.25
  -3   7  -5    2.93    0.66
  -3   7  -5    2.91    0.53
  -3   7  -5    4.29    0.76
   3  -7   5    4.27    0.63
   3  -7   5    4.57    0.58
  -4   7  -5   77.92    5.02
  -4   7  -5   73.96    4.62
  -4   7  -5   77.85    5.19
   4  -7   5   72.08    4.45
   4  -7   5   76.64    4.63
  -5   7  -5    0.63    0.53
  -5   7  -5    0.60    0.55
  -5   7  -5    0.54    0.36
   5  -7   5    0.69    0.37
   5  -7   5    0.31    0.35
  -6   7  -5    9.11    1.09
  -6   7  -5    8.12    0.84
  -6   7  -5    8.54    1.05
   6  -7   5    9.64    0.85
   6  -7   5    7.64    0.86
  -7   7  -5   13.79    1.42
  -7   7  -5   14.36    1.38
   7  -7   5   14.16    1.21
  -8   7  -5    1.57    0.68
   6   6  -5   14.37    1.56
   6   6  -5   15.63    1.31
  -6  -6   5   13.43    1.60
  -6  -6   5   15.82    1.51
   5   6  -5    0.45    0.41
   5   6  -5    0.13    0.34
   5   6  -5   -0.45    0.46
  -5  -6   5    0.28    0.44
  -5  -6   5    0.21    0.45
  -5  -6   5    0.14    0.34
   4   6  -5   18.11    1.41
   4   6  -5   16.94    1.41
   4   6  -5   19.92    1.70
  -4  -6   5   18.00    1.81
  -4  -6   5   19.74    1.40
  -4  -6   5   20.52    1.72
   3   6  -5   36.89    2.54
   3   6  -5   40.00    3.01
  -3  -6   5   35.66    3.27
  -3  -6   5   42.33    2.56
  -3  -6   5   40.84    3.13
   2   6  -5   30.46    1.99
   2   6  -5   27.94    2.07
  -2  -6   5   30.47    2.42
  -2  -6   5   27.87    2.54
  -2  -6   5   31.59    1.99
   1   6  -5   23.98    1.35
   1   6  -5   19.50    1.48
   1   6  -5   20.76    1.60
   1   6  -5   19.80    1.61
  -1  -6   5   19.96    1.48
  -1  -6   5   20.06    1.77
  -1  -6   5   21.98    1.90
   0   6  -5  127.25    7.96
   0   6  -5  116.02    7.71
   0   6  -5  116.64    7.18
   0  -6   5  126.75    9.26
   0  -6   5  115.13    8.95
   0  -6   5  120.19    7.17
  -1   6  -5   51.08    3.35
  -1   6  -5   44.78    3.02
  -1   6  -5   45.86    3.29
   1  -6   5   47.41    3.02
   1  -6   5   45.45    3.72
   1  -6   5   55.29    3.88
  -2   6  -5   -0.13    0.40
  -2   6  -5   -0.31    0.42
  -2   6  -5   -0.39    0.24
   2  -6   5    0.07    0.23
   2  -6   5   -0.26    0.23
   2  -6   5   -0.13    0.24
  -3   6  -5   57.62    3.67
  -3   6  -5   59.73    4.11
  -3   6  -5   58.29    4.00
   3  -6   5   63.14    3.69
  -4   6  -5   24.66    1.63
  -4   6  -5   22.74    1.85
  -4   6  -5   23.72    1.81
   4  -6   5   24.37    1.61
   4  -6   5   21.76    1.56
  -5   6  -5   40.47    3.01
  -5   6  -5   45.39    2.93
  -5   6  -5   40.96    2.64
   5  -6   5   44.14    2.65
   5  -6   5   38.05    2.58
  -6   6  -5    7.81    0.80
  -6   6  -5   10.13    1.08
  -6   6  -5   10.15    1.11
   6  -6   5    9.31    0.81
   6  -6   5   10.88    0.91
  -7   6  -5    0.00    0.56
  -7   6  -5    0.18    0.57
   7  -6   5    0.57    0.43
  -8   6  -5   15.98    1.39
  -8   6  -5   14.48    1.50
   8  -6   5   12.82    1.22
  -9   6  -5    7.36    1.04
   7   5  -5    2.26    0.63
   7   5  -5    1.72    0.68
  -7  -5   5    2.92    0.66
  -7  -5   5    2.22    0.69
   6   5  -5    2.08    0.65
   6   5  -5    1.65    0.51
  -6  -5   5    1.95    0.63
  -6  -5   5    1.23    0.53
   5   5  -5   35.25    2.29
   5   5  -5   31.93    2.68
   5   5  -5   30.44    2.16
  -5  -5   5   32.46    2.69
  -5  -5   5   36.31    2.17
  -5  -5   5   32.24    2.87
   4   5  -5    2.19    0.42
   4   5  -5    3.60    0.50
   4   5  -5    3.57    0.63
  -4  -5   5    2.47    0.42
  -4  -5   5    2.20    0.57
  -4  -5   5    3.45    0.56
   3   5  -5    8.17    0.89
   3   5  -5    6.17    0.69
  -3  -5   5    8.18    0.86
  -3  -5   5    7.28    0.71
  -3  -5   5    6.99    0.95
   2   5  -5   45.27    3.25
   2   5  -5   47.93    3.02
  -2  -5   5   44.98    3.89
  -2  -5   5   53.25    3.75
  -2  -5   5   50.68    3.01
   1   5  -5   17.88    1.38
   1   5  -5   17.53    1.39
   1   5  -5   17.48    1.28
  -1  -5   5   17.95    1.26
  -1  -5   5   19.05    1.64
  -1  -5   5   18.29    1.54
   0   5  -5   18.60    1.50
   0   5  -5   19.41    1.49
   0   5  -5   18.54    1.35
   0  -5   5   20.70    1.70
   0  -5   5   19.09    1.61
   0  -5   5   20.11    1.36
  -1   5  -5    2.93    0.58
  -1   5  -5    3.29    0.55
  -1   5  -5    2.72    0.44
   1  -5   5    2.60    0.43
   1  -5   5    2.89    0.42
   1  -5   5    3.40    0.50
  -2   5  -5   37.58    2.79
  -2   5  -5   39.83    2.85
  -2   5  -5   38.94    2.57
   2  -5   5   47.76    3.29
   2  -5   5   41.39    2.56
   2  -5   5   39.22    2.71
  -3   5  -5    0.12    0.37
  -3   5  -5   -0.08    0.25
  -3   5  -5   -0.05    0.41
   3  -5   5    0.00    0.25
   3  -5   5   -0.01    0.24
  -4   5  -5   45.63    3.37
  -4   5  -5   48.58    3.26
  -4   5  -5   47.56    2.98
   4  -5   5   46.28    2.89
   4  -5   5   51.24    2.98
   4  -5   5   49.67    3.27
  -5   5  -5   62.47    3.94
  -5   5  -5   58.56    4.10
  -5   5  -5   57.68    3.59
   5  -5   5   60.40    3.59
   5  -5   5   59.47    4.01
   5  -5   5   55.85    3.52
  -6   5  -5   38.91    2.49
  -6   5  -5   36.70    2.62
  -6   5  -5   32.16    2.18
   6  -5   5   34.39    2.19
   6  -5   5   34.03    2.22
  -7   5  -5    8.56    1.11
  -7   5  -5    8.97    1.03
   7  -5   5    9.87    0.94
  -8   5  -5    7.67    1.06
  -8   5  -5    5.76    0.68
  -8   5  -5    7.69    0.93
   8  -5   5    4.98    0.73
  -9   5  -5    1.11    0.73
  -8  -4   5    3.27    0.82
  -8  -4   5    3.74    0.73
   7   4  -5    0.52    0.47
   7   4  -5    0.26    0.52
  -7  -4   5    0.54    0.50
  -7  -4   5    0.41    0.47
   6   4  -5   25.23    1.73
   6   4  -5   21.74    2.04
  -6  -4   5   21.10    2.15
  -6  -4   5   25.07    2.01
   5   4  -5   17.01    1.61
   5   4  -5   18.73    1.27
   5   4  -5   19.30    1.35
  -5  -4   5   16.38    1.70
  -5  -4   5   17.87    1.24
  -5  -4   5   17.71    1.58
   4   4  -5   17.11    1.65
   4   4  -5   19.35    1.34
   4   4  -5   21.54    1.40
  -4  -4   5   20.47    1.33
  -4  -4   5   17.00    1.74
  -4  -4   5   20.35    1.67
   3   4  -5   22.73    2.07
   3   4  -5   25.11    1.73
  -3  -4   5   27.56    2.15
  -3  -4   5   25.62    1.71
  -3  -4   5   30.18    1.85
  -3  -4   5   28.24    1.84
  -3  -4   5   24.43    2.26
   2   4  -5   33.18    2.11
   2   4  -5   33.87    2.24
  -2  -4   5   31.26    2.57
  -2  -4   5   35.50    2.09
  -2  -4   5   30.33    2.69
   1   4  -5   16.18    1.19
   1   4  -5   15.74    1.27
   1   4  -5   19.44    1.10
   1   4  -5   17.18    1.29
  -1  -4   5   17.03    1.18
  -1  -4   5   14.96    1.50
  -1  -4   5   18.97    1.46
   0   4  -5   13.03    1.07
   0   4  -5   11.78    0.94
   0   4  -5   12.62    1.05
   0  -4   5   12.20    0.93
   0  -4   5   13.05    1.10
   0  -4   5   12.89    1.16
  -1   4  -5  323.23   19.65
  -1   4  -5  323.62   21.04
  -1   4  -5  330.44   21.90
   1  -4   5  339.64   19.64
   1  -4   5  370.94   24.70
  -2   4  -5    7.39    0.79
  -2   4  -5    7.28    0.83
  -2   4  -5    8.08    0.70
   2  -4   5    7.93    0.66
   2  -4   5    8.27    0.68
  -3   4  -5   78.53    4.74
  -3   4  -5   80.06    5.32
  -3   4  -5   81.85    5.13
   3  -4   5   84.52    4.74
   3  -4   5   78.49    4.57
   3  -4   5   73.47    5.20
  -4   4  -5   42.80    2.83
  -4   4  -5   42.12    2.95
  -4   4  -5   41.36    2.58
   4  -4   5   41.71    2.87
   4  -4   5   41.76    2.52
   4  -4   5   41.31    2.56
  -5   4  -5   35.18    2.56
  -5   4  -5   36.75    2.45
  -5   4  -5   32.82    2.17
   5  -4   5   38.55    2.52
   5  -4   5   35.55    2.17
   5  -4   5   32.58    2.17
  -6   4  -5    0.36    0.46
  -6   4  -5    0.51    0.22
  -6   4  -5    0.14    0.27
  -6   4  -5   -0.05    0.49
   6  -4   5    0.89    0.37
   6  -4   5    0.26    0.44
  -7   4  -5   14.80    1.10
  -7   4  -5   14.77    1.40
  -7   4  -5   16.17    1.29
   7  -4   5   14.93    1.37
   7  -4   5   13.29    1.13
  -8   4  -5    1.88    0.69
  -8   4  -5    0.79    0.34
  -8   4  -5    1.57    0.53
   8  -4   5    0.48    0.45
  -9   4  -5    0.55    0.66
   8   3  -5   -0.09    0.52
   8   3  -5    0.07    0.46
  -8  -3   5   -0.23    0.44
  -8  -3   5   -0.33    0.43
   7   3  -5   24.35    2.20
   7   3  -5   23.23    1.83
  -7  -3   5   28.57    2.18
  -7  -3   5   24.46    2.33
   6   3  -5    0.83    0.48
   6   3  -5    0.79    0.41
   6   3  -5    1.17    0.29
  -6  -3   5    1.33    0.27
  -6  -3   5    1.20    0.47
  -6  -3   5    0.60    0.38
   5   3  -5   65.97    3.96
   5   3  -5   68.61    4.17
   5   3  -5   63.90    4.89
  -5  -3   5   66.91    3.95
  -5  -3   5   68.46    5.00
  -5  -3   5   61.08    5.22
   4   3  -5   41.13    2.53
   4   3  -5   38.32    3.11
   4   3  -5   43.77    2.65
  -4  -3   5   41.22    3.17
  -4  -3   5   42.32    2.52
  -4  -3   5   38.54    3.33
   3   3  -5   54.44    3.10
  -3  -3   5   50.78    3.85
  -3  -3   5   46.35    4.01
  -3  -3   5   50.78    3.06
   2   3  -5   88.58    5.38
   2   3  -5   90.17    5.93
  -2  -3   5   79.11    6.96
  -2  -3   5   91.94    5.94
  -2  -3   5  101.65    6.75
  -2  -3   5   91.94    5.37
   1   3  -5    8.86    0.74
   1   3  -5   10.78    0.83
   1   3  -5    9.83    0.80
  -1  -3   5    7.65    0.89
  -1  -3   5    9.28    0.72
  -1  -3   5   10.44    0.86
   0   3  -5  486.12   29.38
   0   3  -5  494.10   31.42
   0   3  -5  512.43   32.76
   0  -3   5  522.71   38.05
   0  -3   5  474.26   29.36
   0  -3   5  550.66   36.95
  -1   3  -5   49.22    3.12
  -1   3  -5   45.08    3.20
  -1   3  -5   46.64    2.88
   1  -3   5   47.36    2.85
  -2   3  -5  174.12   10.21
  -2   3  -5  166.62   11.39
  -2   3  -5  181.95   10.97
   2  -3   5  176.04   10.39
   2  -3   5  179.86   10.19
   2  -3   5  174.27    9.83
   2  -3   5  169.28   11.28
  -3   3  -5   52.91    3.35
  -3   3  -5   52.89    3.08
  -3   3  -5   51.30    3.47
   3  -3   5   53.52    3.06
   3  -3   5   48.79    3.40
   3  -3   5   47.58    3.09
   3  -3   5   49.34    2.97
  -4   3  -5   64.76    4.37
  -4   3  -5   58.61    3.72
  -4   3  -5   64.97    4.25
  -4   3  -5   70.43    4.07
   4  -3   5   57.13    3.70
   4  -3   5   60.91    3.63
   4  -3   5   61.52    4.18
  -5   3  -5    1.06    0.46
  -5   3  -5    0.93    0.43
  -5   3  -5    0.73    0.24
  -5   3  -5    1.33    0.41
  -5   3  -5    1.58    0.29
  -5   3  -5    0.74    0.23
   5  -3   5    1.34    0.26
   5  -3   5    1.55    0.45
   5  -3   5    1.67    0.33
   5  -3   5    1.17    0.33
  -6   3  -5    7.83    0.81
  -6   3  -5    7.05    0.62
  -6   3  -5    7.49    0.89
  -6   3  -5    6.01    0.82
   6  -3   5    5.50    0.65
   6  -3   5    7.64    0.90
  -7   3  -5   12.17    1.34
  -7   3  -5   14.97    1.37
  -7   3  -5   17.05    1.23
  -7   3  -5   13.06    1.04
   7  -3   5   15.49    1.37
   7  -3   5   13.04    1.08
  -8   3  -5    0.25    0.44
  -8   3  -5   -0.68    0.26
  -8   3  -5   -0.16    0.56
   8  -3   5   -0.20    0.36
   8  -3   5   -0.32    0.47
  -9   3  -5    7.65    1.05
   8   2  -5   18.76    1.46
   8   2  -5   18.39    1.79
  -8  -2   5   16.78    1.78
   7   2  -5    2.99    0.57
   7   2  -5    2.62    0.66
  -7  -2   5    1.90    0.56
  -7  -2   5    3.34    0.55
   6   2  -5   18.17    1.78
   6   2  -5   21.29    1.34
   6   2  -5   20.90    1.49
  -6  -2   5   20.52    1.88
  -6  -2   5   20.03    1.32
  -6  -2   5   22.08    1.74
   5   2  -5    4.41    0.70
   5   2  -5    5.72    0.59
   5   2  -5    4.36    0.44
   5   2  -5    5.35    0.50
  -5  -2   5    4.04    0.66
  -5  -2   5    4.79    0.45
  -5  -2   5    4.97    0.61
   4   2  -5   80.35    4.63
   4   2  -5   73.72    4.50
   4   2  -5   77.29    4.82
   4   2  -5   72.87    5.64
  -4  -2   5   76.96    6.06
  -4  -2   5   84.22    5.82
  -4  -2   5   79.35    4.61
   3   2  -5   62.61    3.71
   3   2  -5   63.84    3.58
  -3  -2   5   57.15    4.46
  -3  -2   5   55.75    4.65
  -3  -2   5   58.76    3.56
   2   2  -5   43.39    3.80
   2   2  -5   55.71    3.36
   2   2  -5   55.97    3.07
  -2  -2   5   47.88    3.95
  -2  -2   5   48.54    3.79
  -2  -2   5   51.91    3.36
  -2  -2   5   51.48    3.04
   1   2  -5  315.36   17.90
   1   2  -5  300.82   22.50
   1   2  -5  312.42   19.92
  -1  -2   5  287.51   23.17
  -1  -2   5  323.05   17.88
  -1  -2   5  283.01   19.91
  -1  -2   5  334.23   22.49
   0   2  -5  165.19    9.54
   0   2  -5  181.03   11.98
   0   2  -5  162.70   10.19
   0   2  -5  163.82   10.63
   0  -2   5  178.63   11.02
   0  -2   5  161.74   12.34
   0  -2   5  155.00   10.19
   0  -2   5  152.15    9.52
   0  -2   5  147.93   10.60
  -1   2  -5  143.46    8.44
  -1   2  -5  160.48    9.06
  -1   2  -5  139.76    8.44
  -1   2  -5  145.12    9.43
   1  -2   5  132.40    8.42
   1  -2   5  154.45    9.06
   1  -2   5  134.79    8.43
  -2   2  -5   47.87    2.76
  -2   2  -5   41.17    3.18
  -2   2  -5   46.93    2.75
  -2   2  -5   47.52    3.11
  -2   2  -5   48.50    2.99
   2  -2   5   43.95    2.73
   2  -2   5   46.20    2.75
   2  -2   5   46.07    3.05
   2  -2   5   45.72    2.94
   2  -2   5   41.81    2.63
   2  -2   5   45.94    2.75
  -3   2  -5   98.76    5.88
  -3   2  -5  101.37    5.88
  -3   2  -5  105.32    6.62
  -3   2  -5   98.00    6.85
  -3   2  -5  103.16    6.34
   3  -2   5   95.77    5.69
   3  -2   5  100.42    5.87
   3  -2   5   94.89    5.86
   3  -2   5  103.19    6.57
  -4   2  -5    7.37    0.83
  -4   2  -5    8.30    0.63
  -4   2  -5    8.61    0.67
  -4   2  -5    8.35    0.61
  -4   2  -5   10.13    0.85
  -4   2  -5   10.50    0.81
   4  -2   5    6.68    0.60
   4  -2   5    8.69    0.66
   4  -2   5    7.01    0.65
   4  -2   5   10.23    0.84
   4  -2   5    8.42    0.75
  -5   2  -5    1.72    0.48
  -5   2  -5    1.96    0.25
  -5   2  -5    1.31    0.27
  -5   2  -5    2.50    0.33
  -5   2  -5    2.42    0.47
  -5   2  -5    2.66    0.48
   5  -2   5    2.56    0.29
   5  -2   5    2.83    0.39
   5  -2   5    3.05    0.53
   5  -2   5    2.16    0.36
  -6   2  -5   33.42    2.19
  -6   2  -5   30.76    2.59
  -6   2  -5   40.91    2.38
  -6   2  -5   33.79    2.52
   6  -2   5   32.69    2.15
   6  -2   5   35.70    2.57
   6  -2   5   35.81    2.49
  -7   2  -5    8.05    0.78
  -7   2  -5    9.57    1.10
  -7   2  -5   10.11    1.07
  -7   2  -5   12.33    0.96
   7  -2   5    9.66    1.13
   7  -2   5    8.41    0.84
  -8   2  -5   16.18    1.42
  -8   2  -5   12.33    1.41
   8  -2   5   15.61    1.46
  -9   2  -5    0.92    0.56
   8   1  -5    4.14    0.82
   8   1  -5    3.60    0.64
  -8  -1   5    3.58    0.69
   7   1  -5   11.73    1.32
   7   1  -5   12.88    1.08
  -7  -1   5   15.29    1.23
  -7  -1   5   11.58    1.31
   6   1  -5   -0.04    0.41
   6   1  -5   -0.05    0.22
   6   1  -5    0.85    0.33
   6   1  -5    0.44    0.19
  -6  -1   5    0.00    0.26
  -6  -1   5   -0.06    0.16
  -6  -1   5    0.45    0.31
   5   1  -5   72.85    4.08
   5   1  -5   71.32    5.03
   5   1  -5   70.14    4.27
   5   1  -5   65.39    4.01
  -5  -1   5   65.02    5.10
  -5  -1   5   64.88    5.34
  -5  -1   5   69.51    4.06
   4   1  -5   19.40    1.16
   4   1  -5   15.81    1.45
   4   1  -5   18.76    1.43
   4   1  -5   16.07    1.12
  -4  -1   5   18.27    1.13
  -4  -1   5   15.32    1.50
  -4  -1   5   17.14    1.41
   3   1  -5   51.75    4.11
   3   1  -5   59.27    3.31
   3   1  -5   55.37    3.40
  -3  -1   5   57.64    3.15
  -3  -1   5   52.36    4.28
  -3  -1   5   54.75    3.28
  -3  -1   5   54.30    4.10
   2   1  -5  125.68    6.48
   2   1  -5   94.13    8.08
  -2  -1   5  104.58    8.35
  -2  -1   5  114.45    6.45
  -2  -1   5  112.39    8.07
   1   1  -5    1.16    0.27
   1   1  -5    0.74    0.20
   1   1  -5    0.71    0.21
   1   1  -5    0.57    0.17
   1   1  -5    1.08    0.22
  -1  -1   5    0.67    0.18
  -1  -1   5    1.01    0.20
  -1  -1   5    1.27    0.19
  -1  -1   5    0.82    0.20
  -1  -1   5    0.72    0.18
  -1  -1   5    0.75    0.18
  -1  -1   5    0.71    0.23
   0   1  -5  228.04   13.62
   0   1  -5  216.84   13.61
   0   1  -5  233.93   17.11
   0   1  -5  207.72   17.63
   0   1  -5  261.93   15.19
   0  -1   5  258.00   14.55
   0  -1   5  231.37   15.75
   0  -1   5  229.04   13.61
   0  -1   5  217.43   13.61
   0  -1   5  258.74   15.18
  -1   1  -5    1.67    0.32
  -1   1  -5    1.74    0.27
  -1   1  -5    1.05    0.23
  -1   1  -5    1.14    0.22
  -1   1  -5    1.32    0.26
   1  -1   5    1.82    0.31
   1  -1   5    1.39    0.24
   1  -1   5    1.76    0.26
   1  -1   5    1.59    0.24
   1  -1   5    2.54    0.31
   1  -1   5    1.39    0.17
  -2   1  -5  202.41   11.82
  -2   1  -5  208.09   11.83
  -2   1  -5  196.45   13.72
  -2   1  -5  205.93   13.21
   2  -1   5  197.75   11.81
   2  -1   5  190.64   11.40
   2  -1   5  222.10   12.64
   2  -1   5  202.68   11.82
  -3   1  -5    2.46    0.40
  -3   1  -5    1.73    0.19
  -3   1  -5    1.47    0.36
  -3   1  -5    2.13    0.34
  -3   1  -5    1.34    0.22
  -3   1  -5    0.88    0.20
   3  -1   5    0.90    0.20
   3  -1   5    1.47    0.36
   3  -1   5    1.57    0.27
   3  -1   5    1.37    0.24
   3  -1   5    1.39    0.22
   3  -1   5    1.41    0.30
  -4   1  -5   59.65    4.31
  -4   1  -5   65.77    3.79
  -4   1  -5   66.28    4.50
  -4   1  -5   65.35    4.11
  -4   1  -5   57.28    3.80
  -4   1  -5   71.24    3.88
   4  -1   5   68.65    4.07
   4  -1   5   64.81    3.79
   4  -1   5   67.48    4.45
   4  -1   5   62.94    4.34
   4  -1   5   62.64    3.72
   4  -1   5   58.54    3.79
  -5   1  -5   54.28    3.40
  -5   1  -5   55.85    3.92
  -5   1  -5   52.82    4.08
  -5   1  -5   61.84    3.72
  -5   1  -5   62.29    3.52
   5  -1   5   52.67    3.37
   5  -1   5   53.37    3.96
   5  -1   5   67.50    4.05
  -6   1  -5   33.26    2.78
  -6   1  -5   39.52    2.69
  -6   1  -5   42.51    2.52
  -6   1  -5   39.82    2.36
   6  -1   5   33.54    2.29
   6  -1   5   33.89    2.72
   6  -1   5   38.51    2.71
  -7   1  -5   28.60    1.95
  -7   1  -5   19.25    1.96
  -7   1  -5   25.51    1.65
   7  -1   5   25.78    2.04
  -8   1  -5    2.06    0.59
   8  -1   5    1.92    0.67
   9   0  -5    5.24    1.04
   9   0  -5    7.46    0.90
   8   0  -5    2.44    0.52
   8   0  -5    2.50    0.69
   7   0  -5    9.44    0.86
   7   0  -5    7.54    1.05
   7   0  -5    9.16    0.82
  -7   0   5    9.68    0.92
   6   0  -5   29.17    2.36
   6   0  -5   29.25    1.97
   6   0  -5   30.25    1.82
   6   0  -5   28.52    1.88
  -6   0   5   31.56    2.29
  -6   0   5   29.58    1.81
  -6   0   5   26.46    2.42
   5   0  -5   24.35    1.58
   5   0  -5   25.43    1.65
   5   0  -5   25.68    1.56
   5   0  -5   22.79    1.96
  -5   0   5   24.58    1.53
  -5   0   5   24.21    2.05
   4   0  -5   66.23    3.85
   4   0  -5   70.23    3.91
   4   0  -5   61.31    4.74
  -4   0   5   65.43    3.88
  -4   0   5   64.07    5.06
   3   0  -5   88.63    7.18
   3   0  -5   93.20    6.90
   3   0  -5   93.93    5.72
   3   0  -5  103.43    5.54
  -3   0   5   98.42    5.30
  -3   0   5   85.40    7.14
  -3   0   5   94.32    5.51
   2   0  -5   62.45    3.56
   2   0  -5   53.41    4.40
   2   0  -5   60.34    3.54
   2   0  -5   58.97    4.60
  -2   0   5   63.58    3.55
  -2   0   5   61.94    3.37
  -2   0   5   56.39    4.57
  -2   0   5   60.46    3.54
   1   0  -5   12.23    0.87
   1   0  -5   13.27    0.94
   1   0  -5   12.02    1.12
   1   0  -5   13.50    1.04
   1   0  -5   13.65    0.89
  -1   0   5   12.23    0.93
  -1   0   5   13.55    0.87
  -1   0   5   13.11    0.86
   0   0  -5   29.43    2.04
   0   0  -5   33.76    2.34
   0   0  -5   28.86    2.64
   0   0  -5   31.94    2.04
   0   0  -5   37.99    2.27
   0   0   5   30.43    2.03
   0   0   5   36.32    2.27
   0   0   5   39.82    2.16
   0   0   5   34.22    2.05
  -1   0  -5  507.72   29.60
  -1   0  -5  530.72   34.31
  -1   0  -5  520.31   33.00
  -1   0  -5  498.67   28.54
  -1   0  -5  523.18   29.59
   1   0   5  543.50   29.59
   1   0   5  496.07   31.63
   1   0   5  524.41   28.54
   1   0   5  457.64   29.57
  -2   0  -5   22.21    1.32
  -2   0  -5   16.74    1.47
  -2   0  -5   21.34    1.32
  -2   0  -5   21.93    1.26
  -2   0  -5   21.19    1.57
   2   0   5   18.05    1.38
   2   0   5   21.67    1.26
   2   0   5   22.17    1.32
   2   0   5   24.38    1.34
  -3   0  -5  112.47    8.00
  -3   0  -5  129.19    7.15
  -3   0  -5  114.38    7.14
  -3   0  -5  132.19    8.37
  -3   0  -5  121.77    7.27
   3   0   5  126.08    8.35
   3   0   5  127.27    6.92
   3   0   5  124.76    7.15
   3   0   5  105.60    8.00
   3   0   5  128.86    7.14
  -4   0  -5   23.85    1.43
  -4   0  -5   20.82    1.40
  -4   0  -5   23.32    1.41
  -4   0  -5   22.68    1.75
  -4   0  -5   21.90    1.64
   4   0   5   23.41    1.41
   4   0   5   20.03    1.71
   4   0   5   24.35    1.71
   4   0   5   22.44    1.41
   4   0   5   22.61    1.42
  -5   0  -5   56.52    3.33
  -5   0  -5   45.80    3.86
  -5   0  -5   53.60    3.69
  -5   0  -5   62.58    3.23
   5   0   5   54.99    3.23
   5   0   5   54.50    3.84
   5   0   5   49.88    3.77
  -6   0  -5    0.66    0.41
  -6   0  -5    2.06    0.46
  -6   0  -5    1.41    0.29
   6   0   5    1.64    0.54
   6   0   5    1.95    0.43
  -7   0  -5   12.56    0.96
  -7   0  -5   11.43    1.22
   7   0   5   14.65    1.36
  -8   0  -5   12.37    1.30
  -8   0  -5   11.76    1.34
   8   0   5   16.33    1.48
   9  -1  -5    7.42    0.88
   9  -1  -5    7.91    1.14
  -9   1   5    5.90    0.78
   8  -1  -5   -0.08    0.37
   8  -1  -5    0.20    0.53
   8  -1  -5    0.84    0.43
  -8   1   5    0.03    0.37
   7  -1  -5   35.50    2.89
   7  -1  -5   37.31    2.44
   7  -1  -5   35.74    2.35
  -7   1   5   35.19    2.96
  -7   1   5   40.13    2.43
   6  -1  -5    3.78    0.62
   6  -1  -5    2.91    0.47
   6  -1  -5    3.25    0.37
   6  -1  -5    3.45    0.48
  -6   1   5    3.12    0.47
  -6   1   5    4.72    0.53
  -6   1   5    3.23    0.35
   5  -1  -5   46.31    3.54
   5  -1  -5   47.69    2.89
   5  -1  -5   49.21    3.02
   5  -1  -5   48.78    2.91
  -5   1   5   45.58    3.72
  -5   1   5   49.16    2.87
   4  -1  -5  121.49    7.44
   4  -1  -5  117.73    9.28
   4  -1  -5  123.66    7.07
   4  -1  -5  120.66    8.66
   4  -1  -5  133.70    7.18
  -4   1   5  116.09    9.24
  -4   1   5  122.02    7.15
   3  -1  -5  107.56    5.71
   3  -1  -5   92.38    5.88
   3  -1  -5   94.09    7.36
  -3   1   5   98.44    5.68
  -3   1   5   86.67    7.32
  -3   1   5  100.74    5.45
  -3   1   5   98.17    5.82
   2  -1  -5    0.52    0.13
   2  -1  -5    0.59    0.19
   2  -1  -5    0.66    0.20
  -2   1   5    0.54    0.15
  -2   1   5    0.56    0.18
   1  -1  -5    0.71    0.21
   1  -1  -5    0.86    0.16
   1  -1  -5    0.77    0.19
  -1   1   5    0.84    0.13
  -1   1   5    1.43    0.21
   0  -1  -5   25.85    1.57
   0  -1  -5   21.66    1.43
   0   1   5   22.47    1.42
   0   1   5   20.72    1.56
  -1  -1  -5    0.48    0.18
  -1  -1  -5    0.68    0.22
  -1  -1  -5    0.50    0.14
  -1  -1  -5    0.49    0.12
  -1  -1  -5    0.57    0.16
   1   1   5    0.51    0.23
   1   1   5    0.22    0.17
   1   1   5    0.50    0.18
   1   1   5    0.74    0.23
  -2  -1  -5  179.62   10.12
  -2  -1  -5  186.79   10.11
  -2  -1  -5  166.06   10.50
  -2  -1  -5  195.27    9.76
   2   1   5  191.88   10.11
   2   1   5  151.76   11.27
   2   1   5  158.41   11.78
   2   1   5  158.80   10.10
  -3  -1  -5    0.09    0.16
  -3  -1  -5    0.11    0.15
  -3  -1  -5    0.30    0.24
   3   1   5   -0.03    0.30
   3   1   5    0.00    0.15
   3   1   5    0.18    0.26
   3   1   5    0.25    0.17
  -4  -1  -5   91.72    5.36
  -4  -1  -5  104.69    5.38
  -4  -1  -5   81.41    5.99
   4   1   5   84.10    6.08
   4   1   5   85.63    5.36
   4   1   5   92.52    5.36
   4   1   5   98.87    6.32
  -5  -1  -5    1.95    0.26
  -5  -1  -5    1.54    0.36
   5   1   5    1.84    0.53
   5   1   5    1.43    0.39
   5   1   5    1.58    0.25
  -6  -1  -5    0.83    0.43
  -6  -1  -5    1.81    0.39
   6   1   5    1.18    0.53
   6   1   5    1.65    0.45
  -7  -1  -5    4.61    0.74
  -7  -1  -5    3.53    0.67
   7   1   5    4.96    0.83
  -8  -1  -5    0.19    0.46
  -8  -1  -5    0.04    0.42
   8   1   5    0.33    0.61
   9  -2  -5    0.54    0.61
  -9   2   5   -0.41    0.37
   8  -2  -5   82.95    5.15
   8  -2  -5   85.02    5.38
   8  -2  -5   86.58    6.31
  -8   2   5   86.36    5.31
   7  -2  -5    5.88    0.83
   7  -2  -5    5.94    0.70
   7  -2  -5    6.81    0.73
  -7   2   5    5.96    0.68
   6  -2  -5    5.21    0.66
   6  -2  -5    7.41    0.68
   6  -2  -5    6.47    0.59
   6  -2  -5    6.50    0.80
  -6   2   5    6.74    0.56
  -6   2   5    6.35    0.68
  -6   2   5    7.01    0.67
   5  -2  -5   77.12    4.64
   5  -2  -5   74.48    5.62
   5  -2  -5   76.47    4.63
   5  -2  -5   77.37    4.82
   5  -2  -5   81.57    4.48
  -5   2   5   83.35    4.78
  -5   2   5   80.57    4.63
  -5   2   5   73.80    5.93
   4  -2  -5   11.30    1.11
   4  -2  -5   12.62    0.91
   4  -2  -5   13.08    1.09
   4  -2  -5   14.00    0.95
   4  -2  -5   14.64    0.91
   4  -2  -5   12.71    0.83
  -4   2   5   13.39    0.89
  -4   2   5   12.21    0.82
  -4   2   5   12.71    1.07
  -4   2   5   12.43    0.91
   3  -2  -5    0.36    0.15
   3  -2  -5    0.34    0.13
   3  -2  -5    0.19    0.19
   3  -2  -5    0.35    0.23
   3  -2  -5    1.11    0.22
  -3   2   5    0.18    0.15
  -3   2   5    0.43    0.17
   2  -2  -5    0.54    0.20
   2  -2  -5    0.52    0.19
  -2   2   5    0.68    0.21
  -2   2   5    0.61    0.18
  -2   2   5    0.47    0.14
   1  -2  -5  468.34   25.94
   1  -2  -5  438.92   26.47
  -1   2   5  454.65   30.16
  -1   2   5  412.82   26.47
  -1   2   5  462.79   25.91
   0  -2  -5   12.23    0.79
   0  -2  -5   12.93    0.87
   0   2   5   11.25    0.97
   0   2   5   13.00    0.85
  -1  -2  -5   44.22    2.65
  -1  -2  -5   38.03    2.62
  -1  -2  -5   47.98    2.68
   1   2   5   46.91    2.64
   1   2   5   43.65    3.08
   1   2   5   41.40    2.91
  -2  -2  -5   81.30    5.30
  -2  -2  -5   75.84    4.79
  -2  -2  -5   87.99    4.95
   2   2   5   82.85    4.79
   2   2   5   79.02    5.32
   2   2   5   78.36    5.60
  -3  -2  -5   89.98    5.23
  -3  -2  -5   83.24    5.77
   3   2   5   87.89    5.82
   3   2   5   91.33    5.24
   3   2   5   88.54    6.12
   3   2   5   90.29    5.88
  -4  -2  -5    5.39    0.56
  -4  -2  -5    5.51    0.54
   4   2   5    6.20    0.77
   4   2   5    7.25    0.77
   4   2   5    6.19    0.54
  -5  -2  -5    1.68    0.36
  -5  -2  -5    2.94    0.34
  -5  -2  -5    1.71    0.48
   5   2   5    2.84    0.34
   5   2   5    1.92    0.49
   5   2   5    2.37    0.58
  -6  -2  -5   11.34    1.28
   6   2   5   15.63    1.33
   6   2   5   13.34    1.23
  -7  -2  -5    5.51    0.84
   7   2   5    6.43    0.93
   9  -3  -5    7.69    1.10
   9  -3  -5    8.66    0.97
  -9   3   5    7.96    0.85
   8  -3  -5    5.71    0.86
   8  -3  -5    6.47    0.76
  -8   3   5    3.52    0.61
   7  -3  -5   56.80    4.31
   7  -3  -5   59.36    3.61
   7  -3  -5   58.15    3.43
  -7   3   5   62.06    3.66
  -7   3   5   53.35    3.48
   6  -3  -5    5.38    0.53
   6  -3  -5    5.86    0.71
   6  -3  -5    4.77    0.63
   6  -3  -5    5.46    0.54
  -6   3   5    4.91    0.51
  -6   3   5    5.07    0.56
   5  -3  -5   18.60    1.12
   5  -3  -5   16.15    1.23
   5  -3  -5   16.28    1.16
   5  -3  -5   16.64    1.39
  -5   3   5   16.89    1.20
  -5   3   5   17.49    1.15
  -5   3   5   16.94    1.25
   4  -3  -5   14.67    1.13
   4  -3  -5   16.24    1.04
   4  -3  -5   16.18    1.29
   4  -3  -5   17.75    1.14
  -4   3   5   16.67    1.10
  -4   3   5   15.38    1.20
  -4   3   5   15.89    1.06
  -4   3   5   17.42    1.13
   3  -3  -5   10.43    0.78
   3  -3  -5    9.56    0.66
   3  -3  -5    9.45    0.86
   3  -3  -5   11.17    0.84
  -3   3   5    8.52    0.79
  -3   3   5    9.98    0.74
  -3   3   5   10.41    0.73
   2  -3  -5  316.87   18.25
   2  -3  -5  304.77   23.55
   2  -3  -5  316.46   17.54
  -2   3   5  294.10   21.19
  -2   3   5  311.25   18.23
  -2   3   5  339.17   18.62
   1  -3  -5   86.04    5.92
   1  -3  -5   77.21    4.82
   1  -3  -5   80.20    4.79
  -1   3   5   81.27    4.77
  -1   3   5   76.40    5.53
   0  -3  -5  108.64    6.99
   0  -3  -5   84.09    5.64
   0  -3  -5   95.71    5.61
   0   3   5   87.61    6.48
   0   3   5   96.41    5.59
  -1  -3  -5   29.01    2.20
  -1  -3  -5   30.67    2.08
  -1  -3  -5   25.70    1.76
   1   3   5   26.03    1.90
   1   3   5   28.18    1.76
   1   3   5   27.38    2.05
  -2  -3  -5  124.18    8.97
  -2  -3  -5  115.24    7.13
  -2  -3  -5  119.05    7.34
   2   3   5  128.00    8.33
   2   3   5  119.16    7.89
   2   3   5  120.69    7.13
  -3  -3  -5   26.26    2.30
  -3  -3  -5   27.99    1.82
   3   3   5   31.32    2.18
   3   3   5   27.60    1.97
   3   3   5   28.20    1.82
   3   3   5   30.49    2.10
  -4  -3  -5   34.92    3.13
  -4  -3  -5   39.61    2.46
   4   3   5   40.51    2.94
   4   3   5   40.82    2.47
   4   3   5   43.24    2.86
  -5  -3  -5    6.71    0.89
  -5  -3  -5    7.32    0.66
   5   3   5    8.33    0.96
   5   3   5    7.24    0.92
  -6  -3  -5    6.17    0.89
   6   3   5    6.73    0.93
   6   3   5    8.22    0.93
  -7  -3  -5    3.05    0.69
   7   3   5    2.88    0.74
   9  -4  -5    1.85    0.64
   9  -4  -5    1.47    0.57
  -9   4   5    1.03    0.60
   8  -4  -5    5.36    0.84
   8  -4  -5    5.59    0.65
   8  -4  -5    6.16    0.81
  -8   4   5    6.15    0.82
  -8   4   5    5.87    0.71
   7  -4  -5   25.03    1.65
   7  -4  -5   25.18    1.70
   7  -4  -5   25.05    2.08
   7  -4  -5   25.90    1.83
  -7   4   5   24.00    1.67
  -7   4   5   26.66    1.76
   6  -4  -5   19.10    1.45
   6  -4  -5   20.47    1.64
   6  -4  -5   19.15    1.35
   6  -4  -5   18.42    1.31
  -6   4   5   21.94    1.40
  -6   4   5   18.75    1.34
   5  -4  -5    5.49    0.61
   5  -4  -5    4.95    0.61
   5  -4  -5    4.33    0.53
   5  -4  -5    4.43    0.49
  -5   4   5    4.76    0.52
  -5   4   5    5.07    0.53
  -5   4   5    5.60    0.51
   4  -4  -5   28.48    1.69
   4  -4  -5   28.49    1.82
   4  -4  -5   30.20    2.08
   4  -4  -5   24.57    1.79
  -4   4   5   29.24    1.80
  -4   4   5   26.12    1.74
  -4   4   5   28.55    1.81
  -4   4   5   27.12    2.00
   3  -4  -5   49.68    3.00
   3  -4  -5   49.90    2.86
   3  -4  -5   48.04    3.05
  -3   4   5   46.29    3.46
  -3   4   5   49.88    3.03
  -3   4   5   53.40    3.06
   2  -4  -5   83.09    4.80
  -2   4   5   82.82    4.78
  -2   4   5   74.28    5.50
   1  -4  -5  276.60   16.26
   1  -4  -5  298.84   20.36
  -1   4   5  269.74   17.30
  -1   4   5  260.54   18.87
  -1   4   5  287.85   16.25
   0  -4  -5    3.41    0.46
   0  -4  -5    2.36    0.40
   0   4   5    3.63    0.41
   0   4   5    3.37    0.34
   0   4   5    2.25    0.43
  -1  -4  -5   36.01    2.44
  -1  -4  -5   37.77    3.02
  -1  -4  -5   43.81    2.85
   1   4   5   38.05    2.43
   1   4   5   38.28    2.83
  -2  -4  -5    1.02    0.36
  -2  -4  -5    1.04    0.29
   2   4   5    1.18    0.37
   2   4   5    0.58    0.27
   2   4   5    1.02    0.29
  -3  -4  -5   13.13    1.38
  -3  -4  -5   14.18    1.10
   3   4   5   18.34    1.38
   3   4   5   16.42    1.30
   3   4   5   15.35    1.11
  -4  -4  -5   11.30    0.90
  -4  -4  -5   10.18    1.14
   4   4   5   13.02    1.12
   4   4   5   11.19    0.90
   4   4   5   10.42    1.12
  -5  -4  -5    5.98    0.91
   5   4   5    9.26    0.97
   5   4   5    9.50    1.03
  -6  -4  -5    8.40    1.06
   6   4   5    8.31    1.03
   7   4   5    0.36    0.57
   9  -5  -5    6.88    0.77
   9  -5  -5    6.41    0.94
   8  -5  -5    1.46    0.43
   8  -5  -5    1.24    0.52
  -8   5   5    1.86    0.57
  -8   5   5    0.65    0.39
   7  -5  -5   28.74    2.10
   7  -5  -5   29.59    2.36
   7  -5  -5   28.53    1.92
   7  -5  -5   31.72    2.00
  -7   5   5   28.98    2.02
  -7   5   5   31.45    1.98
  -7   5   5   29.89    2.17
   6  -5  -5   19.22    1.44
   6  -5  -5   19.26    1.37
   6  -5  -5   22.07    1.54
   6  -5  -5   20.80    1.66
  -6   5   5   20.79    1.44
  -6   5   5   20.05    1.56
  -6   5   5   20.51    1.43
   5  -5  -5   27.98    1.94
   5  -5  -5   29.32    2.18
   5  -5  -5   28.17    1.81
   5  -5  -5   26.79    1.90
  -5   5   5   30.06    1.90
  -5   5   5   32.28    1.94
  -5   5   5   28.76    2.09
  -5   5   5   28.76    2.05
   4  -5  -5   16.48    1.17
   4  -5  -5   14.52    1.15
   4  -5  -5   14.30    1.05
  -4   5   5   16.36    1.22
  -4   5   5   16.99    1.14
  -4   5   5   16.59    1.23
  -4   5   5   14.46    1.12
   3  -5  -5  162.49    8.65
   3  -5  -5  144.73    8.85
   3  -5  -5  157.72    9.07
  -3   5   5  163.73    9.05
  -3   5   5  143.52   10.44
  -3   5   5  147.34    9.61
   2  -5  -5   16.03    1.15
  -2   5   5   16.56    1.11
  -2   5   5   14.48    1.22
  -2   5   5   14.18    1.11
   1  -5  -5   19.05    1.35
   1  -5  -5   19.30    1.54
  -1   5   5   19.32    1.32
  -1   5   5   19.78    1.32
  -1   5   5   17.35    1.48
   0  -5  -5   73.96    5.86
   0  -5  -5   78.82    4.76
   0   5   5   76.18    5.49
   0   5   5   83.71    4.95
   0   5   5   80.10    4.75
  -1  -5  -5    1.27    0.40
  -1  -5  -5    1.80    0.39
   1   5   5    1.47    0.42
   1   5   5    2.46    0.40
  -2  -5  -5   36.08    3.12
  -2  -5  -5   39.16    2.52
   2   5   5   42.41    2.97
   2   5   5   39.47    2.51
   2   5   5   40.76    2.49
  -3  -5  -5    1.30    0.46
  -3  -5  -5    1.53    0.38
   3   5   5    1.55    0.34
   3   5   5    1.65    0.37
   3   5   5    1.74    0.51
   3   5   5    1.64    0.51
  -4  -5  -5   31.57    2.07
  -4  -5  -5   26.57    2.57
   4   5   5   31.30    2.06
   4   5   5   33.12    2.08
   4   5   5   34.30    2.50
   4   5   5   31.13    2.33
  -5  -5  -5   18.01    1.80
   5   5   5   21.50    1.71
   6   5   5    6.11    0.91
   8  -6  -5    9.69    1.13
   8  -6  -5   10.49    0.99
  -8   6   5   11.50    1.16
  -8   6   5   12.73    1.04
   7  -6  -5    1.21    0.40
   7  -6  -5    0.96    0.38
   7  -6  -5    1.53    0.53
  -7   6   5    1.53    0.52
  -7   6   5    1.17    0.38
  -7   6   5    1.54    0.41
   6  -6  -5    9.91    1.04
   6  -6  -5   10.49    0.90
   6  -6  -5   11.35    0.98
  -6   6   5   10.89    0.93
  -6   6   5   12.08    1.05
  -6   6   5   11.06    0.95
   5  -6  -5    2.32    0.41
   5  -6  -5    2.63    0.51
   5  -6  -5    2.16    0.48
  -5   6   5    3.48    0.48
  -5   6   5    2.71    0.48
  -5   6   5    4.09    0.59
  -5   6   5    3.36    0.44
   4  -6  -5   89.13    5.42
   4  -6  -5   83.14    5.31
   4  -6  -5   88.74    5.14
  -4   6   5   95.54    5.42
  -4   6   5   89.02    6.18
  -4   6   5   91.06    5.74
   3  -6  -5   13.01    1.02
   3  -6  -5   11.18    0.95
  -3   6   5   11.07    1.03
  -3   6   5   12.24    0.98
  -3   6   5   12.65    0.97
   2  -6  -5    1.97    0.39
   2  -6  -5    1.77    0.37
   2  -6  -5    1.82    0.43
  -2   6   5    1.50    0.36
  -2   6   5    2.03    0.40
  -2   6   5    1.53    0.39
   1  -6  -5  120.71    8.96
   1  -6  -5  118.35    7.24
  -1   6   5  123.24    7.61
  -1   6   5  116.28    8.36
  -1   6   5  127.26    7.24
   0  -6  -5   -0.23    0.28
   0  -6  -5   -0.17    0.30
   0   6   5    0.11    0.27
   0   6   5   -0.44    0.30
   0   6   5   -0.22    0.26
  -1  -6  -5    4.26    0.64
  -1  -6  -5    4.66    0.60
   1   6   5    4.31    0.66
   1   6   5    4.42    0.57
  -2  -6  -5    3.22    0.53
  -2  -6  -5    3.49    0.59
   2   6   5    3.18    0.64
  -3  -6  -5   53.39    3.40
  -3  -6  -5   47.21    4.18
   3   6   5   56.88    3.41
   3   6   5   58.32    3.75
   3   6   5   54.07    3.97
  -4  -6  -5    5.31    0.66
  -4  -6  -5    4.42    0.76
   4   6   5    4.78    0.64
   4   6   5    4.67    0.74
  -5  -6  -5    1.74    0.55
   5   6   5    1.09    0.59
   6   6   5    1.58    0.59
   7  -7  -5    7.77    0.84
   7  -7  -5    8.43    0.93
   7  -7  -5    7.60    0.97
  -7   7   5    9.47    0.92
  -7   7   5    9.91    0.90
  -7   7   5    8.82    0.99
   6  -7  -5    8.49    0.88
   6  -7  -5    8.36    0.93
   6  -7  -5    8.39    0.81
  -6   7   5    7.90    0.85
  -6   7   5    8.77    0.93
   5  -7  -5    0.78    0.39
   5  -7  -5    0.54    0.41
   5  -7  -5    0.47    0.32
  -5   7   5    0.83    0.35
  -5   7   5    0.12    0.39
   4  -7  -5    2.60    0.54
   4  -7  -5    2.68    0.53
   4  -7  -5    3.57    0.46
  -4   7   5    3.50    0.52
  -4   7   5    3.45    0.54
  -4   7   5    3.89    0.56
   3  -7  -5    6.20    0.76
   3  -7  -5    6.70    0.72
  -3   7   5    6.89    0.77
  -3   7   5    6.49    0.74
  -3   7   5    7.17    0.75
   2  -7  -5  131.25    7.69
   2  -7  -5  115.99    7.45
   2  -7  -5  134.68    9.47
  -2   7   5  125.05    8.07
  -2   7   5  133.77    7.67
  -2   7   5  126.83    8.84
   1  -7  -5   -0.07    0.28
   1  -7  -5    0.19    0.36
   1  -7  -5   -0.16    0.30
  -1   7   5    0.06    0.30
  -1   7   5    0.02    0.30
  -1   7   5    0.05    0.33
   0  -7  -5    8.27    0.87
   0  -7  -5    6.80    0.87
   0   7   5    8.01    0.92
   0   7   5    7.96    0.81
  -1  -7  -5    1.15    0.44
  -1  -7  -5    1.26    0.42
   1   7   5    1.70    0.50
   1   7   5    1.17    0.43
  -2  -7  -5   32.47    2.16
  -2  -7  -5   25.85    2.55
   2   7   5   34.42    2.49
   2   7   5   31.81    2.29
   2   7   5   31.92    2.13
  -3  -7  -5    0.16    0.39
  -3  -7  -5    0.15    0.40
   3   7   5    0.22    0.39
   3   7   5   -0.20    0.43
  -4  -7  -5    5.79    0.88
   4   7   5    5.24    0.81
   7  -8  -5    0.88    0.48
  -7   8   5    0.48    0.43
   6  -8  -5   17.39    1.47
   6  -8  -5   16.22    1.32
   6  -8  -5   20.41    1.48
  -6   8   5   16.40    1.45
  -6   8   5   19.09    1.43
   5  -8  -5   16.87    1.44
   5  -8  -5   18.86    1.46
   5  -8  -5   18.28    1.32
  -5   8   5   17.92    1.46
  -5   8   5   19.95    1.44
   4  -8  -5   23.07    1.68
   4  -8  -5   23.02    1.56
   4  -8  -5   23.98    1.73
  -4   8   5   22.55    1.70
  -4   8   5   23.98    1.70
   3  -8  -5   19.12    1.51
   3  -8  -5   22.51    1.60
  -3   8   5   22.59    1.56
  -3   8   5   19.75    1.56
   2  -8  -5   12.87    1.08
   2  -8  -5   13.03    1.16
  -2   8   5   13.82    1.14
  -2   8   5   14.23    1.25
  -2   8   5   13.35    1.11
   1  -8  -5   40.56    3.16
   1  -8  -5   39.20    2.68
   1  -8  -5   35.95    2.50
  -1   8   5   40.25    3.01
  -1   8   5   41.55    2.68
  -1   8   5   42.49    2.67
   0  -8  -5    1.03    0.49
   0  -8  -5    1.57    0.40
   0  -8  -5    2.13    0.54
   0   8   5    1.45    0.47
  -1  -8  -5   24.20    1.75
  -1  -8  -5   20.48    1.99
   1   8   5   25.21    1.74
  -2  -8  -5   -0.29    0.39
  -2  -8  -5   -0.22    0.39
   2   8   5   -0.23    0.38
  -3  -8  -5   11.31    1.12
  -3  -8  -5   10.63    1.26
   3   8   5   10.62    1.09
  -7   9   5    6.43    0.85
   6  -9  -5    1.37    0.54
  -6   9   5    0.99    0.55
  -6   9   5    1.86    0.55
   5  -9  -5    9.16    1.08
  -5   9   5    9.79    1.05
  -5   9   5   10.93    1.05
   4  -9  -5   10.64    1.19
   4  -9  -5   12.15    1.14
  -4   9   5   12.50    1.14
  -4   9   5   13.01    1.12
   3  -9  -5   27.64    1.96
   3  -9  -5   27.41    2.08
  -3   9   5   28.73    2.04
  -3   9   5   29.25    2.05
   2  -9  -5    5.52    0.71
   2  -9  -5    5.22    0.81
  -2   9   5    5.03    0.68
  -2   9   5    5.44    0.76
   1  -9  -5    1.10    0.43
   1  -9  -5    0.32    0.48
  -1   9   5    0.19    0.42
   0  -9  -5    6.26    0.87
   0  -9  -5    6.17    0.85
   0   9   5    5.83    0.81
  -1  -9  -5   -0.24    0.43
  -1  -9  -5   -0.35    0.44
  -1  -9  -5    0.76    0.60
   1   9   5   -0.57    0.40
  -2  -9  -5    4.22    0.74
  -2  -9  -5    2.97    0.72
   2   9   5    3.83    0.71
   4 -10  -5    5.10    0.81
  -4  10   5    6.61    0.84
   3 -10  -5    0.45    0.49
   2 -10  -5    4.84    0.73
   0 -11   6    0.01    0.54
   1 -11   6    8.71    1.21
  -3  11  -6    2.97    0.82
   1  10  -6    4.73    0.95
   1  10  -6    4.33    0.74
  -1 -10   6    4.98    0.90
  -1 -10   6    5.17    0.79
  -1 -10   6    4.41    0.78
   0  10  -6    3.99    0.71
   0  10  -6    4.33    0.89
   0 -10   6    4.85    0.74
   0 -10   6    3.39    0.72
   0 -10   6    5.39    0.89
  -1  10  -6    2.58    0.61
  -1  10  -6    3.28    0.73
  -1  10  -6    3.60    0.90
   1 -10   6    4.02    0.67
   1 -10   6    4.21    0.78
   1 -10   6    2.49    0.64
  -2  10  -6   18.78    1.70
  -2  10  -6   17.44    1.61
  -2  10  -6   14.87    1.41
   2 -10   6   16.12    1.42
   2 -10   6   20.27    1.76
   2 -10   6   15.78    1.66
  -3  10  -6    4.60    0.94
  -3  10  -6    2.70    0.62
  -3  10  -6    2.04    0.73
   3 -10   6    2.49    0.62
  -4  10  -6    4.36    0.92
  -4  10  -6    4.95    0.78
  -4  10  -6    6.74    1.09
   4 -10   6    6.03    0.83
  -5  10  -6    3.03    0.64
   5 -10   6    1.88    0.57
  -6  10  -6    1.78    0.56
   4   9  -6    7.19    0.91
   4   9  -6    7.03    1.06
  -4  -9   6    9.26    0.99
   3   9  -6    0.05    0.39
   3   9  -6   -0.16    0.47
   3   9  -6    0.18    0.50
  -3  -9   6   -0.05    0.46
  -3  -9   6    0.28    0.49
  -3  -9   6    0.79    0.47
   2   9  -6    2.72    0.61
   2   9  -6    2.11    0.56
  -2  -9   6    2.12    0.54
  -2  -9   6    2.03    0.61
  -2  -9   6    1.98    0.65
   1   9  -6   14.78    1.36
   1   9  -6   11.76    1.21
  -1  -9   6   14.26    1.44
  -1  -9   6   15.04    1.54
  -1  -9   6   14.93    1.27
   0   9  -6    8.20    0.92
   0   9  -6    7.10    1.01
   0   9  -6    7.38    0.88
   0  -9   6    7.74    1.07
   0  -9   6    7.33    0.87
   0  -9   6    7.40    0.97
  -1   9  -6    4.27    0.68
  -1   9  -6    4.89    0.76
  -1   9  -6    3.56    0.84
   1  -9   6    3.64    0.69
   1  -9   6    5.27    0.70
   1  -9   6    4.28    0.76
  -2   9  -6   18.09    1.68
  -2   9  -6   18.14    1.47
  -2   9  -6   18.56    1.63
   2  -9   6   18.59    1.71
   2  -9   6   16.26    1.43
   2  -9   6   19.47    1.75
  -3   9  -6   48.32    3.40
  -3   9  -6   49.19    3.75
  -3   9  -6   56.01    3.81
   3  -9   6   52.17    3.43
   3  -9   6   58.48    4.33
  -4   9  -6    0.99    0.62
  -4   9  -6    1.05    0.48
  -4   9  -6    0.91    0.70
   4  -9   6    0.26    0.42
  -5   9  -6   10.75    1.35
  -5   9  -6   12.48    1.37
  -5   9  -6   12.17    1.15
   5  -9   6   12.40    1.13
   5  -9   6   11.14    1.05
  -6   9  -6    5.65    1.03
  -6   9  -6    5.37    0.78
   6  -9   6    8.00    0.86
   6  -9   6    6.12    0.80
   5   8  -6    1.12    0.61
   4   8  -6    0.49    0.46
   4   8  -6    1.27    0.57
   4   8  -6    1.78    0.50
  -4  -8   6    1.00    0.44
  -4  -8   6    1.18    0.54
  -4  -8   6    0.47    0.53
   3   8  -6    5.52    0.83
   3   8  -6    5.58    0.76
   3   8  -6    5.53    0.74
  -3  -8   6    4.58    0.78
  -3  -8   6    6.98    0.78
  -3  -8   6    4.10    0.85
   2   8  -6    3.14    0.59
   2   8  -6    3.93    0.69
  -2  -8   6    3.65    0.62
  -2  -8   6    2.73    0.61
  -2  -8   6    3.25    0.72
   1   8  -6   22.00    1.78
   1   8  -6   24.78    1.77
   1   8  -6   22.34    1.67
  -1  -8   6   23.31    1.67
  -1  -8   6   20.53    2.05
  -1  -8   6   22.33    1.98
   0   8  -6   47.52    3.40
   0   8  -6   52.89    3.68
   0   8  -6   56.03    3.74
   0  -8   6   54.89    4.21
   0  -8   6   58.88    4.40
   0  -8   6   51.65    3.43
  -1   8  -6    0.42    0.37
  -1   8  -6   -0.30    0.47
  -1   8  -6   -0.16    0.54
   1  -8   6    0.04    0.36
   1  -8   6    0.23    0.39
   1  -8   6    0.18    0.33
  -2   8  -6   64.66    4.37
  -2   8  -6   59.09    3.99
  -2   8  -6   68.88    4.45
   2  -8   6   67.04    4.02
   2  -8   6   63.74    5.07
   2  -8   6   60.47    4.92
  -3   8  -6    2.31    0.68
  -3   8  -6    2.45    0.56
  -3   8  -6    2.80    0.76
   3  -8   6    2.95    0.56
   3  -8   6    2.65    0.55
  -4   8  -6   18.45    1.63
  -4   8  -6   15.57    1.37
  -4   8  -6   18.43    1.60
   4  -8   6   19.75    1.40
   4  -8   6   16.70    1.31
  -5   8  -6    0.53    0.41
  -5   8  -6   -0.39    0.62
  -5   8  -6    0.18    0.58
   5  -8   6    1.42    0.44
   5  -8   6    0.84    0.42
  -6   8  -6   11.22    1.04
  -6   8  -6    9.91    1.22
  -6   8  -6   10.10    1.27
   6  -8   6    9.01    1.00
   6  -8   6   12.20    1.02
  -7   8  -6    1.51    0.74
   5   7  -6    0.16    0.37
   5   7  -6    0.57    0.53
   5   7  -6    0.77    0.48
  -5  -7   6    0.85    0.53
  -5  -7   6    0.79    0.55
  -5  -7   6    1.14    0.42
   4   7  -6   11.83    1.09
   4   7  -6   11.42    1.32
   4   7  -6   12.69    1.11
  -4  -7   6   12.12    1.43
  -4  -7   6   14.12    1.12
  -4  -7   6   14.68    1.36
   3   7  -6    4.20    0.61
   3   7  -6    3.61    0.68
  -3  -7   6    4.01    0.77
  -3  -7   6    4.08    0.71
  -3  -7   6    4.27    0.61
   2   7  -6   10.69    1.00
   2   7  -6   10.92    1.01
  -2  -7   6   12.94    1.03
  -2  -7   6   10.13    1.21
  -2  -7   6   11.03    1.16
   1   7  -6   33.02    2.29
   1   7  -6   29.26    2.11
   1   7  -6   31.96    2.31
  -1  -7   6   33.60    2.57
  -1  -7   6   28.93    2.09
  -1  -7   6   30.66    2.68
   0   7  -6   20.86    1.70
   0   7  -6   19.65    1.50
   0   7  -6   21.67    1.67
   0  -7   6   20.01    1.78
   0  -7   6   20.81    1.89
   0  -7   6   19.96    1.48
  -1   7  -6   22.16    1.78
  -1   7  -6   21.97    1.80
  -1   7  -6   22.10    1.61
   1  -7   6   25.67    2.02
   1  -7   6   19.69    1.88
   1  -7   6   23.58    1.61
  -2   7  -6   24.21    1.76
  -2   7  -6   21.01    1.75
  -2   7  -6   20.13    1.54
   2  -7   6   21.93    1.90
   2  -7   6   22.10    1.54
   2  -7   6   19.96    1.82
  -3   7  -6    5.99    0.99
  -3   7  -6    8.09    0.97
  -3   7  -6    8.54    0.87
   3  -7   6    8.88    0.82
  -4   7  -6    4.36    0.80
  -4   7  -6    3.77    0.60
  -4   7  -6    3.16    0.70
   4  -7   6    4.38    0.58
   4  -7   6    3.34    0.55
  -5   7  -6   34.37    2.62
  -5   7  -6   34.14    2.58
  -5   7  -6   36.03    2.34
   5  -7   6   35.73    2.31
   5  -7   6   33.80    2.24
  -6   7  -6    3.65    0.79
  -6   7  -6    3.65    0.82
  -6   7  -6    3.53    0.56
   6  -7   6    3.23    0.51
   6  -7   6    3.33    0.57
  -7   7  -6    0.04    0.66
  -7   7  -6    1.67    0.71
   7  -7   6    0.98    0.51
  -8   7  -6   13.27    1.44
   6   6  -6   -0.39    0.50
   6   6  -6    0.73    0.49
  -6  -6   6    0.32    0.50
   5   6  -6    9.71    0.92
   5   6  -6    7.19    0.83
   5   6  -6    7.72    1.06
  -5  -6   6    9.44    1.05
  -5  -6   6    7.57    1.12
  -5  -6   6    8.21    0.83
   4   6  -6    2.16    0.47
   4   6  -6    3.02    0.52
   4   6  -6    1.74    0.57
  -4  -6   6    1.58    0.58
  -4  -6   6    2.42    0.56
  -4  -6   6    2.52    0.46
   3   6  -6   12.66    1.10
   3   6  -6   15.30    1.33
   3   6  -6   10.76    1.06
  -3  -6   6   12.36    1.38
  -3  -6   6   15.31    1.10
  -3  -6   6   15.67    1.33
   2   6  -6    6.47    0.76
   2   6  -6    7.39    0.79
  -2  -6   6    8.60    0.76
  -2  -6   6    6.25    0.92
  -2  -6   6    8.90    0.90
   1   6  -6   11.58    1.01
   1   6  -6   11.62    1.17
   1   6  -6   12.53    1.12
  -1  -6   6   13.17    1.01
  -1  -6   6   11.32    1.22
  -1  -6   6   13.01    1.19
   0   6  -6   29.01    2.05
   0   6  -6   32.89    2.26
   0   6  -6   30.90    2.26
   0  -6   6   28.94    2.47
   0  -6   6   33.50    2.61
   0  -6   6   30.38    2.04
  -1   6  -6    0.82    0.36
  -1   6  -6    1.44    0.58
  -1   6  -6    1.66    0.50
   1  -6   6    1.06    0.36
   1  -6   6    1.39    0.41
   1  -6   6    1.33    0.36
  -2   6  -6   10.17    1.20
  -2   6  -6   12.24    1.17
  -2   6  -6   11.73    1.02
   2  -6   6   15.10    1.27
   2  -6   6   12.92    1.01
  -3   6  -6    9.14    0.84
  -3   6  -6    7.86    0.95
  -3   6  -6    6.58    0.96
   3  -6   6    8.92    0.82
   3  -6   6    9.82    0.77
  -4   6  -6   41.69    3.07
  -4   6  -6   45.73    2.83
  -4   6  -6   44.92    3.16
   4  -6   6   41.55    2.68
   4  -6   6   45.65    3.01
   4  -6   6   44.39    2.79
  -5   6  -6    0.67    0.55
  -5   6  -6    0.48    0.53
  -5   6  -6   -0.27    0.31
   5  -6   6    0.23    0.34
   5  -6   6    0.24    0.31
  -6   6  -6   10.28    1.12
  -6   6  -6    7.21    0.77
  -6   6  -6   10.89    1.13
   6  -6   6    7.64    0.84
  -7   6  -6   19.37    1.75
  -7   6  -6   19.70    1.66
   7  -6   6   18.63    1.45
  -8   6  -6    8.00    1.18
  -8   6  -6   10.98    1.22
  -7  -5   6    0.90    0.57
  -7  -5   6    1.26    0.57
   6   5  -6   13.03    1.54
   6   5  -6   16.06    1.32
  -6  -5   6   14.99    1.66
  -6  -5   6   18.41    1.56
   5   5  -6    7.39    1.01
   5   5  -6    7.44    0.80
   5   5  -6    7.82    0.86
  -5  -5   6   10.08    1.02
  -5  -5   6    8.02    1.10
  -5  -5   6    7.82    0.77
   4   5  -6   12.54    1.01
   4   5  -6    9.74    0.95
   4   5  -6   11.01    1.20
  -4  -5   6   13.49    1.21
  -4  -5   6   13.61    0.98
  -4  -5   6   11.31    1.29
   3   5  -6   31.30    2.17
   3   5  -6   27.87    2.05
  -3  -5   6   29.36    2.66
  -3  -5   6   35.35    2.56
  -3  -5   6   33.21    2.06
   2   5  -6   11.93    1.00
   2   5  -6   12.28    1.03
  -2  -5   6   12.05    1.26
  -2  -5   6   12.53    0.98
  -2  -5   6   14.38    1.20
   1   5  -6   42.10    2.89
   1   5  -6   43.59    2.96
   1   5  -6   40.20    2.71
  -1  -5   6   42.82    2.69
  -1  -5   6   44.80    3.32
  -1  -5   6   42.77    3.46
   0   5  -6    9.38    0.97
   0   5  -6    9.84    0.84
   0   5  -6    9.51    0.95
   0  -5   6   10.59    1.03
   0  -5   6    9.55    0.94
   0  -5   6    9.82    0.81
  -1   5  -6   22.98    1.69
  -1   5  -6   19.24    1.66
  -1   5  -6   20.39    1.49
   1  -5   6   25.68    1.89
   1  -5   6   21.63    1.79
   1  -5   6   20.20    1.47
  -2   5  -6   24.39    1.88
  -2   5  -6   22.64    1.69
  -2   5  -6   26.43    1.91
   2  -5   6   24.09    1.67
   2  -5   6   24.36    1.73
   2  -5   6   29.20    2.16
  -3   5  -6  122.88    7.90
  -3   5  -6  116.29    7.32
  -3   5  -6  120.64    8.18
   3  -5   6  129.58    7.32
   3  -5   6  121.38    8.03
   3  -5   6  129.88    7.05
  -4   5  -6    1.77    0.52
  -4   5  -6    1.97    0.40
  -4   5  -6    1.34    0.56
   4  -5   6    2.28    0.44
   4  -5   6    1.93    0.37
   4  -5   6    1.64    0.36
  -5   5  -6   47.40    3.30
  -5   5  -6   42.51    2.86
  -5   5  -6   47.81    3.18
   5  -5   6   42.72    2.80
   5  -5   6   48.87    2.86
   5  -5   6   47.89    3.20
  -6   5  -6   22.32    1.70
  -6   5  -6   17.72    1.39
  -6   5  -6   22.98    1.79
   6  -5   6   20.43    1.46
   6  -5   6   22.10    1.68
  -7   5  -6   14.93    1.42
  -7   5  -6   17.01    1.39
   7  -5   6   11.50    1.13
  -8   5  -6    1.34    0.72
  -8   5  -6    0.39    0.61
   8  -5   6    1.31    0.51
   7   4  -6   12.00    1.11
   7   4  -6   10.45    1.37
  -7  -4   6    9.94    1.36
  -7  -4   6   13.47    1.28
   6   4  -6    5.33    0.72
   6   4  -6    4.07    0.79
  -6  -4   6    4.53    0.83
  -6  -4   6    5.13    0.74
   5   4  -6   36.79    3.04
   5   4  -6   36.13    2.44
   5   4  -6   40.64    2.58
  -5  -4   6   33.71    3.22
  -5  -4   6   40.51    2.44
  -5  -4   6   42.46    3.08
   4   4  -6   -0.55    0.31
   4   4  -6    0.01    0.29
   4   4  -6    0.29    0.26
  -4  -4   6    0.08    0.31
  -4  -4   6   -0.16    0.22
  -4  -4   6    0.11    0.32
   3   4  -6   19.98    1.43
  -3  -4   6   21.96    1.42
  -3  -4   6   18.76    1.84
  -3  -4   6   22.77    1.76
   2   4  -6   57.64    3.77
   2   4  -6   66.69    4.14
  -2  -4   6   67.01    4.70
  -2  -4   6   61.66    3.75
  -2  -4   6   55.84    4.86
   1   4  -6   58.27    3.57
   1   4  -6   56.58    3.79
   1   4  -6   58.85    3.93
  -1  -4   6   59.69    3.55
  -1  -4   6   61.82    4.42
  -1  -4   6   54.57    4.58
   0   4  -6  132.35    8.39
   0   4  -6  120.75    8.05
   0   4  -6  119.20    7.52
   0  -4   6  127.49    9.39
   0  -4   6  123.59    7.50
   0  -4   6  139.65    9.73
  -1   4  -6    0.02    0.39
  -1   4  -6    0.12    0.25
  -1   4  -6    0.02    0.35
   1  -4   6   -0.13    0.21
   1  -4   6    0.04    0.21
   1  -4   6    0.14    0.25
  -2   4  -6  280.24   17.59
  -2   4  -6  263.55   16.89
  -2   4  -6  273.08   15.77
   2  -4   6  251.18   17.38
   2  -4   6  282.77   15.74
  -3   4  -6    0.47    0.43
  -3   4  -6    1.12    0.32
  -3   4  -6    0.31    0.38
   3  -4   6    1.34    0.30
   3  -4   6    1.01    0.26
   3  -4   6    1.16    0.32
  -4   4  -6   22.44    1.63
  -4   4  -6   21.01    1.40
  -4   4  -6   20.01    1.65
   4  -4   6   20.87    1.38
   4  -4   6   22.32    1.57
   4  -4   6   19.14    1.36
  -5   4  -6    5.90    0.59
  -5   4  -6    6.91    0.86
  -5   4  -6    4.73    0.78
   5  -4   6    6.02    0.59
   5  -4   6    7.39    0.79
   5  -4   6    8.21    0.68
  -6   4  -6   53.90    3.74
  -6   4  -6   55.84    3.57
   6  -4   6   52.45    3.69
   6  -4   6   49.39    3.20
  -7   4  -6    0.98    0.34
  -7   4  -6    0.97    0.54
  -7   4  -6    0.56    0.57
   7  -4   6    1.31    0.57
   7  -4   6    0.89    0.42
  -8   4  -6    0.73    0.64
   8  -4   6    0.50    0.45
   8  -4   6   -0.37    0.50
  -9   4  -6    6.03    1.03
  -8  -3   6   11.45    1.41
   7   3  -6   -0.23    0.51
   7   3  -6   -0.81    0.38
  -7  -3   6    0.42    0.46
  -7  -3   6   -0.19    0.39
   6   3  -6   23.44    1.53
   6   3  -6   22.53    1.65
  -6  -3   6   21.31    2.08
  -6  -3   6   21.75    1.49
  -6  -3   6   24.56    1.94
   5   3  -6    0.52    0.33
   5   3  -6   -0.07    0.41
   5   3  -6    0.44    0.26
  -5  -3   6    0.13    0.22
  -5  -3   6   -0.02    0.32
  -5  -3   6    0.39    0.38
   4   3  -6   36.93    2.38
   4   3  -6   42.50    3.12
   4   3  -6   41.83    2.62
   4   3  -6   40.70    2.52
  -4  -3   6   40.10    3.32
  -4  -3   6   40.42    2.50
  -4  -3   6   42.08    3.15
   3   3  -6   10.33    0.74
  -3  -3   6    9.77    0.87
  -3  -3   6    6.99    0.91
  -3  -3   6    8.00    0.69
   2   3  -6    1.13    0.28
   2   3  -6    1.08    0.31
  -2  -3   6    1.23    0.30
  -2  -3   6    1.33    0.27
  -2  -3   6    1.23    0.33
   1   3  -6  146.07    8.40
   1   3  -6  148.70    9.32
  -1  -3   6  145.55   10.50
  -1  -3   6  128.16   10.83
  -1  -3   6  144.36    8.37
   0   3  -6  113.69    7.76
   0   3  -6  110.85    7.44
   0   3  -6  118.60    6.98
   0  -3   6  121.01    9.00
   0  -3   6  114.66    6.95
   0  -3   6  128.76    8.72
  -1   3  -6  173.27   10.57
  -1   3  -6  162.88   11.00
  -1   3  -6  160.80    9.87
   1  -3   6  190.84   12.77
   1  -3   6  153.58    9.84
  -2   3  -6   21.46    1.53
  -2   3  -6   18.01    1.46
  -2   3  -6   19.83    1.33
   2  -3   6   20.65    1.30
   2  -3   6   19.29    1.42
   2  -3   6   19.71    1.23
   2  -3   6   19.12    1.26
  -3   3  -6   50.62    3.34
  -3   3  -6   53.24    3.08
  -3   3  -6   50.63    3.46
   3  -3   6   45.23    2.93
   3  -3   6   49.49    3.06
   3  -3   6   50.71    3.39
   3  -3   6   52.84    3.05
  -4   3  -6   20.59    1.35
  -4   3  -6   20.05    1.61
  -4   3  -6   22.07    1.56
  -4   3  -6   20.06    1.63
   4  -3   6   19.45    1.33
   4  -3   6   20.88    1.56
   4  -3   6   20.97    1.34
  -5   3  -6   40.68    2.57
  -5   3  -6   35.71    2.28
  -5   3  -6   37.06    2.68
  -5   3  -6   37.24    2.76
   5  -3   6   38.76    2.66
   5  -3   6   38.46    2.67
   5  -3   6   36.34    2.28
   5  -3   6   34.96    2.27
  -6   3  -6   27.55    1.80
  -6   3  -6   20.93    1.91
  -6   3  -6   24.22    1.88
  -6   3  -6   24.20    1.57
   6  -3   6   24.28    1.89
   6  -3   6   21.18    1.55
  -7   3  -6    0.49    0.47
  -7   3  -6    0.45    0.55
  -7   3  -6   -0.10    0.44
  -7   3  -6   -0.37    0.26
   7  -3   6    0.46    0.39
   7  -3   6    1.55    0.57
  -8   3  -6   13.21    1.49
  -8   3  -6   16.54    1.49
   8  -3   6   17.72    1.55
   8  -3   6   13.76    1.20
   8   2  -6   -0.04    0.43
   8   2  -6    0.03    0.58
  -8  -2   6   -0.07    0.41
   7   2  -6    4.04    0.80
   7   2  -6    3.77    0.60
  -7  -2   6    3.60    0.69
  -7  -2   6    3.97    0.60
   6   2  -6    0.09    0.22
   6   2  -6   -0.14    0.30
   6   2  -6    0.04    0.42
  -6  -2   6    0.16    0.19
  -6  -2   6   -0.13    0.32
  -6  -2   6   -0.08    0.30
   5   2  -6   15.71    1.15
   5   2  -6   15.66    1.10
   5   2  -6   14.86    1.44
   5   2  -6   15.25    1.04
  -5  -2   6   15.61    1.35
  -5  -2   6   15.70    1.07
  -5  -2   6   16.67    1.49
   4   2  -6    1.72    0.46
   4   2  -6    0.72    0.27
   4   2  -6    1.61    0.32
  -4  -2   6    1.02    0.31
  -4  -2   6    1.37    0.27
  -4  -2   6    0.98    0.36
   3   2  -6  112.22    6.34
  -3  -2   6   99.13    8.20
  -3  -2   6  103.99    6.31
  -3  -2   6  112.84    7.92
   2   2  -6    5.76    0.56
   2   2  -6    7.11    0.60
  -2  -2   6    6.13    0.71
  -2  -2   6    6.60    0.64
  -2  -2   6    6.73    0.55
   1   2  -6   17.59    1.12
   1   2  -6   15.88    1.21
  -1  -2   6   14.48    1.39
  -1  -2   6   15.96    1.32
  -1  -2   6   17.65    1.09
   0   2  -6  472.34   28.42
   0   2  -6  470.08   29.66
   0   2  -6  461.51   26.61
   0  -2   6  458.76   34.46
   0  -2   6  431.33   26.58
  -1   2  -6    2.90    0.37
  -1   2  -6    2.66    0.46
  -1   2  -6    3.38    0.44
   1  -2   6    2.82    0.35
  -2   2  -6  149.84    9.20
  -2   2  -6  148.84    8.59
  -2   2  -6  142.85    9.94
  -2   2  -6  156.78    9.61
   2  -2   6  137.97    8.25
   2  -2   6  142.81    8.70
   2  -2   6  147.89    8.57
   2  -2   6  146.29    9.53
  -3   2  -6    0.31    0.21
  -3   2  -6    0.79    0.35
  -3   2  -6    0.78    0.31
  -3   2  -6   -0.11    0.31
   3  -2   6    0.55    0.20
   3  -2   6    0.65    0.20
   3  -2   6    1.42    0.35
  -4   2  -6   89.64    5.44
  -4   2  -6   88.92    5.69
  -4   2  -6   84.44    5.01
  -4   2  -6   81.51    5.88
   4  -2   6   83.06    4.88
   4  -2   6   89.30    5.86
   4  -2   6   81.53    5.01
   4  -2   6   81.39    5.66
  -5   2  -6    8.35    0.62
  -5   2  -6    7.68    0.88
  -5   2  -6    6.89    0.60
  -5   2  -6    6.19    0.83
  -5   2  -6    9.44    0.83
   5  -2   6    8.41    0.92
   5  -2   6    8.25    0.61
   5  -2   6    8.35    0.76
   5  -2   6    7.12    0.67
  -6   2  -6   31.45    2.35
  -6   2  -6   27.91    2.42
  -6   2  -6   34.61    2.21
  -6   2  -6   32.15    2.01
   6  -2   6   27.63    1.98
   6  -2   6   31.93    2.38
   6  -2   6   34.37    2.32
  -7   2  -6   71.20    4.53
  -7   2  -6   64.33    4.68
   7  -2   6   60.40    3.86
   7  -2   6   64.02    4.57
  -8   2  -6   13.49    1.29
  -8   2  -6    9.53    1.23
   8  -2   6   10.81    1.32
   8   1  -6    2.16    0.68
   8   1  -6    1.91    0.54
  -8  -1   6    1.75    0.55
   7   1  -6    0.39    0.36
   7   1  -6   -0.54    0.45
  -7  -1   6    0.17    0.33
   6   1  -6    4.25    0.56
   6   1  -6    3.14    0.67
   6   1  -6    3.37    0.43
   6   1  -6    3.62    0.41
  -6  -1   6    3.73    0.40
  -6  -1   6    3.09    0.59
  -6  -1   6    4.02    0.52
   5   1  -6   11.53    0.86
   5   1  -6   10.87    1.16
   5   1  -6   11.34    0.85
   5   1  -6   13.43    0.93
  -5  -1   6   11.36    1.15
  -5  -1   6   12.76    1.05
  -5  -1   6   10.59    0.82
   4   1  -6   46.95    2.71
   4   1  -6   41.57    3.32
   4   1  -6   44.69    2.80
  -4  -1   6   43.01    3.53
  -4  -1   6   44.75    3.35
  -4  -1   6   44.79    2.69
   3   1  -6   50.53    2.77
   3   1  -6   37.94    3.40
   3   1  -6   46.78    2.82
  -3  -1   6   47.74    2.60
  -3  -1   6   41.87    3.55
  -3  -1   6   46.71    3.39
  -3  -1   6   44.92    2.73
   2   1  -6   80.03    6.12
   2   1  -6   85.60    4.92
  -2  -1   6   78.05    6.33
  -2  -1   6   85.29    6.10
  -2  -1   6   84.16    4.89
   1   1  -6    0.52    0.20
   1   1  -6    0.49    0.21
   1   1  -6    0.29    0.23
  -1  -1   6    0.59    0.17
  -1  -1   6    0.34    0.17
  -1  -1   6    0.56    0.23
   0   1  -6   21.21    1.37
   0   1  -6   17.91    1.23
   0  -1   6   18.62    1.36
   0  -1   6   16.90    1.19
  -1   1  -6  137.65    8.06
  -1   1  -6  111.60    7.21
  -1   1  -6  128.40    7.68
   1  -1   6  121.69    6.91
   1  -1   6  106.70    7.19
   1  -1   6  132.14    7.73
  -2   1  -6   99.36    6.20
  -2   1  -6   95.72    5.54
  -2   1  -6   89.33    6.42
  -2   1  -6   95.65    5.90
   2  -1   6   95.57    5.52
   2  -1   6   92.30    5.90
   2  -1   6   88.91    5.31
  -3   1  -6  181.40   12.31
  -3   1  -6  176.94   10.57
  -3   1  -6  185.17   11.84
   3  -1   6  175.43   11.80
   3  -1   6  181.41   10.56
   3  -1   6  194.73   11.29
   3  -1   6  174.05   10.21
  -4   1  -6    4.04    0.58
  -4   1  -6    3.29    0.36
  -4   1  -6    4.29    0.36
  -4   1  -6    2.66    0.52
  -4   1  -6    2.28    0.43
   4  -1   6    3.47    0.56
   4  -1   6    3.61    0.49
   4  -1   6    4.03    0.42
   4  -1   6    3.95    0.42
   4  -1   6    3.87    0.38
  -5   1  -6   26.38    2.15
  -5   1  -6   28.42    2.02
  -5   1  -6   32.19    1.86
  -5   1  -6   29.52    1.82
  -5   1  -6   29.25    2.26
   5  -1   6   31.64    1.82
   5  -1   6   32.00    2.19
   5  -1   6   26.38    2.19
   5  -1   6   28.77    1.83
  -6   1  -6    7.94    0.89
  -6   1  -6    7.52    0.62
  -6   1  -6    7.23    0.90
   6  -1   6    7.42    0.80
   6  -1   6    6.99    0.94
   6  -1   6    7.17    0.71
  -7   1  -6   13.27    1.38
  -7   1  -6   16.97    1.38
   7  -1   6   13.16    1.40
  -8   1  -6    3.77    0.72
   8  -1   6    2.96    0.79
   9   0  -6    7.53    0.92
   8   0  -6    1.76    0.63
   8   0  -6    1.54    0.49
   7   0  -6    1.15    0.53
   7   0  -6    1.02    0.36
   7   0  -6    1.53    0.41
  -7   0   6    0.83    0.37
   6   0  -6   18.03    1.16
   6   0  -6   16.87    1.22
   6   0  -6   16.76    1.26
   6   0  -6   15.37    1.52
  -6   0   6   17.45    1.14
  -6   0   6   17.53    1.54
   5   0  -6   53.47    3.29
   5   0  -6   52.49    3.89
   5   0  -6   52.24    3.14
   5   0  -6   54.37    3.16
  -5   0   6   49.31    4.09
  -5   0   6   51.31    3.13
   4   0  -6    3.33    0.51
   4   0  -6    2.96    0.37
   4   0  -6    2.83    0.37
  -4   0   6    2.55    0.42
  -4   0   6    2.97    0.35
   3   0  -6  126.82    6.80
   3   0  -6  100.86    8.45
   3   0  -6  113.15    7.00
  -3   0   6  109.50    8.76
  -3   0   6  123.33    6.49
  -3   0   6  119.00    6.77
   2   0  -6  340.23   25.62
   2   0  -6  355.61   20.40
  -2   0   6  360.96   20.38
  -2   0   6  349.20   26.41
   1   0  -6    2.65    0.34
   1   0  -6    2.27    0.31
   1   0  -6    1.97    0.30
  -1   0   6    3.03    0.31
   0   0  -6   72.10    4.80
   0   0  -6   89.32    5.34
   0   0  -6   80.96    5.53
   0   0   6   88.15    5.10
   0   0   6   74.71    4.78
  -1   0  -6   26.99    1.85
  -1   0  -6   22.42    1.60
  -1   0  -6   26.85    1.78
   1   0   6   22.62    1.58
   1   0   6   28.92    1.73
  -2   0  -6  212.41   11.31
  -2   0  -6  205.41   10.88
  -2   0  -6  198.78   13.12
  -2   0  -6  176.32   12.59
   2   0   6  193.66   13.16
   2   0   6  164.50   12.04
   2   0   6  196.17   10.88
   2   0   6  204.64   11.29
  -3   0  -6    4.36    0.55
  -3   0  -6    5.09    0.60
  -3   0  -6    4.28    0.43
   3   0   6    4.41    0.43
   3   0   6    5.72    0.60
   3   0   6    4.50    0.41
   3   0   6    4.21    0.61
  -4   0  -6   56.08    3.17
  -4   0  -6   48.26    3.56
  -4   0  -6   54.86    3.15
  -4   0  -6   48.20    3.72
   4   0   6   56.04    3.72
   4   0   6   47.29    3.61
   4   0   6   54.55    3.14
  -5   0  -6   11.87    1.21
  -5   0  -6   15.68    0.97
  -5   0  -6   15.63    0.96
  -5   0  -6   12.36    1.18
   5   0   6   11.40    1.24
   5   0   6   15.11    1.21
   5   0   6   14.17    0.95
  -6   0  -6   14.96    1.28
  -6   0  -6   12.19    1.29
  -6   0  -6   16.77    1.04
   6   0   6   15.10    1.27
   6   0   6   12.29    1.34
  -7   0  -6   10.41    1.11
   7   0   6    9.17    1.18
  -8   0  -6    1.38    0.56
  -8   0  -6    0.86    0.51
   9  -1  -6   -0.21    0.46
   9  -1  -6   -0.40    0.58
   8  -1  -6   62.68    4.00
   8  -1  -6   60.19    4.71
   8  -1  -6   61.11    3.82
  -8   1   6   63.47    3.95
   7  -1  -6   -0.13    0.35
   7  -1  -6   -0.28    0.43
   7  -1  -6   -0.29    0.30
  -7   1   6   -0.03    0.29
  -7   1   6    0.16    0.28
   6  -1  -6   47.97    3.11
   6  -1  -6   47.75    3.08
   6  -1  -6   51.99    3.82
   6  -1  -6   53.85    3.25
  -6   1   6   56.45    3.23
  -6   1   6   48.06    3.97
  -6   1   6   50.16    3.06
   5  -1  -6    4.61    0.52
   5  -1  -6    2.64    0.38
   5  -1  -6    3.67    0.46
   5  -1  -6    3.51    0.57
  -5   1   6    3.97    0.43
  -5   1   6    4.01    0.48
  -5   1   6    3.37    0.49
   4  -1  -6   64.63    4.79
   4  -1  -6   68.11    3.97
   4  -1  -6   64.31    4.08
  -4   1   6   68.24    4.05
  -4   1   6   63.32    3.94
  -4   1   6   63.48    5.08
  -4   1   6   71.04    3.78
   3  -1  -6  168.49   10.76
   3  -1  -6  183.99   13.48
   3  -1  -6  181.86   10.41
  -3   1   6  181.58   10.39
  -3   1   6  164.32   13.42
  -3   1   6  183.39    9.98
  -3   1   6  183.12   10.62
   2  -1  -6   23.43    1.47
   2  -1  -6   23.57    1.87
   2  -1  -6   21.79    1.41
  -2   1   6   24.13    1.45
  -2   1   6   21.20    1.42
   1  -1  -6    3.53    0.35
   1  -1  -6    2.76    0.36
  -1   1   6    2.73    0.33
  -1   1   6    2.72    0.27
   0  -1  -6   53.07    3.33
   0  -1  -6   51.57    3.46
   0  -1  -6   48.89    3.02
   0   1   6   46.21    3.00
  -1  -1  -6  372.46   22.58
  -1  -1  -6  354.86   20.28
   1   1   6  350.54   20.26
   1   1   6  329.93   21.62
   1   1   6  339.17   23.60
  -2  -1  -6    2.66    0.38
  -2  -1  -6    3.38    0.38
  -2  -1  -6    4.39    0.34
  -2  -1  -6    3.41    0.35
   2   1   6    3.59    0.47
   2   1   6    2.37    0.33
  -3  -1  -6  135.07    9.72
  -3  -1  -6  166.50    8.75
   3   1   6  150.76   10.21
   3   1   6  157.40    8.73
   3   1   6  136.73    9.77
  -4  -1  -6   12.59    1.13
  -4  -1  -6   16.00    1.02
   4   1   6   15.16    1.00
   4   1   6   15.81    1.24
   4   1   6   13.23    1.27
  -5  -1  -6   22.28    1.36
  -5  -1  -6   24.27    1.37
  -5  -1  -6   18.21    1.54
   5   1   6   21.53    1.36
   5   1   6   19.95    1.71
   5   1   6   17.83    1.64
  -6  -1  -6    5.81    0.84
   6   1   6    8.37    0.90
   6   1   6    7.92    0.99
  -7  -1  -6    1.33    0.49
  -7  -1  -6    1.10    0.47
   7   1   6    0.67    0.57
   9  -2  -6   12.00    1.43
   8  -2  -6    5.84    0.75
   8  -2  -6    6.00    0.75
   8  -2  -6    5.56    0.90
   7  -2  -6    3.78    0.71
   7  -2  -6    5.69    0.66
   7  -2  -6    4.14    0.62
  -7   2   6    4.58    0.58
   6  -2  -6   12.08    0.96
   6  -2  -6   14.13    1.26
   6  -2  -6   14.11    1.05
   6  -2  -6   14.53    1.09
  -6   2   6   13.41    0.95
  -6   2   6   12.93    1.18
  -6   2   6   13.85    1.04
   5  -2  -6   76.11    4.38
   5  -2  -6   72.36    4.36
   5  -2  -6   73.87    5.29
   5  -2  -6   74.14    4.53
  -5   2   6   76.19    4.49
  -5   2   6   71.54    4.35
  -5   2   6   67.87    5.57
   4  -2  -6   11.90    1.33
   4  -2  -6   14.62    1.06
   4  -2  -6   17.65    1.11
   4  -2  -6   15.55    1.28
  -4   2   6   16.39    0.96
  -4   2   6   16.55    1.06
  -4   2   6   15.98    1.08
   3  -2  -6   10.14    0.77
   3  -2  -6   10.90    1.02
   3  -2  -6   11.16    0.84
  -3   2   6   12.35    0.82
  -3   2   6   11.73    0.81
   2  -2  -6  114.37    6.64
   2  -2  -6  115.46    8.53
  -2   2   6  105.44    7.67
  -2   2   6  111.66    6.72
  -2   2   6  115.05    6.62
   1  -2  -6    3.16    0.40
  -1   2   6    3.45    0.44
  -1   2   6    3.01    0.36
  -1   2   6    3.35    0.32
   0  -2  -6   72.43    4.16
   0  -2  -6   66.53    4.13
   0   2   6   68.01    4.79
   0   2   6   70.50    4.13
  -1  -2  -6   89.75    5.73
  -1  -2  -6  106.60    5.47
   1   2   6   93.96    6.67
   1   2   6   96.09    5.72
  -2  -2  -6  125.68    8.51
  -2  -2  -6  128.66    7.69
  -2  -2  -6  133.13    7.94
   2   2   6  134.95    7.68
   2   2   6  131.52    8.96
  -3  -2  -6   45.57    2.75
  -3  -2  -6   43.78    2.99
   3   2   6   44.30    3.13
   3   2   6   48.34    3.24
   3   2   6   42.32    2.73
  -4  -2  -6   24.46    1.51
  -4  -2  -6   21.55    1.62
   4   2   6   23.28    1.81
   4   2   6   21.59    1.80
   4   2   6   24.10    1.51
  -5  -2  -6   12.95    1.07
  -5  -2  -6   11.84    1.31
  -5  -2  -6   15.20    1.00
   5   2   6   13.42    1.25
   5   2   6   17.19    1.36
  -6  -2  -6    0.86    0.45
   6   2   6    0.44    0.53
   6   2   6    0.46    0.43
  -7  -2  -6    2.97    0.67
   7   2   6    3.35    0.75
   9  -3  -6    6.82    0.85
   9  -3  -6    4.50    0.89
   8  -3  -6    2.05    0.64
   8  -3  -6    2.49    0.57
  -8   3   6    2.07    0.47
   7  -3  -6    8.10    0.98
   7  -3  -6    6.67    0.82
  -7   3   6    8.27    0.77
  -7   3   6    8.50    0.72
   6  -3  -6   18.98    1.18
   6  -3  -6   17.91    1.22
   6  -3  -6   19.58    1.27
   6  -3  -6   16.08    1.30
   6  -3  -6   15.65    1.48
  -6   3   6   16.52    1.25
  -6   3   6   16.99    1.19
   5  -3  -6    2.15    0.30
   5  -3  -6    1.73    0.33
   5  -3  -6    1.83    0.40
   5  -3  -6    2.14    0.43
   5  -3  -6    1.97    0.35
  -5   3   6    1.73    0.33
  -5   3   6    1.91    0.31
  -5   3   6    1.59    0.31
   4  -3  -6   51.29    2.97
   4  -3  -6   51.46    3.49
   4  -3  -6   48.14    2.94
   4  -3  -6   47.85    2.77
   4  -3  -6   40.69    3.69
   4  -3  -6   46.03    2.97
  -4   3   6   47.83    3.35
  -4   3   6   49.52    2.93
  -4   3   6   50.53    2.99
   3  -3  -6   84.22    5.43
   3  -3  -6   75.34    4.59
   3  -3  -6   74.06    5.82
  -3   3   6   79.83    4.63
  -3   3   6   69.89    5.25
  -3   3   6   74.39    4.56
   2  -3  -6   60.74    4.78
   2  -3  -6   62.31    3.77
  -2   3   6   57.51    4.31
  -2   3   6   65.87    3.77
  -2   3   6   64.53    3.75
   1  -3  -6  168.43   10.41
   1  -3  -6  187.16   12.81
   1  -3  -6  173.55   10.26
  -1   3   6  167.51   11.89
  -1   3   6  177.67   10.24
   0  -3  -6   34.05    2.17
   0  -3  -6   37.43    2.66
   0  -3  -6   31.86    2.11
   0   3   6   33.27    2.49
   0   3   6   35.97    2.15
  -1  -3  -6  232.20   12.12
  -1  -3  -6  221.62   15.86
  -1  -3  -6  211.25   12.64
   1   3   6  210.59   12.62
   1   3   6  203.35   14.69
  -2  -3  -6    0.57    0.32
  -2  -3  -6    0.03    0.17
  -2  -3  -6   -0.06    0.21
   2   3   6   -0.12    0.21
   2   3   6    0.18    0.29
  -3  -3  -6   92.22    5.63
  -3  -3  -6   88.27    7.09
   3   3   6   97.29    6.60
   3   3   6   91.92    5.63
   3   3   6  104.43    6.34
  -4  -3  -6   37.08    2.35
  -4  -3  -6   31.09    2.96
   4   3   6   38.14    2.36
   4   3   6   42.12    2.83
   4   3   6   39.99    2.74
  -5  -3  -6    6.04    0.90
   5   3   6    8.92    0.99
   5   3   6    8.22    0.99
  -6  -3  -6    3.49    0.72
   6   3   6    6.20    0.88
   6   3   6    7.05    0.89
   7   3   6    2.45    0.70
   9  -4  -6    0.70    0.51
   8  -4  -6    0.21    0.42
   8  -4  -6    1.09    0.52
  -8   4   6   -0.30    0.30
   7  -4  -6   29.44    2.08
   7  -4  -6   32.75    2.42
   7  -4  -6   29.27    1.90
   7  -4  -6   29.37    1.97
  -7   4   6   31.68    2.04
  -7   4   6   27.39    1.94
   6  -4  -6    1.56    0.45
   6  -4  -6    1.64    0.44
   6  -4  -6    1.54    0.34
   6  -4  -6    1.22    0.35
  -6   4   6    0.92    0.31
  -6   4   6    1.59    0.35
   5  -4  -6   38.52    2.55
   5  -4  -6   39.00    2.39
   5  -4  -6   40.98    2.99
   5  -4  -6   41.90    2.56
  -5   4   6   40.77    2.53
  -5   4   6   38.87    2.84
  -5   4   6   42.60    2.58
   4  -4  -6    2.68    0.41
   4  -4  -6    3.91    0.51
   4  -4  -6    3.02    0.44
   4  -4  -6    2.86    0.35
  -4   4   6    3.20    0.43
  -4   4   6    2.87    0.40
  -4   4   6    2.91    0.38
   3  -4  -6   99.14    7.32
   3  -4  -6   95.83    5.46
   3  -4  -6   91.89    5.76
  -3   4   6  105.65    5.84
  -3   4   6   98.79    5.75
  -3   4   6   86.94    6.61
   2  -4  -6   77.77    4.61
  -2   4   6   78.55    4.59
  -2   4   6   72.98    5.28
   1  -4  -6  181.71   12.90
   1  -4  -6  166.89   10.34
  -1   4   6  190.06   10.35
  -1   4   6  165.06   11.98
   0  -4  -6   13.20    1.03
   0  -4  -6   15.45    1.23
   0   4   6   13.24    1.01
   0   4   6   13.96    0.97
   0   4   6   13.42    1.17
  -1  -4  -6   28.37    1.80
  -1  -4  -6   25.25    2.17
  -1  -4  -6   24.38    1.71
   1   4   6   30.90    1.80
   1   4   6   28.07    2.06
  -2  -4  -6   84.61    5.06
  -2  -4  -6   74.44    6.30
   2   4   6   95.24    5.92
   2   4   6   82.98    5.04
  -3  -4  -6   20.55    1.40
  -3  -4  -6   15.04    1.71
   3   4   6   24.01    1.71
   3   4   6   20.68    1.63
   3   4   6   21.25    1.40
  -4  -4  -6    0.93    0.40
  -4  -4  -6    0.34    0.29
   4   4   6    0.53    0.45
   4   4   6   -0.01    0.28
   4   4   6    0.96    0.50
  -5  -4  -6    0.46    0.41
   5   4   6   -0.10    0.42
   5   4   6    0.27    0.50
  -6  -4  -6   11.62    1.33
   6   4   6   13.27    1.34
   8  -5  -6   16.86    1.45
   8  -5  -6   18.31    1.27
  -8   5   6   14.96    1.30
  -8   5   6   17.23    1.45
   7  -5  -6    1.19    0.40
   7  -5  -6    0.84    0.37
   7  -5  -6    0.90    0.47
  -7   5   6    1.05    0.50
  -7   5   6    1.32    0.39
  -7   5   6    1.00    0.37
   6  -5  -6   12.83    1.12
   6  -5  -6   11.89    0.95
   6  -5  -6   13.22    1.04
  -6   5   6   12.67    1.14
  -6   5   6   13.02    1.02
  -6   5   6   12.98    1.02
   5  -5  -6    2.29    0.42
   5  -5  -6    2.49    0.47
   5  -5  -6    1.76    0.41
   5  -5  -6    1.67    0.34
  -5   5   6    1.48    0.37
  -5   5   6    2.25    0.39
  -5   5   6    1.90    0.35
   4  -5  -6   55.89    3.18
   4  -5  -6   56.36    3.41
   4  -5  -6   51.90    3.32
  -4   5   6   54.42    3.37
  -4   5   6   50.61    3.82
  -4   5   6   57.69    3.40
   3  -5  -6   33.87    1.93
   3  -5  -6   31.21    2.06
   3  -5  -6   32.26    2.12
  -3   5   6   30.26    2.35
  -3   5   6   31.19    2.19
  -3   5   6   34.95    2.11
   2  -5  -6    6.86    0.73
  -2   5   6    7.22    0.67
  -2   5   6    7.91    0.70
  -2   5   6    7.03    0.74
   1  -5  -6    0.55    0.26
   1  -5  -6    0.13    0.29
  -1   5   6    0.60    0.26
  -1   5   6    0.01    0.28
  -1   5   6    0.17    0.25
   0  -5  -6   20.24    1.80
   0  -5  -6   20.93    1.53
   0   5   6   22.77    1.74
   0   5   6   21.47    1.49
   0   5   6   23.09    1.47
  -1  -5  -6   88.90    5.43
  -1  -5  -6   78.98    6.73
   1   5   6   96.82    6.32
   1   5   6   96.52    5.43
  -2  -5  -6    1.18    0.43
  -2  -5  -6    0.76    0.35
   2   5   6    1.03    0.33
   2   5   6    0.09    0.40
  -3  -5  -6   11.61    0.96
  -3  -5  -6    9.28    1.17
   3   5   6   13.94    1.21
   3   5   6   11.96    0.96
   3   5   6   11.00    1.11
  -4  -5  -6   22.08    1.55
  -4  -5  -6   17.82    1.91
   4   5   6   21.75    1.81
   4   5   6   23.79    1.57
   4   5   6   25.39    1.92
  -5  -5  -6    2.96    0.67
   5   5   6    3.79    0.74
   5   5   6    3.41    0.74
   6   5   6    0.96    0.61
   8  -6  -6    0.99    0.55
  -8   6   6    0.56    0.39
   7  -6  -6   13.81    1.10
   7  -6  -6    9.38    1.13
  -7   6   6   11.91    1.04
  -7   6   6   13.31    1.07
  -7   6   6   13.48    1.19
   6  -6  -6   12.52    1.00
   6  -6  -6   12.82    1.10
   6  -6  -6   12.11    1.13
  -6   6   6   12.53    1.04
  -6   6   6   12.97    1.15
  -6   6   6   13.45    1.06
   5  -6  -6   43.93    2.61
   5  -6  -6   43.08    2.78
   5  -6  -6   41.65    2.79
  -5   6   6   42.92    3.09
  -5   6   6   42.44    2.93
  -5   6   6   43.97    2.78
  -5   6   6   44.34    2.80
   4  -6  -6    1.17    0.40
   4  -6  -6    1.01    0.29
   4  -6  -6    0.77    0.37
  -4   6   6    0.92    0.35
  -4   6   6    0.79    0.32
  -4   6   6    0.91    0.39
   3  -6  -6   10.55    0.91
   3  -6  -6   11.83    1.00
   3  -6  -6   11.70    0.81
  -3   6   6   10.59    0.99
  -3   6   6    9.85    0.94
  -3   6   6   12.49    0.96
   2  -6  -6  168.25    9.89
   2  -6  -6  175.24   12.24
  -2   6   6  159.67   10.43
  -2   6   6  170.88    9.87
  -2   6   6  158.85   11.40
   1  -6  -6    0.05    0.27
   1  -6  -6    0.20    0.35
  -1   6   6    0.27    0.32
  -1   6   6    0.55    0.34
  -1   6   6    0.42    0.28
   0  -6  -6  123.98    7.41
   0  -6  -6  108.47    9.15
   0   6   6  130.42    7.40
   0   6   6  124.79    8.57
   0   6   6  130.70    7.73
  -1  -6  -6    0.37    0.34
  -1  -6  -6   -0.36    0.30
   1   6   6    0.27    0.31
   1   6   6   -0.17    0.36
  -2  -6  -6   18.29    1.91
  -2  -6  -6   22.42    1.62
   2   6   6   22.69    1.60
   2   6   6   27.67    1.93
  -3  -6  -6    1.07    0.43
  -3  -6  -6    1.28    0.47
   3   6   6    1.51    0.55
   3   6   6    1.17    0.41
   3   6   6    1.15    0.56
  -4  -6  -6    9.76    0.93
  -4  -6  -6    7.45    1.05
   4   6   6    7.54    1.01
   4   6   6   10.69    1.18
   5   6   6    0.33    0.53
   7  -7  -6    0.12    0.38
   7  -7  -6    0.85    0.52
  -7   7   6    0.34    0.37
  -7   7   6   -0.32    0.46
  -7   7   6    0.43    0.37
   6  -7  -6   24.80    1.81
   6  -7  -6   25.86    1.85
  -6   7   6   24.17    1.89
  -6   7   6   25.95    1.80
   5  -7  -6    4.73    0.70
   5  -7  -6    4.93    0.69
   5  -7  -6    5.17    0.59
  -5   7   6    5.33    0.73
  -5   7   6    5.61    0.67
   4  -7  -6   36.96    2.14
   4  -7  -6   29.58    2.24
   4  -7  -6   34.18    2.33
  -4   7   6   37.85    2.33
  -4   7   6   32.80    2.38
  -4   7   6   35.41    2.57
   3  -7  -6   32.13    2.23
   3  -7  -6   31.45    2.15
  -3   7   6   30.61    2.24
  -3   7   6   36.69    2.23
  -3   7   6   33.62    2.48
   2  -7  -6   11.23    1.04
   2  -7  -6   12.70    1.12
   2  -7  -6    9.28    0.93
  -2   7   6   11.89    1.11
  -2   7   6   11.03    0.95
  -2   7   6   12.32    1.01
   1  -7  -6   17.39    1.37
   1  -7  -6   16.38    1.52
   1  -7  -6   16.86    1.26
  -1   7   6   16.69    1.50
  -1   7   6   17.93    1.33
  -1   7   6   18.83    1.29
   0  -7  -6    1.46    0.48
   0  -7  -6    1.20    0.45
   0   7   6    1.46    0.49
   0   7   6    1.80    0.44
  -1  -7  -6   23.56    1.73
  -1  -7  -6   22.64    2.04
   1   7   6   23.48    1.70
   1   7   6   25.88    2.01
  -2  -7  -6    0.03    0.37
  -2  -7  -6   -0.15    0.36
   2   7   6   -0.63    0.47
   2   7   6   -0.32    0.34
   2   7   6    0.30    0.45
  -3  -7  -6    9.68    1.29
  -3  -7  -6   13.06    1.14
   3   7   6   11.67    1.22
   3   7   6   13.08    1.31
   3   7   6   12.46    1.10
   4   7   6    2.31    0.63
   7  -8  -6    7.72    0.92
  -7   8   6    7.61    0.90
   6  -8  -6    0.00    0.43
   6  -8  -6   -0.05    0.40
  -6   8   6    0.82    0.43
  -6   8   6    0.00    0.43
   5  -8  -6    6.91    0.87
   5  -8  -6    6.97    0.87
  -5   8   6    7.56    0.86
  -5   8   6    8.53    0.89
   4  -8  -6   17.25    1.46
   4  -8  -6   17.60    1.42
  -4   8   6   18.05    1.53
  -4   8   6   18.67    1.43
  -4   8   6   19.90    1.45
   3  -8  -6   47.79    3.21
   3  -8  -6   42.80    3.07
  -3   8   6   50.45    3.27
  -3   8   6   51.47    3.60
  -3   8   6   52.18    3.19
   2  -8  -6   48.95    3.27
   2  -8  -6   51.47    3.42
  -2   8   6   55.74    3.89
  -2   8   6   52.51    3.48
  -2   8   6   55.91    3.40
   1  -8  -6    1.04    0.44
   1  -8  -6    0.53    0.46
   1  -8  -6    0.31    0.37
  -1   8   6    0.55    0.40
  -1   8   6    0.70    0.46
   0  -8  -6    5.48    0.81
   0  -8  -6    6.13    0.70
   0  -8  -6    6.55    0.83
   0   8   6    6.90    0.90
   0   8   6    6.21    0.76
  -1  -8  -6    0.03    0.43
  -1  -8  -6   -0.25    0.42
   1   8   6   -0.63    0.38
   1   8   6   -0.45    0.35
  -2  -8  -6    9.91    1.05
  -2  -8  -6    7.58    1.06
   2   8   6    9.43    1.00
  -3  -8  -6    1.79    0.55
   3   8   6    1.66    0.54
   6  -9  -6    7.37    0.99
  -6   9   6    7.49    0.92
   5  -9  -6    4.78    0.78
   5  -9  -6    6.27    0.89
  -5   9   6    6.38    0.81
  -5   9   6    5.42    0.79
   4  -9  -6   11.56    1.20
   4  -9  -6   10.54    1.12
  -4   9   6   12.83    1.15
  -4   9   6   11.62    1.08
   3  -9  -6    4.47    0.68
   3  -9  -6    3.78    0.72
  -3   9   6    3.59    0.67
  -3   9   6    4.48    0.66
   2  -9  -6   21.37    1.67
   2  -9  -6   22.18    1.81
  -2   9   6   26.89    1.81
   1  -9  -6    2.74    0.68
   1  -9  -6    2.85    0.58
  -1   9   6    2.95    0.63
   0  -9  -6    0.12    0.50
   0  -9  -6    0.26    0.47
   0   9   6    0.33    0.48
  -1  -9  -6   15.62    1.42
  -1  -9  -6   15.28    1.60
   1   9   6   16.62    1.41
  -4  10   6   -0.27    0.46
   3 -10  -6    0.37    0.49
   2 -10  -6   21.13    1.62
   1 -11   7    0.74    0.59
  -3  11  -7    2.40    0.79
   1  10  -7    1.31    0.80
  -1 -10   7    2.59    0.71
   0  10  -7    1.92    0.78
   0  10  -7    0.37    0.45
   0 -10   7    0.67    0.49
   0 -10   7    1.34    0.62
   0 -10   7    2.39    0.59
  -1  10  -7    7.86    1.16
  -1  10  -7    9.84    1.12
  -1  10  -7    6.85    0.95
   1 -10   7   11.19    1.26
   1 -10   7    8.75    1.00
   1 -10   7    7.99    1.08
  -2  10  -7    0.28    0.73
  -2  10  -7    0.71    0.65
  -2  10  -7    0.31    0.44
   2 -10   7    0.07    0.39
   2 -10   7   -0.18    0.44
   2 -10   7    0.08    0.42
  -3  10  -7    5.27    0.85
  -3  10  -7    8.01    1.08
  -3  10  -7    6.93    1.15
   3 -10   7    8.10    0.93
  -4  10  -7    4.29    0.91
  -4  10  -7    2.85    0.69
   4 -10   7    4.36    0.74
  -5  10  -7   14.13    1.36
   5 -10   7   16.08    1.36
   4   9  -7    1.13    0.64
   3   9  -7    0.63    0.43
   3   9  -7    0.36    0.56
  -3  -9   7    0.61    0.46
   2   9  -7    1.85    0.53
   2   9  -7    2.96    0.66
  -2  -9   7    2.84    0.64
  -2  -9   7    2.18    0.66
  -2  -9   7    2.53    0.58
   1   9  -7    6.09    0.86
   1   9  -7    7.39    0.98
  -1  -9   7    7.46    0.98
  -1  -9   7    8.60    1.11
  -1  -9   7    8.03    0.92
   0   9  -7    9.94    1.01
   0   9  -7    5.69    0.84
   0   9  -7    6.99    0.99
   0  -9   7    9.48    1.15
   0  -9   7    7.13    0.94
   0  -9   7    6.72    0.85
  -1   9  -7    0.78    0.45
  -1   9  -7    0.28    0.64
  -1   9  -7    1.52    0.63
   1  -9   7    0.26    0.41
   1  -9   7    0.06    0.44
   1  -9   7   -0.17    0.36
  -2   9  -7   32.35    2.57
  -2   9  -7   30.45    2.29
  -2   9  -7   36.63    2.58
   2  -9   7   29.64    2.72
   2  -9   7   35.19    2.86
   2  -9   7   34.60    2.30
  -3   9  -7    0.95    0.50
  -3   9  -7    0.86    0.66
  -3   9  -7    1.37    0.74
   3  -9   7    1.12    0.46
  -4   9  -7   29.52    2.15
  -4   9  -7   29.27    2.43
  -4   9  -7   32.01    2.43
   4  -9   7   30.28    2.15
  -5   9  -7   -0.61    0.67
  -5   9  -7    0.35    0.46
  -5   9  -7    0.01    0.64
   5  -9   7    0.41    0.43
   5  -9   7    0.28    0.40
   4   8  -7    2.02    0.53
   4   8  -7    2.22    0.57
   4   8  -7    2.33    0.68
  -4  -8   7    1.77    0.51
  -4  -8   7    1.61    0.57
  -4  -8   7    1.16    0.58
   3   8  -7    1.65    0.58
   3   8  -7    1.91    0.49
  -3  -8   7    1.92    0.49
  -3  -8   7    1.71    0.55
  -3  -8   7    0.90    0.54
   2   8  -7   18.48    1.49
  -2  -8   7   15.82    1.80
  -2  -8   7   21.02    1.51
  -2  -8   7   21.11    1.78
   1   8  -7    8.91    1.07
   1   8  -7    8.77    0.97
   1   8  -7   12.18    1.07
  -1  -8   7    9.48    1.10
  -1  -8   7    9.74    0.98
  -1  -8   7    9.29    1.17
   0   8  -7    1.80    0.64
   0   8  -7    1.95    0.48
   0   8  -7    0.94    0.57
   0  -8   7    0.90    0.46
   0  -8   7    1.81    0.49
   0  -8   7    1.66    0.55
  -1   8  -7   23.94    2.03
  -1   8  -7   25.40    2.03
  -1   8  -7   23.37    1.82
   1  -8   7   25.49    2.19
   1  -8   7   26.64    1.84
   1  -8   7   28.37    2.32
  -2   8  -7    5.61    0.94
  -2   8  -7    4.74    0.72
  -2   8  -7    6.28    0.90
   2  -8   7    6.29    0.88
   2  -8   7    5.98    0.80
   2  -8   7    7.78    0.83
  -3   8  -7   13.33    1.24
  -3   8  -7   15.38    1.45
  -3   8  -7   14.63    1.48
   3  -8   7   16.81    1.27
  -4   8  -7    7.57    0.88
  -4   8  -7    7.22    1.01
  -4   8  -7    7.55    1.10
   4  -8   7    8.87    0.84
   4  -8   7    8.25    0.88
  -5   8  -7    4.68    0.68
  -5   8  -7    4.57    0.85
  -5   8  -7    4.60    0.94
   5  -8   7    4.22    0.65
   5  -8   7    4.38    0.65
  -6   8  -7    5.35    0.97
  -6   8  -7    5.09    0.91
   6  -8   7    4.16    0.67
  -7   8  -7    6.32    1.05
   5   7  -7    2.52    0.69
   5   7  -7    1.91    0.53
   5   7  -7    2.08    0.57
  -5  -7   7    2.25    0.67
  -5  -7   7    2.47    0.61
  -5  -7   7    2.93    0.55
   4   7  -7    4.20    0.65
   4   7  -7    2.81    0.54
   4   7  -7    3.83    0.75
  -4  -7   7    2.98    0.55
  -4  -7   7    3.08    0.64
  -4  -7   7    3.38    0.72
   3   7  -7   13.68    1.23
   3   7  -7   17.73    1.54
  -3  -7   7   12.41    1.55
  -3  -7   7   17.14    1.27
  -3  -7   7   17.66    1.51
   2   7  -7    8.14    0.84
   2   7  -7    6.98    0.85
  -2  -7   7    8.40    0.97
  -2  -7   7    7.44    1.03
  -2  -7   7    8.27    0.85
   1   7  -7    2.81    0.53
   1   7  -7    2.58    0.61
   1   7  -7    3.83    0.76
  -1  -7   7    4.12    0.59
  -1  -7   7    3.66    0.62
  -1  -7   7    3.51    0.67
   0   7  -7    7.52    0.95
   0   7  -7    7.59    0.97
   0   7  -7    6.83    0.80
   0  -7   7    8.41    1.00
   0  -7   7    7.77    0.92
   0  -7   7    9.94    0.84
  -1   7  -7    4.35    0.85
  -1   7  -7    5.84    0.82
  -1   7  -7    4.87    0.67
   1  -7   7    6.57    0.71
   1  -7   7    5.40    0.79
   1  -7   7    4.92    0.72
  -2   7  -7    8.45    1.07
  -2   7  -7    7.54    0.98
  -2   7  -7    7.88    0.86
   2  -7   7    9.80    0.89
   2  -7   7    8.58    1.01
  -3   7  -7    1.94    0.62
  -3   7  -7    1.72    0.71
  -3   7  -7    2.79    0.54
   3  -7   7    2.35    0.47
  -4   7  -7   30.03    2.24
  -4   7  -7   25.72    1.95
  -4   7  -7   31.93    2.27
   4  -7   7   27.79    1.88
   4  -7   7   28.56    1.95
  -5   7  -7    7.06    1.05
  -5   7  -7    8.19    0.87
  -5   7  -7    6.91    0.98
   5  -7   7    8.07    0.80
   5  -7   7    6.92    0.79
  -6   7  -7    6.44    0.99
  -6   7  -7    6.83    1.00
   6  -7   7    6.24    0.76
  -7   7  -7    8.61    1.15
  -7   7  -7    8.69    1.14
   7  -7   7    7.78    0.92
  -8   7  -7    0.41    0.71
   6   6  -7    5.73    0.98
  -6  -6   7    6.14    0.91
  -6  -6   7    7.10    1.08
   5   6  -7    1.85    0.48
   5   6  -7    1.87    0.65
   5   6  -7    2.05    0.56
  -5  -6   7    2.47    0.59
  -5  -6   7    3.31    0.53
  -5  -6   7    2.02    0.62
   4   6  -7   13.03    1.18
   4   6  -7   16.14    1.48
   4   6  -7   14.62    1.22
  -4  -6   7   14.50    1.17
  -4  -6   7   15.19    1.54
  -4  -6   7   14.93    1.42
   3   6  -7   32.79    2.41
   3   6  -7   36.54    2.55
  -3  -6   7   41.25    2.97
  -3  -6   7   35.25    3.11
  -3  -6   7   37.35    2.40
   2   6  -7   14.52    1.23
   2   6  -7   14.15    1.16
  -2  -6   7   12.99    1.44
  -2  -6   7   17.02    1.41
  -2  -6   7   15.49    1.15
   1   6  -7   26.84    1.92
   1   6  -7   28.55    2.07
   1   6  -7   27.75    2.09
  -1  -6   7   26.72    2.43
  -1  -6   7   29.67    1.91
  -1  -6   7   29.87    2.34
   0   6  -7   15.68    1.26
   0   6  -7   11.19    1.06
   0   6  -7   13.92    1.26
   0  -6   7   13.81    1.31
   0  -6   7   11.62    1.21
   0  -6   7   13.47    1.05
  -1   6  -7   32.45    2.42
  -1   6  -7   33.44    2.47
  -1   6  -7   31.24    2.21
   1  -6   7   33.20    2.67
   1  -6   7   35.30    2.78
   1  -6   7   33.92    2.19
  -2   6  -7    0.74    0.37
  -2   6  -7    0.63    0.57
  -2   6  -7    1.66    0.57
   2  -6   7    1.39    0.42
   2  -6   7    0.73    0.33
  -3   6  -7   24.90    1.94
  -3   6  -7   25.35    1.94
  -3   6  -7   20.12    1.67
   3  -6   7   24.56    1.68
   3  -6   7   27.08    1.75
  -4   6  -7    5.00    0.82
  -4   6  -7    6.23    0.91
  -4   6  -7    5.16    0.67
   4  -6   7    6.02    0.65
   4  -6   7    6.05    0.68
   4  -6   7    6.05    0.64
  -5   6  -7   89.23    6.00
  -5   6  -7   91.49    5.53
  -5   6  -7   85.88    6.21
   5  -6   7   91.90    6.08
   5  -6   7   95.51    5.37
   5  -6   7   93.79    5.51
  -6   6  -7    6.98    1.00
  -6   6  -7    9.80    1.13
   6  -6   7    7.73    0.90
   6  -6   7    6.80    0.79
  -7   6  -7    4.56    0.89
  -7   6  -7    3.42    0.85
   7  -6   7    6.09    0.74
  -8   6  -7    5.61    0.97
  -7  -5   7    1.91    0.60
   6   5  -7    0.23    0.52
   6   5  -7    1.10    0.48
  -6  -5   7    0.19    0.47
  -6  -5   7    0.50    0.48
   5   5  -7   39.34    2.61
   5   5  -7   39.71    2.70
   5   5  -7   38.93    3.20
  -5  -5   7   37.82    3.38
  -5  -5   7   41.90    3.21
  -5  -5   7   41.80    2.58
   4   5  -7    6.68    0.74
   4   5  -7    7.23    0.79
   4   5  -7    7.96    0.98
  -4  -5   7    5.92    0.93
  -4  -5   7    6.89    0.72
  -4  -5   7    8.72    0.91
   3   5  -7    1.86    0.41
   3   5  -7    1.92    0.45
  -3  -5   7    2.18    0.53
  -3  -5   7    2.63    0.49
  -3  -5   7    2.27    0.40
   2   5  -7    5.40    0.65
   2   5  -7    5.82    0.71
  -2  -5   7    7.85    0.81
  -2  -5   7    7.04    0.68
  -2  -5   7    6.31    0.84
   1   5  -7   52.91    3.58
   1   5  -7   53.32    3.47
   1   5  -7   52.68    3.26
  -1  -5   7   46.85    4.14
  -1  -5   7   54.66    4.00
  -1  -5   7   51.49    3.22
   0   5  -7   25.92    1.88
   0   5  -7   22.05    1.69
   0   5  -7   24.99    1.91
   0  -5   7   24.63    1.67
   0  -5   7   25.70    2.04
   0  -5   7   26.48    2.16
  -1   5  -7    8.93    0.97
  -1   5  -7    7.14    0.93
  -1   5  -7    8.82    0.82
   1  -5   7    7.53    0.75
   1  -5   7   11.21    1.00
  -2   5  -7  110.36    7.24
  -2   5  -7  108.11    6.99
  -2   5  -7  105.14    6.49
   2  -5   7  112.37    6.47
   2  -5   7  105.94    7.05
  -3   5  -7    0.67    0.52
  -3   5  -7    0.01    0.28
  -3   5  -7    0.61    0.47
   3  -5   7    0.53    0.29
   3  -5   7    0.76    0.30
   3  -5   7    1.19    0.33
  -4   5  -7   57.65    4.01
  -4   5  -7   59.61    3.68
  -4   5  -7   54.38    4.13
   4  -5   7   58.95    4.01
   4  -5   7   63.67    3.56
   4  -5   7   63.37    3.66
  -5   5  -7   21.69    1.53
  -5   5  -7   23.74    1.80
  -5   5  -7   19.93    1.80
   5  -5   7   21.63    1.52
   5  -5   7   22.29    1.51
   5  -5   7   24.75    1.75
  -6   5  -7    9.55    1.19
  -6   5  -7   12.08    1.26
   6  -5   7   10.24    0.94
   6  -5   7   11.86    1.11
  -7   5  -7    1.35    0.63
  -7   5  -7    0.96    0.64
   7  -5   7    1.48    0.49
   7  -5   7    1.01    0.58
  -8   5  -7   -0.73    0.63
   7   4  -7    1.17    0.51
   7   4  -7   -0.09    0.54
  -7  -4   7    1.02    0.50
  -7  -4   7    0.83    0.54
   6   4  -7   28.05    2.03
   6   4  -7   27.44    2.44
  -6  -4   7   25.40    2.52
  -6  -4   7   32.22    2.40
   5   4  -7   -0.01    0.36
   5   4  -7    0.21    0.47
   5   4  -7    0.25    0.30
  -5  -4   7   -0.02    0.35
  -5  -4   7   -0.03    0.37
  -5  -4   7    0.36    0.29
   4   4  -7   38.12    2.44
   4   4  -7   33.47    2.35
   4   4  -7   35.75    2.89
  -4  -4   7   30.54    3.02
  -4  -4   7   42.27    2.93
  -4  -4   7   39.61    2.34
   3   4  -7    1.26    0.34
  -3  -4   7    2.20    0.42
  -3  -4   7    1.24    0.31
  -3  -4   7    0.89    0.40
   2   4  -7    2.16    0.47
   2   4  -7    2.24    0.40
  -2  -4   7    2.01    0.46
  -2  -4   7    2.83    0.43
  -2  -4   7    1.66    0.34
   1   4  -7   60.11    3.86
   1   4  -7   54.61    3.50
  -1  -4   7   61.60    3.49
  -1  -4   7   49.64    4.46
  -1  -4   7   58.52    4.32
   0   4  -7   19.96    1.50
   0   4  -7   22.50    1.69
   0   4  -7   20.16    1.61
   0  -4   7   22.36    1.88
   0  -4   7   22.14    1.47
   0  -4   7   24.24    1.81
  -1   4  -7  204.62   12.92
  -1   4  -7  220.02   14.41
  -1   4  -7  216.94   13.83
   1  -4   7  206.37   12.89
   1  -4   7  254.40   16.73
  -2   4  -7   32.22    2.35
  -2   4  -7   35.21    2.43
  -2   4  -7   33.89    2.16
   2  -4   7   33.22    2.11
   2  -4   7   32.32    2.28
  -3   4  -7  122.87    7.77
  -3   4  -7  118.60    8.06
  -3   4  -7  117.05    7.20
   3  -4   7  124.32    7.18
   3  -4   7  126.11    6.93
   3  -4   7  119.57    7.93
  -4   4  -7   10.17    0.84
  -4   4  -7    9.84    1.07
  -4   4  -7   10.14    1.04
   4  -4   7   10.33    0.82
   4  -4   7   10.83    0.95
   4  -4   7   10.46    0.82
  -5   4  -7   27.86    2.15
  -5   4  -7   28.31    2.08
  -5   4  -7   25.61    1.79
   5  -4   7   30.31    2.08
   5  -4   7   27.85    1.80
   5  -4   7   28.17    1.80
  -6   4  -7   41.00    3.11
  -6   4  -7   45.75    3.01
   6  -4   7   46.02    3.09
   6  -4   7   38.67    2.64
  -7   4  -7    5.11    0.90
  -7   4  -7    4.64    0.81
   7  -4   7    4.36    0.81
   7  -4   7    5.49    0.67
  -8   4  -7    5.11    0.95
   8  -4   7    4.80    0.90
   8  -4   7    5.96    0.74
  -8  -3   7    0.59    0.52
   7   3  -7   13.67    1.56
   7   3  -7   15.22    1.29
  -7  -3   7   17.55    1.46
  -7  -3   7   13.39    1.55
   6   3  -7    1.58    0.38
   6   3  -7    1.83    0.62
   6   3  -7    1.27    0.47
  -6  -3   7    2.41    0.50
  -6  -3   7    2.75    0.60
  -6  -3   7    2.27    0.37
   5   3  -7    5.79    0.87
   5   3  -7    5.88    0.64
   5   3  -7    7.46    0.73
  -5  -3   7    6.76    0.77
  -5  -3   7    6.50    0.63
  -5  -3   7    5.59    0.84
   4   3  -7   12.18    0.94
   4   3  -7   10.01    1.17
   4   3  -7   13.73    0.98
  -4  -3   7   12.80    1.12
  -4  -3   7   12.64    1.25
  -4  -3   7   11.69    0.91
   3   3  -7   40.85    2.50
  -3  -3   7   36.04    3.21
  -3  -3   7   43.17    2.48
  -3  -3   7   39.11    3.06
   2   3  -7   17.24    1.22
   2   3  -7   15.51    1.14
  -2  -3   7   15.68    1.10
  -2  -3   7   15.62    1.32
  -2  -3   7   14.72    1.42
   1   3  -7   90.11    5.56
   1   3  -7   96.62    6.16
  -1  -3   7   94.56    5.54
  -1  -3   7   97.97    6.93
  -1  -3   7   85.91    7.16
   0   3  -7  127.09    7.75
   0   3  -7  134.81    8.26
   0   3  -7  136.01    8.62
   0  -3   7  125.07    7.71
   0  -3   7  132.08   10.01
  -1   3  -7  107.09    6.64
  -1   3  -7  111.12    7.42
  -1   3  -7  120.22    7.11
   1  -3   7  109.39    6.61
  -2   3  -7  208.10   12.64
  -2   3  -7  216.51   13.54
  -2   3  -7  224.89   14.13
   2  -3   7  219.38   12.62
   2  -3   7  217.84   12.83
   2  -3   7  212.34   12.15
   2  -3   7  213.74   13.97
  -3   3  -7   13.50    1.27
  -3   3  -7   15.79    1.25
  -3   3  -7   14.48    1.08
   3  -3   7   15.35    1.06
   3  -3   7   14.86    1.02
   3  -3   7   14.92    1.20
   3  -3   7   16.59    1.01
  -4   3  -7   31.53    2.51
  -4   3  -7   33.99    2.47
  -4   3  -7   33.81    2.14
  -4   3  -7   34.87    2.38
   4  -3   7   35.86    2.13
   4  -3   7   34.54    2.42
   4  -3   7   32.70    2.06
  -5   3  -7   -0.01    0.44
  -5   3  -7    0.34    0.38
  -5   3  -7   -0.23    0.45
  -5   3  -7   -0.30    0.20
   5  -3   7   -0.03    0.28
   5  -3   7    0.05    0.39
   5  -3   7    0.31    0.23
   5  -3   7   -0.21    0.28
  -6   3  -7   20.23    1.53
  -6   3  -7   20.08    1.64
  -6   3  -7   18.13    1.64
   6  -3   7   18.31    1.57
   6  -3   7   16.86    1.30
  -7   3  -7   18.29    1.73
  -7   3  -7   21.13    1.74
   7  -3   7   18.16    1.39
   7  -3   7   20.85    1.74
  -8   3  -7    0.62    0.55
  -8   3  -7    1.51    0.71
   8  -3   7    1.45    0.49
   8  -3   7    1.32    0.68
   8   2  -7    1.51    0.69
   8   2  -7    2.24    0.57
  -8  -2   7    2.05    0.59
   7   2  -7    2.04    0.51
   7   2  -7    0.95    0.58
  -7  -2   7    1.90    0.53
   6   2  -7    2.78    0.66
   6   2  -7    3.96    0.47
   6   2  -7    3.40    0.52
  -6  -2   7    2.61    0.56
  -6  -2   7    3.31    0.52
  -6  -2   7    2.66    0.38
   5   2  -7    2.48    0.35
   5   2  -7    2.10    0.55
   5   2  -7    2.29    0.41
   5   2  -7    1.95    0.36
  -5  -2   7    1.92    0.41
  -5  -2   7    2.06    0.33
  -5  -2   7    1.66    0.46
   4   2  -7   12.37    0.91
   4   2  -7   11.96    0.91
   4   2  -7   11.14    1.17
  -4  -2   7   11.84    0.87
  -4  -2   7   11.62    1.06
  -4  -2   7   11.20    1.15
   3   2  -7   43.69    2.63
  -3  -2   7   44.15    2.60
  -3  -2   7   41.59    3.20
  -3  -2   7   39.06    3.36
   2   2  -7    5.68    0.58
   2   2  -7    4.64    0.53
  -2  -2   7    4.77    0.63
  -2  -2   7    5.14    0.50
  -2  -2   7    5.35    0.57
   1   2  -7    0.51    0.30
   1   2  -7    0.03    0.22
  -1  -2   7    0.74    0.27
  -1  -2   7    0.02    0.19
   0   2  -7   43.67    2.95
   0   2  -7   55.75    3.30
   0  -2   7   45.50    2.92
  -1   2  -7  285.41   18.67
  -1   2  -7  345.40   20.84
  -1   2  -7  348.00   19.95
   1  -2   7  297.34   18.65
   1  -2   7  328.76   17.97
  -2   2  -7   32.83    2.08
  -2   2  -7   34.10    2.35
  -2   2  -7   33.98    2.22
  -2   2  -7   32.75    2.40
   2  -2   7   32.93    1.94
   2  -2   7   30.64    2.04
  -3   2  -7   26.62    2.12
  -3   2  -7   29.55    1.98
  -3   2  -7   28.33    2.07
  -3   2  -7   28.32    1.81
   3  -2   7   28.02    1.72
   3  -2   7   28.88    2.05
   3  -2   7   29.27    1.79
  -4   2  -7    1.83    0.33
  -4   2  -7    2.15    0.53
  -4   2  -7    2.16    0.49
  -4   2  -7    2.82    0.52
   4  -2   7    2.78    0.48
   4  -2   7    3.17    0.37
   4  -2   7    1.75    0.33
   4  -2   7    2.71    0.52
  -5   2  -7   16.05    1.31
  -5   2  -7   18.39    1.43
  -5   2  -7   15.51    1.42
  -5   2  -7   16.32    1.11
   5  -2   7   16.04    1.40
   5  -2   7   17.50    1.34
   5  -2   7   16.81    1.15
   5  -2   7   15.72    1.10
  -6   2  -7   19.78    1.70
  -6   2  -7   21.90    1.59
  -6   2  -7   18.74    1.73
   6  -2   7   22.28    1.62
   6  -2   7   20.24    1.71
   6  -2   7   18.22    1.37
  -7   2  -7    4.28    0.81
  -7   2  -7    4.23    0.77
   7  -2   7    4.16    0.59
   7  -2   7    3.00    0.76
  -8   2  -7    4.89    0.86
   8   1  -7    0.11    0.42
   8   1  -7   -0.46    0.52
   7   1  -7    2.39    0.66
   7   1  -7    2.32    0.50
  -7  -1   7    2.29    0.53
   6   1  -7    4.38    0.52
   6   1  -7    4.55    0.59
   6   1  -7    5.27    0.80
   6   1  -7    3.24    0.48
  -6  -1   7    5.70    0.62
  -6  -1   7    4.70    0.49
  -6  -1   7    4.89    0.70
   5   1  -7   42.95    2.73
   5   1  -7   41.86    2.58
   5   1  -7   42.17    3.25
   5   1  -7   41.35    2.61
  -5  -1   7   39.68    3.40
  -5  -1   7   46.24    3.23
  -5  -1   7   41.40    2.59
   4   1  -7   55.87    4.27
   4   1  -7   57.12    3.50
   4   1  -7   57.92    3.60
  -4  -1   7   59.18    3.48
  -4  -1   7   55.59    4.52
  -4  -1   7   59.47    4.31
   3   1  -7   89.48    5.43
   3   1  -7   89.06    5.27
  -3  -1   7   91.07    6.54
  -3  -1   7   87.93    5.01
  -3  -1   7   81.29    6.80
  -3  -1   7   92.29    5.25
   2   1  -7   51.16    3.28
  -2  -1   7   60.45    3.70
  -2  -1   7   48.51    4.20
  -2  -1   7   54.99    3.27
   1   1  -7  214.32   14.11
   1   1  -7  215.42   12.70
  -1  -1   7  199.10   16.40
  -1  -1   7  227.99   12.68
  -1  -1   7  229.63   14.64
   0   1  -7  433.50   25.25
   0   1  -7  358.01   22.65
   0  -1   7  378.82   22.64
  -1   1  -7    8.21    0.79
  -1   1  -7    9.11    0.78
  -1   1  -7    7.17    0.67
   1  -1   7    6.74    0.64
   1  -1   7    9.02    0.55
  -2   1  -7   68.07    4.22
  -2   1  -7   72.06    4.72
  -2   1  -7   69.14    4.89
   2  -1   7   69.80    4.02
   2  -1   7   73.88    4.21
  -3   1  -7   11.40    0.85
  -3   1  -7   10.77    1.03
  -3   1  -7   12.34    1.02
   3  -1   7   11.06    1.01
   3  -1   7   11.40    0.80
   3  -1   7   12.01    0.83
  -4   1  -7   49.37    3.62
  -4   1  -7   57.11    3.88
  -4   1  -7   57.41    4.03
  -4   1  -7   57.99    3.40
   4  -1   7   60.54    3.39
   4  -1   7   55.59    3.29
   4  -1   7   53.15    3.87
   4  -1   7   60.38    3.99
  -5   1  -7    6.64    0.55
  -5   1  -7    6.30    0.58
  -5   1  -7    6.64    0.83
  -5   1  -7    6.71    0.84
   5  -1   7    8.03    0.80
   5  -1   7    7.69    0.65
   5  -1   7    7.52    0.61
   5  -1   7    6.56    0.88
  -6   1  -7   20.45    1.87
  -6   1  -7   19.97    1.80
   6  -1   7   22.37    1.87
   6  -1   7   27.68    1.83
  -7   1  -7    6.52    0.93
  -7   1  -7    7.19    0.92
   7  -1   7    6.20    0.95
   8   0  -7    4.93    0.89
   8   0  -7    4.66    0.67
  -8   0   7    4.60    0.64
   7   0  -7    0.28    0.33
   7   0  -7    0.17    0.37
   7   0  -7    0.20    0.49
  -7   0   7    0.24    0.31
   6   0  -7  101.57    5.91
   6   0  -7   97.20    5.94
   6   0  -7  104.43    6.21
   6   0  -7  100.17    7.29
  -6   0   7  102.16    5.92
  -6   0   7   95.78    7.71
   5   0  -7    5.61    0.61
   5   0  -7    7.22    0.66
   5   0  -7    9.94    0.93
   5   0  -7    6.83    0.67
  -5   0   7    7.28    0.81
  -5   0   7    6.35    0.59
   4   0  -7   82.66    4.96
   4   0  -7   78.57    5.83
   4   0  -7   81.45    4.82
  -4   0   7   82.16    4.79
  -4   0   7   77.67    6.20
   3   0  -7    4.54    0.42
   3   0  -7    4.30    0.49
  -3   0   7    4.10    0.44
  -3   0   7    3.73    0.51
   2   0  -7  103.95    7.80
   2   0  -7  107.93    6.28
  -2   0   7  103.91    8.07
  -2   0   7  108.04    6.24
   1   0  -7   35.61    2.30
   1   0  -7   36.55    2.51
   1   0  -7   37.35    2.80
  -1   0   7   37.97    2.27
   0   0  -7   22.18    1.48
   0   0  -7   23.99    1.59
   0   0  -7   22.06    1.64
   0   0   7   20.84    1.43
  -1   0  -7  127.49    8.14
  -1   0  -7  137.57    9.41
  -1   0  -7  143.60    9.05
   1   0   7  154.41    8.69
   1   0   7  129.86    8.12
  -2   0  -7   69.35    4.75
  -2   0  -7   65.99    4.08
  -2   0  -7   67.05    4.54
  -2   0  -7   73.89    3.89
   2   0   7   72.49    3.89
   2   0   7   65.20    4.75
   2   0   7   67.87    4.07
   2   0   7   63.28    4.33
  -3   0  -7   22.02    1.72
  -3   0  -7   24.80    1.83
  -3   0  -7   24.66    1.54
   3   0   7   24.55    1.52
   3   0   7   20.35    1.78
   3   0   7   26.03    1.82
  -4   0  -7   -0.09    0.36
  -4   0  -7    0.18    0.33
  -4   0  -7   -0.03    0.19
   4   0   7   -0.13    0.31
   4   0   7   -0.06    0.36
   4   0   7    0.19    0.20
  -5   0  -7   12.40    1.24
  -5   0  -7   15.57    0.98
  -5   0  -7   12.85    1.19
   5   0   7   15.39    0.97
   5   0   7   14.49    1.23
   5   0   7   10.75    1.24
  -6   0  -7    1.75    0.56
  -6   0  -7    1.62    0.50
   6   0   7    2.17    0.62
   6   0   7    2.39    0.51
  -7   0  -7    1.92    0.56
   7   0   7    1.37    0.64
   9  -1  -7    5.57    0.80
   8  -1  -7   -0.18    0.53
   8  -1  -7    0.32    0.41
  -8   1   7   -0.09    0.33
   7  -1  -7   16.44    1.26
   7  -1  -7   16.15    1.26
   7  -1  -7   16.01    1.55
  -7   1   7   16.29    1.25
   6  -1  -7   35.90    2.35
   6  -1  -7   37.34    2.41
   6  -1  -7   36.75    2.31
   6  -1  -7   38.76    2.88
  -6   1   7   39.05    2.41
  -6   1   7   32.58    2.93
  -6   1   7   37.61    2.29
   5  -1  -7   21.00    1.43
   5  -1  -7   21.31    1.77
   5  -1  -7   22.72    1.46
   5  -1  -7   21.36    1.46
  -5   1   7   20.78    1.79
  -5   1   7   22.85    1.48
  -5   1   7   19.70    1.40
   4  -1  -7   53.07    3.34
   4  -1  -7   52.20    3.28
   4  -1  -7   51.77    3.94
  -4   1   7   58.21    3.08
  -4   1   7   53.09    3.25
  -4   1   7   52.84    4.18
  -4   1   7   53.99    3.33
   3  -1  -7   96.21    6.06
   3  -1  -7   99.12    5.92
  -3   1   7  103.49    6.01
  -3   1   7  100.02    5.89
   2  -1  -7   80.30    4.82
   2  -1  -7   80.21    4.90
  -2   1   7   80.09    4.80
  -2   1   7   81.98    4.85
   1  -1  -7   10.02    0.73
   1  -1  -7    8.45    0.71
  -1   1   7    8.20    0.68
  -1   1   7    8.22    0.60
   0  -1  -7  219.16   12.72
   0  -1  -7  209.76   14.13
   0  -1  -7  223.84   14.69
   0   1   7  217.89   12.70
   0   1   7  218.46   13.52
  -1  -1  -7    0.07    0.21
  -1  -1  -7   -0.21    0.26
  -1  -1  -7   -0.21    0.24
   1   1   7    0.14    0.20
   1   1   7    0.01    0.26
   1   1   7    0.08    0.23
  -2  -1  -7  210.07   12.14
  -2  -1  -7  192.67   13.49
  -2  -1  -7  231.52   11.67
   2   1   7  211.34   12.12
   2   1   7  192.85   14.12
  -3  -1  -7   34.82    2.01
  -3  -1  -7   27.53    2.18
   3   1   7   32.65    1.98
   3   1   7   28.99    2.31
   3   1   7   34.48    2.37
  -4  -1  -7   33.43    2.49
  -4  -1  -7   29.20    2.29
  -4  -1  -7   36.24    2.07
   4   1   7   29.37    2.42
   4   1   7   37.48    2.07
   4   1   7   30.66    2.45
  -5  -1  -7   12.38    1.15
  -5  -1  -7   15.55    1.01
  -5  -1  -7   13.57    1.30
   5   1   7   12.64    1.32
   5   1   7   16.89    1.31
  -6  -1  -7    2.64    0.59
   6   1   7    5.16    0.72
   6   1   7    4.25    0.79
  -7  -1  -7   14.71    1.43
   7   1   7   11.91    1.42
   9  -2  -7    1.32    0.53
   9  -2  -7    1.15    0.67
   8  -2  -7   16.96    1.39
   8  -2  -7   18.57    1.71
   8  -2  -7   17.91    1.43
  -8   2   7   18.42    1.38
   7  -2  -7   10.56    0.98
   7  -2  -7   10.77    0.91
   7  -2  -7    8.09    1.06
  -7   2   7    9.71    0.87
  -7   2   7    9.37    0.78
   6  -2  -7    1.65    0.39
   6  -2  -7    2.15    0.46
   6  -2  -7    2.19    0.52
   6  -2  -7    2.01    0.36
  -6   2   7    1.25    0.34
  -6   2   7    2.51    0.35
  -6   2   7    1.77    0.37
   5  -2  -7    2.72    0.40
   5  -2  -7    2.49    0.43
   5  -2  -7    2.76    0.39
   5  -2  -7    2.34    0.50
  -5   2   7    2.44    0.36
  -5   2   7    2.35    0.38
  -5   2   7    2.82    0.39
   4  -2  -7  178.11   10.91
   4  -2  -7  182.13   12.70
   4  -2  -7  177.07   10.57
  -4   2   7  178.29   10.54
  -4   2   7  184.26   10.78
   3  -2  -7   57.19    3.52
  -3   2   7   57.38    3.49
  -3   2   7   58.64    3.53
   2  -2  -7   63.10    3.97
  -2   2   7   68.80    3.97
  -2   2   7   64.29    3.93
   1  -2  -7  204.50   11.69
  -1   2   7  198.40   11.86
  -1   2   7  201.76   11.66
  -1   2   7  193.88   13.55
   0  -2  -7  102.16    6.25
   0   2   7  108.71    6.23
   0   2   7  104.79    7.24
  -1  -2  -7  116.25    7.11
   1   2   7  120.29    8.26
   1   2   7  124.26    7.09
  -2  -2  -7    1.49    0.34
  -2  -2  -7    1.23    0.30
   2   2   7    1.52    0.29
   2   2   7    1.53    0.40
  -3  -2  -7   30.14    2.15
  -3  -2  -7   32.00    1.99
   3   2   7   31.62    1.97
   3   2   7   32.43    2.35
   3   2   7   29.11    2.30
  -4  -2  -7    4.89    0.51
  -4  -2  -7    4.01    0.54
   4   2   7    4.92    0.70
   4   2   7    4.78    0.53
   4   2   7    5.33    0.77
  -5  -2  -7   39.58    3.37
   5   2   7   43.79    3.16
   5   2   7   44.17    3.11
  -6  -2  -7    6.95    1.00
   6   2   7    8.91    1.11
   6   2   7    9.89    1.01
   9  -3  -7    1.16    0.55
   9  -3  -7    1.84    0.66
   8  -3  -7    0.67    0.52
   8  -3  -7    0.64    0.45
  -8   3   7    0.39    0.37
   7  -3  -7    8.20    1.00
   7  -3  -7    8.90    0.79
   7  -3  -7    8.69    0.94
  -7   3   7    8.08    0.80
  -7   3   7    9.37    0.77
   6  -3  -7    0.56    0.37
   6  -3  -7    0.82    0.32
   6  -3  -7    0.28    0.39
   6  -3  -7    0.60    0.33
  -6   3   7    0.10    0.25
  -6   3   7    0.26    0.26
   5  -3  -7   38.94    2.53
   5  -3  -7   41.15    3.01
   5  -3  -7   40.34    2.56
   5  -3  -7   37.13    2.52
  -5   3   7   39.45    2.85
  -5   3   7   41.35    2.51
  -5   3   7   41.97    2.57
   4  -3  -7   33.86    2.40
   4  -3  -7   41.13    2.85
   4  -3  -7   41.32    2.45
  -4   3   7   36.98    2.74
  -4   3   7   39.55    2.43
  -4   3   7   38.99    2.40
   3  -3  -7    3.41    0.47
   3  -3  -7    3.37    0.47
  -3   3   7    4.13    0.46
  -3   3   7    3.40    0.47
  -3   3   7    3.42    0.39
   2  -3  -7   20.48    1.38
  -2   3   7   19.91    1.29
  -2   3   7   19.52    1.33
  -2   3   7   19.43    1.51
   1  -3  -7   40.28    2.54
  -1   3   7   41.74    2.51
  -1   3   7   38.89    2.89
   0  -3  -7   47.09    2.99
   0  -3  -7   46.26    2.93
   0   3   7   50.86    3.46
   0   3   7   50.29    2.98
  -1  -3  -7   43.95    2.55
  -1  -3  -7   42.90    2.75
   1   3   7   45.72    2.73
   1   3   7   44.19    3.18
  -2  -3  -7   14.21    1.12
   2   3   7   16.11    1.31
   2   3   7   15.89    1.10
  -3  -3  -7   32.29    2.83
  -3  -3  -7   34.49    2.26
   3   3   7   39.70    2.68
   3   3   7   34.82    2.25
   3   3   7   36.80    2.62
  -4  -3  -7    1.18    0.32
  -4  -3  -7    2.26    0.51
   4   3   7    1.32    0.58
   4   3   7    1.25    0.34
   4   3   7    1.53    0.49
  -5  -3  -7    0.27    0.40
   5   3   7    0.52    0.48
   5   3   7    0.07    0.49
  -6  -3  -7    1.23    0.51
   6   3   7    2.33    0.62
   6   3   7    1.56    0.66
   9  -4  -7    0.22    0.48
   8  -4  -7    7.33    0.89
  -8   4   7    5.82    0.72
   7  -4  -7   22.32    1.66
   7  -4  -7   21.83    1.54
   7  -4  -7   21.74    1.84
  -7   4   7   21.41    1.54
  -7   4   7   20.54    1.49
   6  -4  -7   72.71    4.54
   6  -4  -7   74.74    4.32
   6  -4  -7   70.24    4.54
   6  -4  -7   73.43    5.40
  -6   4   7   77.43    4.53
  -6   4   7   77.67    4.63
   5  -4  -7    5.01    0.48
   5  -4  -7    5.13    0.62
   5  -4  -7    4.14    0.56
   5  -4  -7    5.10    0.63
  -5   4   7    4.71    0.54
  -5   4   7    5.66    0.56
  -5   4   7    4.78    0.56
   4  -4  -7   69.05    4.43
   4  -4  -7   77.04    5.30
   4  -4  -7   74.42    4.53
  -4   4   7   71.69    5.15
  -4   4   7   77.35    4.55
  -4   4   7   74.76    4.49
   3  -4  -7  186.02   10.99
   3  -4  -7  195.09   13.07
  -3   4   7  194.60   10.96
  -3   4   7  176.75   12.68
  -3   4   7  179.21   11.13
   2  -4  -7   12.89    0.99
  -2   4   7   11.19    1.04
  -2   4   7   12.35    0.94
   1  -4  -7   23.51    1.89
   1  -4  -7   23.64    1.63
  -1   4   7   23.66    1.82
  -1   4   7   24.50    1.59
   0  -4  -7    0.51    0.20
   0  -4  -7    0.61    0.32
   0  -4  -7    0.70    0.30
   0   4   7    0.75    0.23
   0   4   7    0.80    0.34
   0   4   7    0.58    0.27
  -1  -4  -7   19.56    1.74
  -1  -4  -7   18.64    1.42
   1   4   7   21.38    1.63
   1   4   7   21.76    1.42
  -2  -4  -7    6.38    0.70
  -2  -4  -7    5.61    0.83
   2   4   7    8.13    0.71
   2   4   7    8.45    0.86
  -3  -4  -7   27.28    1.91
  -3  -4  -7   24.68    2.39
   3   4   7   32.67    2.24
   3   4   7   27.69    1.91
   3   4   7   34.59    2.32
  -4  -4  -7    6.04    0.65
  -4  -4  -7    4.39    0.76
   4   4   7    6.06    0.66
   4   4   7    5.41    0.84
   4   4   7    7.15    0.90
  -5  -4  -7   15.04    1.59
   5   4   7   16.39    1.54
   5   4   7   17.94    1.55
   6   4   7    8.00    1.11
   6   4   7    8.60    1.13
   8  -5  -7    0.18    0.47
  -8   5   7    0.24    0.38
   7  -5  -7   36.91    2.34
   7  -5  -7   33.10    2.41
  -7   5   7   36.73    2.37
  -7   5   7   33.44    2.29
   6  -5  -7   -0.17    0.31
   6  -5  -7   -0.17    0.37
  -6   5   7    0.13    0.29
  -6   5   7   -0.09    0.28
   5  -5  -7   36.66    2.40
   5  -5  -7   35.59    2.22
   5  -5  -7   37.66    2.42
  -5   5   7   35.73    2.65
  -5   5   7   35.93    2.37
  -5   5   7   39.25    2.39
   4  -5  -7    4.68    0.62
   4  -5  -7    4.34    0.57
   4  -5  -7    4.57    0.44
  -4   5   7    4.23    0.50
  -4   5   7    3.85    0.54
  -4   5   7    4.21    0.54
   3  -5  -7   31.40    2.03
  -3   5   7   30.67    1.98
  -3   5   7   27.95    2.21
   2  -5  -7    0.41    0.35
  -2   5   7    0.84    0.32
  -2   5   7    0.13    0.30
  -2   5   7    0.51    0.32
   1  -5  -7    2.04    0.45
   1  -5  -7    2.08    0.40
  -1   5   7    2.24    0.45
  -1   5   7    2.24    0.41
  -1   5   7    1.53    0.33
   0  -5  -7  146.54    8.72
   0  -5  -7  134.00   10.82
   0   5   7  156.45    8.71
   0   5   7  150.09    9.14
   0   5   7  146.59   10.09
  -1  -5  -7   -0.30    0.30
  -1  -5  -7   -0.09    0.34
   1   5   7    0.57    0.39
   1   5   7    0.00    0.28
  -2  -5  -7   35.04    3.14
  -2  -5  -7   39.32    2.54
   2   5   7   44.37    2.99
   2   5   7   38.75    2.52
  -3  -5  -7    2.96    0.51
  -3  -5  -7    2.50    0.61
   3   5   7    1.68    0.57
   3   5   7    2.43    0.47
   3   5   7    3.18    0.65
  -4  -5  -7   -0.37    0.31
  -4  -5  -7   -0.43    0.35
   4   5   7    0.42    0.50
   4   5   7   -0.14    0.51
   4   5   7   -0.27    0.32
  -5  -5  -7    0.43    0.48
   5   5   7    0.46    0.54
   5   5   7   -0.17    0.55
   7  -6  -7    3.21    0.64
   7  -6  -7    3.31    0.56
  -7   6   7    1.92    0.46
  -7   6   7    2.45    0.50
  -7   6   7    2.54    0.64
   6  -6  -7    3.58    0.64
   6  -6  -7    5.42    0.69
  -6   6   7    4.36    0.70
  -6   6   7    4.01    0.61
  -6   6   7    5.08    0.60
   5  -6  -7   22.31    1.71
   5  -6  -7   23.22    1.73
  -5   6   7   26.29    1.72
  -5   6   7   23.79    1.84
  -5   6   7   25.08    1.81
  -5   6   7   24.27    1.69
   4  -6  -7   79.75    4.80
   4  -6  -7   73.10    4.66
  -4   6   7   82.04    4.77
  -4   6   7   77.60    5.42
  -4   6   7   75.43    5.02
   3  -6  -7   61.60    3.74
   3  -6  -7   55.59    3.60
  -3   6   7   59.27    3.86
  -3   6   7   61.25    3.69
  -3   6   7   57.86    4.20
   2  -6  -7   15.83    1.33
   2  -6  -7   13.23    1.23
  -2   6   7   16.48    1.22
  -2   6   7   16.46    1.34
  -2   6   7   15.08    1.18
   1  -6  -7   43.40    3.48
   1  -6  -7   42.94    2.92
  -1   6   7   45.87    3.32
  -1   6   7   45.86    2.95
  -1   6   7   48.55    2.92
   0  -6  -7   11.13    1.00
   0  -6  -7   10.07    1.09
   0   6   7   11.64    0.96
   0   6   7   10.89    1.09
  -1  -6  -7   18.25    1.36
  -1  -6  -7   13.35    1.54
   1   6   7   18.66    1.55
   1   6   7   20.02    1.34
  -2  -6  -7    1.45    0.48
  -2  -6  -7    0.41    0.39
   2   6   7    0.60    0.49
   2   6   7    0.57    0.37
  -3  -6  -7   21.20    1.57
  -3  -6  -7   19.75    1.93
   3   6   7   21.48    1.55
   3   6   7   23.02    1.89
   3   6   7   20.39    1.75
  -4  -6  -7    2.41    0.64
   4   6   7    2.64    0.70
   4   6   7    2.77    0.71
   7  -7  -7    6.75    0.86
  -7   7   7    6.73    0.80
  -7   7   7    6.55    0.77
   6  -7  -7    0.90    0.46
   6  -7  -7    0.62    0.42
  -6   7   7    1.01    0.44
  -6   7   7    1.17    0.52
   5  -7  -7   19.32    1.51
   5  -7  -7   17.61    1.46
  -5   7   7   18.73    1.46
  -5   7   7   20.54    1.54
   4  -7  -7    5.36    0.72
   4  -7  -7    6.20    0.82
  -4   7   7    6.57    0.77
  -4   7   7    7.10    0.77
  -4   7   7    6.22    0.76
   3  -7  -7   54.70    3.86
   3  -7  -7   66.10    4.06
  -3   7   7   63.24    4.15
  -3   7   7   64.61    4.56
  -3   7   7   71.45    4.04
   2  -7  -7   41.67    2.77
   2  -7  -7   36.51    2.62
  -2   7   7   41.67    3.09
  -2   7   7   43.70    2.74
  -2   7   7   43.85    2.78
   1  -7  -7    3.07    0.59
   1  -7  -7    2.82    0.54
  -1   7   7    3.32    0.59
  -1   7   7    2.33    0.51
   0  -7  -7   20.96    1.63
   0  -7  -7   20.75    1.88
   0   7   7   23.09    1.61
   0   7   7   23.08    1.87
  -1  -7  -7    1.93    0.53
  -1  -7  -7    2.56    0.54
   1   7   7    1.80    0.57
   1   7   7    1.57    0.46
  -2  -7  -7   12.84    1.41
  -2  -7  -7   12.97    1.20
   2   7   7   16.02    1.45
   2   7   7   13.92    1.19
   2   7   7   14.02    1.38
  -3  -7  -7   -0.12    0.41
  -3  -7  -7    0.55    0.45
   3   7   7    0.23    0.55
   3   7   7    0.09    0.57
   3   7   7    0.10    0.41
   4   7   7    2.06    0.66
   7  -8  -7   -0.02    0.41
  -7   8   7   -0.04    0.39
   6  -8  -7    5.99    0.82
  -6   8   7    5.33    0.79
  -6   8   7    4.78    0.72
   5  -8  -7    0.99    0.48
   5  -8  -7    0.90    0.50
  -5   8   7    0.74    0.45
  -5   8   7    0.46    0.43
   4  -8  -7    4.96    0.79
   4  -8  -7    5.61    0.76
  -4   8   7    5.57    0.72
  -4   8   7    6.13    0.78
  -4   8   7    5.64    0.74
   3  -8  -7   32.17    2.17
   3  -8  -7   26.29    2.00
  -3   8   7   29.84    2.33
  -3   8   7   29.68    2.07
  -3   8   7   29.89    2.09
   2  -8  -7    3.35    0.67
   2  -8  -7    2.69    0.54
  -2   8   7    3.32    0.60
  -2   8   7    2.80    0.61
   1  -8  -7    3.93    0.70
   1  -8  -7    3.61    0.60
  -1   8   7    3.49    0.63
  -1   8   7    4.78    0.76
   0  -8  -7    6.26    0.84
   0  -8  -7    5.34    0.81
   0  -8  -7    5.48    0.72
   0   8   7    5.88    0.87
   0   8   7    5.89    0.76
  -1  -8  -7    8.05    0.98
  -1  -8  -7    8.45    1.09
   1   8   7   11.44    1.15
   1   8   7    8.03    0.95
  -2  -8  -7    0.59    0.50
  -2  -8  -7    0.84    0.53
   2   8   7    1.35    0.52
  -3  -8  -7    5.55    0.81
   3   8   7    4.78    0.80
  -5   9   7   11.01    1.08
   4  -9  -7    7.39    0.94
  -4   9   7    9.91    0.99
   3  -9  -7    3.19    0.66
   3  -9  -7    4.53    0.77
   2  -9  -7    5.86    0.78
  -2   9   7    5.51    0.84
   1  -9  -7    4.03    0.64
  -1   9   7    2.99    0.68
   2 -10  -7    1.74    0.58
   0  10  -8    1.71    0.83
   0 -10   8    1.54    0.62
  -1  10  -8    2.49    0.79
  -1  10  -8    2.03    0.83
   1 -10   8    3.94    0.80
  -2  10  -8    8.75    1.12
  -2  10  -8   13.99    1.43
   2 -10   8   12.60    1.19
   2 -10   8   14.46    1.48
  -3  10  -8    0.49    0.69
  -3  10  -8    0.64    0.51
   3 -10   8    0.15    0.47
  -4  10  -8   20.96    1.68
   4 -10   8   19.22    1.62
   3   9  -8    0.06    0.55
   2   9  -8    1.03    0.44
  -2  -9   8    0.76    0.51
  -2  -9   8    1.17    0.48
  -2  -9   8    1.58    0.57
   1   9  -8    4.25    0.71
   1   9  -8    2.50    0.87
  -1  -9   8    3.65    0.79
  -1  -9   8    4.81    0.73
  -1  -9   8    3.89    0.71
   0   9  -8   12.34    1.20
   0   9  -8   12.80    1.36
   0   9  -8   13.78    1.35
   0  -9   8   12.00    1.17
   0  -9   8   14.08    1.38
   0  -9   8   14.09    1.48
  -1   9  -8    9.38    1.10
  -1   9  -8    8.16    0.94
  -1   9  -8    5.78    1.04
   1  -9   8    9.23    1.15
   1  -9   8    8.16    0.93
   1  -9   8    9.14    1.10
  -2   9  -8    1.46    0.74
  -2   9  -8    1.25    0.69
  -2   9  -8    1.33    0.50
   2  -9   8    0.91    0.54
   2  -9   8    2.17    0.53
  -3   9  -8   26.27    2.01
  -3   9  -8   29.58    2.28
  -3   9  -8   24.99    2.26
   3  -9   8   27.85    1.99
  -4   9  -8    2.01    0.58
  -4   9  -8    2.64    0.90
  -4   9  -8    3.68    0.85
   4  -9   8    4.07    0.66
   4  -9   8    3.36    0.58
  -5   9  -8    1.22    0.81
  -5   9  -8    0.90    0.52
   5  -9   8    0.52    0.44
   5  -9   8    1.68    0.51
   4   8  -8    4.32    0.70
   4   8  -8    6.16    0.96
  -4  -8   8    3.94    0.69
  -4  -8   8    5.08    0.84
   3   8  -8    3.69    0.68
   3   8  -8    5.66    0.89
  -3  -8   8    5.22    0.73
  -3  -8   8    4.68    0.86
  -3  -8   8    5.33    0.81
   2   8  -8    0.54    0.40
  -2  -8   8    1.34    0.54
  -2  -8   8    1.24    0.47
  -2  -8   8    1.14    0.51
   1   8  -8   21.24    1.70
   1   8  -8   17.97    1.54
   1   8  -8   21.22    1.72
  -1  -8   8   20.76    1.84
  -1  -8   8   21.10    1.56
  -1  -8   8   19.39    1.94
   0   8  -8   26.43    2.06
   0   8  -8   26.24    2.06
   0   8  -8   23.62    1.86
   0  -8   8   28.65    2.37
   0  -8   8   24.94    2.20
   0  -8   8   24.97    1.84
  -1   8  -8    0.84    0.61
  -1   8  -8    0.27    0.37
  -1   8  -8   -0.12    0.61
   1  -8   8    0.71    0.46
   1  -8   8    0.29    0.36
   1  -8   8    0.43    0.41
  -2   8  -8    8.31    1.05
  -2   8  -8    6.66    1.07
  -2   8  -8    7.25    0.89
   2  -8   8    7.98    0.87
   2  -8   8    7.54    1.01
  -3   8  -8    0.87    0.44
  -3   8  -8   -0.29    0.66
  -3   8  -8    0.57    0.65
   3  -8   8    1.20    0.41
  -4   8  -8   16.12    1.45
  -4   8  -8   21.46    1.74
  -4   8  -8   18.99    1.74
   4  -8   8   18.61    1.45
   4  -8   8   18.50    1.39
  -5   8  -8    4.44    0.71
  -5   8  -8    5.45    1.01
  -5   8  -8    5.32    0.94
   5  -8   8    5.59    0.72
   5  -8   8    7.01    0.77
  -6   8  -8    3.77    0.92
   6  -8   8    2.91    0.59
   5   7  -8    0.51    0.59
   5   7  -8   -0.15    0.36
  -5  -7   8    0.03    0.39
  -5  -7   8   -0.18    0.40
   4   7  -8    1.63    0.48
   4   7  -8    1.17    0.59
   4   7  -8    1.67    0.54
  -4  -7   8    0.79    0.50
  -4  -7   8    1.43    0.56
  -4  -7   8    1.13    0.44
   3   7  -8    0.12    0.34
  -3  -7   8    0.67    0.38
  -3  -7   8    0.54    0.46
  -3  -7   8    0.49    0.44
   2   7  -8   33.21    2.48
   2   7  -8   39.17    2.66
  -2  -7   8   34.68    3.15
  -2  -7   8   39.18    3.03
  -2  -7   8   38.53    2.48
   1   7  -8   29.95    2.24
   1   7  -8   28.22    2.20
   1   7  -8   25.75    2.03
  -1  -7   8   31.45    2.62
  -1  -7   8   32.03    2.05
  -1  -7   8   30.84    2.48
   0   7  -8    4.22    0.61
   0   7  -8    4.26    0.74
   0   7  -8    3.58    0.77
   0  -7   8    3.86    0.64
   0  -7   8    4.54    0.60
   0  -7   8    5.33    0.78
  -1   7  -8   24.51    1.94
  -1   7  -8   21.44    1.67
  -1   7  -8   25.01    1.92
   1  -7   8   24.95    2.11
   1  -7   8   22.36    2.00
   1  -7   8   23.74    1.67
  -2   7  -8    0.85    0.58
  -2   7  -8    0.91    0.40
  -2   7  -8    0.28    0.61
   2  -7   8    1.06    0.38
   2  -7   8    0.59    0.40
  -3   7  -8    2.63    0.55
  -3   7  -8    2.47    0.70
  -3   7  -8    2.35    0.76
   3  -7   8    3.68    0.55
  -4   7  -8   11.93    1.10
  -4   7  -8   14.29    1.40
  -4   7  -8   13.24    1.34
   4  -7   8   12.27    1.04
   4  -7   8   13.35    1.09
  -5   7  -8   27.47    2.25
  -5   7  -8   29.12    2.26
  -5   7  -8   26.37    1.95
   5  -7   8   29.53    1.94
   5  -7   8   27.91    1.90
  -6   7  -8    0.98    0.70
  -6   7  -8    0.16    0.63
   6  -7   8    1.22    0.49
  -7   7  -8    1.77    0.77
  -6  -6   8    0.28    0.47
   5   6  -8    3.72    0.83
   5   6  -8    4.76    0.67
   5   6  -8    5.48    0.73
  -5  -6   8    4.62    0.74
  -5  -6   8    5.00    0.65
  -5  -6   8    3.52    0.79
   4   6  -8    0.42    0.51
   4   6  -8    0.22    0.42
   4   6  -8   -0.08    0.34
  -4  -6   8    0.13    0.41
  -4  -6   8    0.05    0.41
  -4  -6   8   -0.28    0.33
   3   6  -8   18.02    1.48
   3   6  -8   17.16    1.44
  -3  -6   8   20.43    1.43
  -3  -6   8   17.52    1.81
  -3  -6   8   22.95    1.76
   2   6  -8   15.50    1.29
   2   6  -8   16.02    1.38
  -2  -6   8   16.35    1.65
  -2  -6   8   17.38    1.29
  -2  -6   8   19.29    1.57
   1   6  -8   13.25    1.18
   1   6  -8   15.27    1.33
  -1  -6   8   15.33    1.38
  -1  -6   8   17.04    1.18
  -1  -6   8   13.65    1.46
   0   6  -8   54.83    3.64
   0   6  -8   55.71    3.75
   0   6  -8   47.58    3.35
   0  -6   8   55.67    4.14
   0  -6   8   53.40    3.34
   0  -6   8   51.93    4.29
  -1   6  -8    1.32    0.58
  -1   6  -8    1.17    0.58
  -1   6  -8    0.58    0.35
   1  -6   8    0.61    0.32
   1  -6   8    0.89    0.43
  -2   6  -8   24.68    2.02
  -2   6  -8   28.10    2.07
  -2   6  -8   24.34    1.79
   2  -6   8   26.48    1.77
  -3   6  -8    3.61    0.73
  -3   6  -8    4.11    0.79
  -3   6  -8    3.33    0.58
   3  -6   8    4.72    0.53
   3  -6   8    4.20    0.57
   3  -6   8    4.16    0.51
  -4   6  -8   50.17    3.62
  -4   6  -8   48.92    3.28
  -4   6  -8   51.03    3.71
   4  -6   8   52.21    3.54
   4  -6   8   53.55    3.16
   4  -6   8   55.47    3.27
  -5   6  -8   12.45    1.33
  -5   6  -8   12.57    1.30
  -5   6  -8   11.40    1.00
   5  -6   8   10.90    0.99
   5  -6   8   13.71    1.04
   5  -6   8   12.06    1.12
  -6   6  -8    9.06    1.24
  -6   6  -8   11.42    1.30
   6  -6   8   11.23    1.01
   6  -6   8   13.51    1.16
  -7   6  -8    6.68    1.06
  -7   6  -8    7.64    1.06
   7  -6   8    6.36    0.89
   7  -6   8    6.09    0.80
   6   5  -8    4.44    0.87
   6   5  -8    3.51    0.66
  -6  -5   8    4.88    0.75
  -6  -5   8    4.38    0.83
   5   5  -8    0.15    0.34
   5   5  -8    0.05    0.51
   5   5  -8    0.37    0.40
  -5  -5   8    0.34    0.35
  -5  -5   8    0.63    0.47
  -5  -5   8    0.51    0.43
   4   5  -8   56.70    3.81
   4   5  -8   64.22    4.65
   4   5  -8   59.67    3.93
  -4  -5   8   64.77    3.80
  -4  -5   8   54.93    4.91
  -4  -5   8   66.05    4.73
   3   5  -8    0.84    0.35
   3   5  -8    1.04    0.45
  -3  -5   8    1.34    0.45
  -3  -5   8    1.15    0.40
  -3  -5   8    1.21    0.35
   2   5  -8   31.12    2.17
   2   5  -8   32.87    2.35
  -2  -5   8   29.04    2.74
  -2  -5   8   36.50    2.64
  -2  -5   8   33.96    2.15
   1   5  -8   46.12    3.12
   1   5  -8   42.35    2.83
  -1  -5   8   39.87    3.58
  -1  -5   8   46.67    2.81
  -1  -5   8   46.50    3.45
   0   5  -8   16.28    1.36
   0   5  -8   15.42    1.23
   0   5  -8   17.63    1.42
   0  -5   8   15.32    1.50
   0  -5   8   16.58    1.20
   0  -5   8   16.22    1.43
  -1   5  -8   47.42    3.22
  -1   5  -8   50.80    3.48
  -1   5  -8   54.05    3.64
   1  -5   8   49.78    3.40
   1  -5   8   58.48    4.16
   1  -5   8   48.69    3.19
  -2   5  -8    2.35    0.46
  -2   5  -8    1.77    0.57
  -2   5  -8    1.99    0.63
   2  -5   8    2.73    0.44
   2  -5   8    2.48    0.39
  -3   5  -8   75.64    4.98
  -3   5  -8   85.16    5.42
  -3   5  -8   79.11    5.59
   3  -5   8   80.75    5.43
   3  -5   8   88.17    4.78
   3  -5   8   84.75    4.97
  -4   5  -8   13.69    1.12
  -4   5  -8   15.24    1.37
  -4   5  -8   12.69    1.32
   4  -5   8   14.34    1.05
   4  -5   8   13.93    1.18
   4  -5   8   14.73    1.08
  -5   5  -8   43.00    2.94
  -5   5  -8   37.98    2.59
  -5   5  -8   41.01    3.01
   5  -5   8   42.32    2.59
   5  -5   8   40.92    2.88
   5  -5   8   40.31    2.54
  -6   5  -8   18.41    1.65
  -6   5  -8   17.64    1.68
   6  -5   8   20.65    1.61
   6  -5   8   19.03    1.40
  -7   5  -8    1.04    0.70
  -7   5  -8    3.82    0.76
   7  -5   8    2.84    0.55
   7  -5   8    2.94    0.71
  -7  -4   8    1.19    0.55
   6   4  -8    1.10    0.50
   6   4  -8    0.48    0.55
  -6  -4   8    1.10    0.54
  -6  -4   8    1.78    0.39
  -6  -4   8    0.80    0.45
   5   4  -8   17.37    1.39
   5   4  -8   19.74    1.47
   5   4  -8   18.44    1.78
  -5  -4   8   21.65    1.40
  -5  -4   8   17.41    1.82
  -5  -4   8   20.91    1.70
   4   4  -8    0.19    0.36
   4   4  -8    0.11    0.29
  -4  -4   8    0.19    0.33
  -4  -4   8   -0.12    0.33
  -4  -4   8    0.20    0.28
   3   4  -8    0.52    0.32
  -3  -4   8    1.02    0.32
  -3  -4   8    0.71    0.38
  -3  -4   8    1.18    0.37
   2   4  -8    4.12    0.55
   2   4  -8    4.28    0.62
  -2  -4   8    4.71    0.60
  -2  -4   8    4.32    0.69
  -2  -4   8    4.54    0.53
   1   4  -8   31.30    2.22
   1   4  -8   35.92    2.48
  -1  -4   8   36.41    2.21
  -1  -4   8   37.98    2.74
  -1  -4   8   30.73    2.84
   0   4  -8   40.35    2.85
   0   4  -8   38.82    2.56
   0   4  -8   38.61    2.72
   0  -4   8   40.17    2.52
   0  -4   8   42.46    3.28
  -1   4  -8    0.78    0.33
  -1   4  -8    1.02    0.47
  -1   4  -8    0.57    0.48
   1  -4   8    1.30    0.31
  -2   4  -8   11.92    1.08
  -2   4  -8   10.67    1.09
  -2   4  -8   11.46    0.95
   2  -4   8   11.27    0.81
   2  -4   8   11.24    0.94
   2  -4   8   10.17    0.87
  -3   4  -8    9.81    0.94
  -3   4  -8   11.47    1.15
  -3   4  -8   11.76    1.13
   3  -4   8   12.51    0.94
   3  -4   8   12.72    1.02
   3  -4   8   11.64    0.88
  -4   4  -8   21.57    1.61
  -4   4  -8   17.94    1.36
  -4   4  -8   19.93    1.64
   4  -4   8   18.56    1.35
   4  -4   8   19.74    1.53
   4  -4   8   20.40    1.33
  -5   4  -8   13.82    1.39
  -5   4  -8   12.64    1.32
  -5   4  -8   15.33    1.12
   5  -4   8   14.42    1.30
   5  -4   8   16.34    1.13
   5  -4   8   15.60    1.09
  -6   4  -8    6.05    0.92
  -6   4  -8    5.95    0.91
   6  -4   8    5.77    0.67
   6  -4   8    6.27    0.84
  -7   4  -8    3.86    0.86
   7  -4   8    4.24    0.63
   7  -4   8    4.58    0.84
  -8   4  -8   -0.23    0.67
  -8  -3   8    0.82    0.53
   7   3  -8    1.42    0.53
   7   3  -8    1.78    0.71
  -7  -3   8    2.20    0.60
   6   3  -8   19.83    1.87
   6   3  -8   22.67    1.54
   6   3  -8   17.96    1.39
  -6  -3   8   21.27    1.72
  -6  -3   8   17.75    1.86
  -6  -3   8   20.11    1.38
   5   3  -8    8.20    0.76
   5   3  -8    5.86    0.67
   5   3  -8    4.99    0.87
  -5  -3   8    5.31    0.84
  -5  -3   8    7.25    0.66
  -5  -3   8    7.18    0.79
   4   3  -8   11.77    0.92
   4   3  -8   10.16    0.90
  -4  -3   8    9.63    1.12
  -4  -3   8    9.85    0.87
  -4  -3   8   12.35    1.04
   3   3  -8   33.33    2.20
  -3  -3   8   33.53    2.84
  -3  -3   8   33.10    2.67
  -3  -3   8   37.28    2.19
   2   3  -8   10.76    0.93
   2   3  -8   12.61    1.04
  -2  -3   8   12.11    1.06
  -2  -3   8   11.78    1.17
  -2  -3   8   11.47    0.90
   1   3  -8   85.94    5.51
   1   3  -8   83.13    4.99
  -1  -3   8   86.96    4.96
  -1  -3   8   74.89    6.39
   0   3  -8    1.81    0.37
   0   3  -8    1.74    0.49
   0  -3   8    1.31    0.38
   0  -3   8    1.90    0.34
  -1   3  -8   94.16    6.31
  -1   3  -8  114.09    6.74
  -1   3  -8  114.78    7.07
   1  -3   8  101.03    6.28
  -2   3  -8    0.75    0.40
  -2   3  -8    1.05    0.32
  -2   3  -8    0.42    0.45
   2  -3   8    1.12    0.29
   2  -3   8    1.22    0.40
   2  -3   8    1.29    0.25
   2  -3   8    0.84    0.19
  -3   3  -8  108.74    6.47
  -3   3  -8  110.08    6.94
  -3   3  -8  109.03    7.25
   3  -3   8  111.95    6.45
   3  -3   8  106.78    7.15
   3  -3   8  105.42    6.20
  -4   3  -8   15.79    1.22
  -4   3  -8   17.72    1.48
  -4   3  -8   17.88    1.40
   4  -3   8   16.97    1.18
   4  -3   8   17.07    1.21
   4  -3   8   19.15    1.42
  -5   3  -8   23.64    1.64
  -5   3  -8   25.83    1.88
  -5   3  -8   24.03    1.99
  -5   3  -8   23.52    1.99
   5  -3   8   26.50    1.95
   5  -3   8   25.81    1.94
   5  -3   8   24.18    1.63
   5  -3   8   27.67    1.65
  -6   3  -8   13.17    1.22
  -6   3  -8   11.83    1.27
  -6   3  -8   13.27    1.32
   6  -3   8   13.45    1.24
   6  -3   8   12.17    1.00
  -7   3  -8    2.48    0.65
  -7   3  -8    2.18    0.71
   7  -3   8    2.50    0.70
   7  -3   8    2.27    0.52
  -8   3  -8    3.26    0.84
   8  -3   8    3.84    0.62
  -8  -2   8    0.48    0.47
   7   2  -8    9.12    1.22
   7   2  -8   10.42    1.04
  -7  -2   8    9.38    1.14
   6   2  -8    1.98    0.45
   6   2  -8    2.37    0.39
   6   2  -8    2.16    0.66
  -6  -2   8    2.15    0.43
  -6  -2   8    1.74    0.50
  -6  -2   8    1.76    0.34
   5   2  -8   28.04    1.82
   5   2  -8   28.50    2.37
   5   2  -8   25.73    1.86
   5   2  -8   29.68    1.95
  -5  -2   8   32.80    2.29
  -5  -2   8   28.07    1.85
  -5  -2   8   26.36    2.42
   4   2  -8   28.04    1.89
   4   2  -8   30.96    1.92
  -4  -2   8   25.17    2.40
  -4  -2   8   29.06    1.86
  -4  -2   8   30.03    2.27
   3   2  -8   78.91    4.93
  -3  -2   8   85.36    4.90
  -3  -2   8   89.07    6.10
  -3  -2   8   73.45    6.34
   2   2  -8   28.43    1.98
   2   2  -8   28.40    1.84
  -2  -2   8   28.74    2.18
  -2  -2   8   25.31    2.30
  -2  -2   8   28.53    1.80
   1   2  -8   62.91    4.14
   1   2  -8   60.49    3.76
  -1  -2   8   57.66    4.81
  -1  -2   8   65.17    3.73
   0   2  -8  186.85   11.37
   0   2  -8  161.59   10.21
   0  -2   8  172.22   10.18
  -1   2  -8    3.50    0.50
  -1   2  -8    4.43    0.61
   1  -2   8    3.11    0.43
   1  -2   8    4.70    0.39
  -2   2  -8   13.39    1.05
  -2   2  -8   12.19    0.93
  -2   2  -8   10.21    0.89
   2  -2   8   10.64    0.85
   2  -2   8   10.30    0.76
  -3   2  -8    9.28    1.02
  -3   2  -8   10.60    1.02
  -3   2  -8   10.57    0.83
  -3   2  -8   11.74    0.92
   3  -2   8   10.28    0.97
   3  -2   8    9.86    0.80
   3  -2   8    9.67    0.75
  -4   2  -8   26.83    2.24
  -4   2  -8   27.53    1.85
  -4   2  -8   31.35    2.04
  -4   2  -8   29.97    2.20
   4  -2   8   28.85    1.84
   4  -2   8   27.92    1.79
   4  -2   8   30.16    2.20
   4  -2   8   31.67    2.18
  -5   2  -8    1.66    0.55
  -5   2  -8    0.48    0.43
  -5   2  -8    1.26    0.28
  -5   2  -8    0.97    0.46
   5  -2   8    1.53    0.36
   5  -2   8    1.73    0.55
   5  -2   8    0.66    0.39
   5  -2   8    1.16    0.30
  -6   2  -8    9.62    1.11
  -6   2  -8    7.72    1.07
   6  -2   8   12.17    1.05
   6  -2   8    9.81    0.85
   6  -2   8   10.19    1.15
  -7   2  -8    5.99    0.92
  -7   2  -8    5.83    0.88
   7  -2   8    4.36    0.84
   7  -2   8    5.94    0.70
   8   1  -8    1.19    0.52
   8   1  -8    1.25    0.69
   7   1  -8    2.90    0.72
   7   1  -8    2.40    0.53
  -7  -1   8    2.36    0.54
   6   1  -8   24.78    1.73
   6   1  -8   26.56    2.24
   6   1  -8   27.32    1.75
   6   1  -8   27.26    1.85
  -6  -1   8   28.22    1.73
  -6  -1   8   24.99    2.28
   5   1  -8   49.98    3.16
   5   1  -8   49.71    3.93
   5   1  -8   48.02    3.20
   5   1  -8   53.39    3.30
  -5  -1   8   49.64    4.14
  -5  -1   8   60.05    3.93
  -5  -1   8   50.61    3.16
   4   1  -8   90.40    5.86
   4   1  -8   99.70    6.06
  -4  -1   8  110.26    7.29
  -4  -1   8   98.63    5.85
  -4  -1   8   92.18    7.58
   3   1  -8    0.03    0.22
  -3  -1   8   -0.03    0.24
  -3  -1   8   -0.02    0.12
  -3  -1   8    0.20    0.21
   2   1  -8   23.66    1.66
  -2  -1   8   25.62    1.63
  -2  -1   8   26.85    1.78
  -2  -1   8   23.41    2.10
   1   1  -8   33.01    2.16
   1   1  -8   27.82    1.96
  -1  -1   8   30.60    1.94
   0   1  -8   15.42    1.17
   0   1  -8   14.68    1.08
   0  -1   8   14.30    1.04
  -1   1  -8  181.75   10.68
  -1   1  -8  170.76   11.07
  -1   1  -8  149.43    9.57
   1  -1   8  150.05    9.54
  -2   1  -8   96.12    6.14
  -2   1  -8  105.50    7.13
  -2   1  -8  110.78    6.88
   2  -1   8  105.84    5.87
   2  -1   8  100.51    6.13
  -3   1  -8   26.45    1.91
  -3   1  -8   25.38    1.66
  -3   1  -8   26.71    1.98
   3  -1   8   27.15    1.58
   3  -1   8   24.85    1.64
   3  -1   8   22.99    1.90
   3  -1   8   26.05    1.96
  -4   1  -8   16.22    1.36
  -4   1  -8   15.54    1.41
  -4   1  -8   16.84    1.14
   4  -1   8   16.51    1.14
   4  -1   8   15.71    1.09
   4  -1   8   17.20    1.39
   4  -1   8   16.99    1.41
  -5   1  -8    8.68    0.99
  -5   1  -8    8.37    0.70
   5  -1   8    9.76    0.95
   5  -1   8    9.27    0.73
   5  -1   8    6.95    0.97
   5  -1   8    8.78    0.75
  -6   1  -8    7.14    0.96
  -6   1  -8    7.83    1.00
   6  -1   8    8.54    1.08
   6  -1   8   10.00    0.96
  -7   1  -8    0.38    0.46
   7  -1   8    0.80    0.56
   8   0  -8    2.07    0.54
   8   0  -8    1.72    0.69
  -8   0   8    2.48    0.52
   7   0  -8   10.80    1.26
   7   0  -8   11.31    1.00
   7   0  -8   11.89    1.00
  -7   0   8   10.54    1.16
   6   0  -8    5.40    0.66
   6   0  -8    5.78    0.89
   6   0  -8    7.01    0.71
   6   0  -8    6.11    0.64
  -6   0   8    7.64    0.84
  -6   0   8    6.47    0.61
   5   0  -8  147.26    8.22
   5   0  -8  133.81    8.33
   5   0  -8  144.03    8.64
   5   0  -8  137.04   10.10
  -5   0   8  139.74    8.30
  -5   0   8  145.23   10.78
   4   0  -8    0.08    0.24
   4   0  -8    0.11    0.23
  -4   0   8   -0.22    0.21
  -4   0   8    0.10    0.25
   3   0  -8   17.23    1.07
   3   0  -8   13.05    1.31
   3   0  -8   15.86    1.12
  -3   0   8   16.27    1.08
  -3   0   8   15.38    1.39
   2   0  -8  172.41   12.92
   2   0  -8  177.12   10.36
  -2   0   8  179.29   10.32
   1   0  -8   96.53    5.74
   1   0  -8   89.05    6.32
  -1   0   8   98.50    5.70
  -1   0   8  100.25    5.75
   0   0  -8   34.04    2.36
   0   0  -8   31.06    2.08
   0   0  -8   33.60    2.28
   0   0   8   32.16    2.05
  -1   0  -8   24.94    1.73
  -1   0  -8   28.03    1.99
  -1   0  -8   29.01    1.91
   1   0   8   24.83    1.70
  -2   0  -8  173.09   10.96
  -2   0  -8  165.09    9.45
  -2   0  -8  160.61   10.51
   2   0   8  155.25   10.05
   2   0   8  151.67   10.98
   2   0   8  159.49    9.42
  -3   0  -8   23.28    1.42
  -3   0  -8   19.38    1.58
  -3   0  -8   21.27    1.68
   3   0   8   21.24    1.40
   3   0   8   20.59    1.67
  -4   0  -8  110.01    7.81
  -4   0  -8  130.91    7.00
  -4   0  -8  121.10    8.18
   4   0   8  102.13    7.85
   4   0   8  121.73    8.18
   4   0   8  123.26    6.98
  -5   0  -8   11.03    1.13
  -5   0  -8    9.76    1.07
  -5   0  -8   13.08    0.89
   5   0   8   13.81    1.16
   5   0   8    9.12    1.15
  -6   0  -8   11.52    1.21
  -6   0  -8   13.18    1.28
   6   0   8   14.45    1.24
   6   0   8   12.97    1.32
  -7   0  -8    3.76    0.72
   7   0   8    4.38    0.86
   9  -1  -8   -0.17    0.47
   8  -1  -8   12.35    1.43
   8  -1  -8   14.94    1.16
  -8   1   8   12.03    1.09
   7  -1  -8   11.90    1.07
   7  -1  -8   12.37    1.10
   7  -1  -8   13.02    1.36
  -7   1   8   13.64    1.07
   6  -1  -8    3.45    0.65
   6  -1  -8    2.83    0.50
   6  -1  -8    3.22    0.44
   6  -1  -8    2.50    0.45
  -6   1   8    2.94    0.40
  -6   1   8    2.52    0.48
  -6   1   8    3.90    0.49
   5  -1  -8   -0.22    0.26
   5  -1  -8    0.43    0.40
   5  -1  -8   -0.03    0.25
   5  -1  -8    0.37    0.33
  -5   1   8   -0.04    0.29
  -5   1   8    0.50    0.29
  -5   1   8   -0.32    0.26
   4  -1  -8    0.94    0.26
   4  -1  -8    0.75    0.31
  -4   1   8    1.71    0.32
  -4   1   8    1.66    0.35
  -4   1   8    1.52    0.32
   3  -1  -8   14.16    1.01
   3  -1  -8   12.27    0.91
  -3   1   8   13.22    0.93
  -3   1   8   14.20    0.97
   2  -1  -8   63.15    4.82
   2  -1  -8   64.34    3.94
  -2   1   8   65.24    3.90
  -2   1   8   66.25    3.92
   1  -1  -8   37.92    2.50
   1  -1  -8   44.19    2.80
  -1   1   8   38.13    2.42
  -1   1   8   39.30    2.47
   0  -1  -8   29.65    2.11
   0  -1  -8   29.13    1.89
   0  -1  -8   28.36    2.03
   0   1   8   29.27    1.85
  -1  -1  -8   99.35    6.42
  -1  -1  -8  104.32    6.70
  -1  -1  -8   95.99    5.81
   1   1   8   95.78    5.78
   1   1   8   95.15    6.74
   1   1   8   94.37    6.14
  -2  -1  -8    9.29    0.63
  -2  -1  -8    8.05    0.73
  -2  -1  -8    8.35    0.78
  -2  -1  -8    8.92    0.87
   2   1   8    8.38    0.87
   2   1   8    8.93    0.75
  -3  -1  -8    1.29    0.42
  -3  -1  -8    1.32    0.31
  -3  -1  -8    0.73    0.37
   3   1   8    0.10    0.45
   3   1   8    1.44    0.43
   3   1   8    1.25    0.29
  -4  -1  -8   10.85    0.82
  -4  -1  -8   10.22    1.03
  -4  -1  -8    8.69    0.91
   4   1   8    8.26    1.06
   4   1   8   10.23    0.80
   4   1   8   11.74    1.06
  -5  -1  -8   12.99    1.34
  -5  -1  -8   14.73    1.25
   5   1   8   14.37    1.41
   5   1   8   17.99    1.39
  -6  -1  -8    2.04    0.55
   6   1   8    2.56    0.75
   6   1   8    3.28    0.63
   9  -2  -8    1.44    0.54
   8  -2  -8    0.53    0.54
   8  -2  -8    0.95    0.46
   8  -2  -8    1.33    0.48
  -8   2   8    0.28    0.39
   7  -2  -8   12.84    1.00
   7  -2  -8   11.39    1.05
   7  -2  -8   10.53    1.22
  -7   2   8   11.01    0.97
  -7   2   8   11.13    0.89
   6  -2  -8    1.48    0.35
   6  -2  -8    1.30    0.48
   6  -2  -8    1.49    0.42
   6  -2  -8    1.15    0.36
  -6   2   8    1.71    0.37
  -6   2   8    0.90    0.30
   5  -2  -8   73.08    4.39
   5  -2  -8   72.09    5.25
   5  -2  -8   71.09    4.47
   5  -2  -8   74.80    4.36
  -5   2   8   72.62    4.44
  -5   2   8   69.26    4.34
   4  -2  -8  197.39   13.46
   4  -2  -8  186.01   11.21
   4  -2  -8  183.65   11.54
  -4   2   8  196.41   11.41
  -4   2   8  189.59   11.18
   3  -2  -8    4.97    0.58
  -3   2   8    5.17    0.54
  -3   2   8    5.42    0.50
   2  -2  -8   29.06    1.89
  -2   2   8   29.04    1.84
  -2   2   8   28.20    1.79
  -2   2   8   28.56    2.12
   1  -2  -8    5.68    0.62
   1  -2  -8    5.68    0.58
  -1   2   8    6.14    0.57
  -1   2   8    6.38    0.68
   0  -2  -8   70.24    4.80
   0  -2  -8   68.42    4.21
   0   2   8   68.42    4.17
   0   2   8   70.26    4.87
  -1  -2  -8   40.35    2.62
   1   2   8   40.07    2.69
   1   2   8   43.22    3.02
   1   2   8   43.57    2.59
  -2  -2  -8   29.87    1.88
  -2  -2  -8   24.49    2.00
   2   2   8   29.76    1.84
   2   2   8   32.48    2.21
  -3  -2  -8    1.71    0.35
  -3  -2  -8    2.07    0.41
   3   2   8    2.51    0.50
   3   2   8    1.65    0.34
  -4  -2  -8   29.21    2.14
  -4  -2  -8   31.87    1.96
   4   2   8   30.18    2.32
   4   2   8   29.37    1.95
   4   2   8   30.49    2.33
   5   2   8   14.75    1.38
   5   2   8   14.85    1.44
  -6  -2  -8    1.98    0.57
  -6  -2  -8    2.64    0.63
   6   2   8    2.77    0.64
   6   2   8    3.76    0.81
   9  -3  -8    0.92    0.54
   8  -3  -8    5.33    0.84
   8  -3  -8    5.53    0.78
  -8   3   8    4.39    0.64
   7  -3  -8    1.92    0.56
   7  -3  -8    1.63    0.50
   7  -3  -8    1.77    0.42
  -7   3   8    1.85    0.39
  -7   3   8    1.96    0.43
   6  -3  -8   54.58    3.41
   6  -3  -8   49.97    3.39
   6  -3  -8   55.22    4.07
   6  -3  -8   54.77    3.46
  -6   3   8   56.99    3.46
  -6   3   8   55.46    3.37
   5  -3  -8    8.47    0.75
   5  -3  -8    6.80    0.67
   5  -3  -8    6.67    0.75
   5  -3  -8    8.15    0.86
  -5   3   8    6.84    0.69
  -5   3   8    7.69    0.76
  -5   3   8    6.88    0.67
   4  -3  -8   81.26    5.75
   4  -3  -8   79.32    4.86
  -4   3   8   82.40    4.89
  -4   3   8   79.17    4.82
  -4   3   8   77.97    5.56
   3  -3  -8    3.85    0.54
  -3   3   8    4.62    0.57
  -3   3   8    3.94    0.42
  -3   3   8    3.81    0.49
   2  -3  -8   25.35    1.67
  -2   3   8   24.79    1.62
  -2   3   8   23.88    1.58
  -2   3   8   24.41    1.86
   1  -3  -8   80.40    4.86
  -1   3   8   80.21    4.82
  -1   3   8   80.24    5.59
   0  -3  -8   28.98    1.97
   0   3   8   28.63    2.24
   0   3   8   32.75    1.95
  -1  -3  -8    4.39    0.54
   1   3   8    4.15    0.59
   1   3   8    3.87    0.48
  -2  -3  -8    1.99    0.42
   2   3   8    2.50    0.41
   2   3   8    2.15    0.48
  -3  -3  -8    1.24    0.47
  -3  -3  -8    1.17    0.35
   3   3   8    0.88    0.34
   3   3   8    1.27    0.46
   3   3   8    0.89    0.58
  -4  -3  -8    0.23    0.30
  -4  -3  -8   -0.07    0.39
   4   3   8   -0.11    0.43
   4   3   8   -0.02    0.28
   4   3   8    0.19    0.53
  -5  -3  -8   21.70    2.04
   5   3   8   22.46    1.93
   5   3   8   23.70    1.93
   6   3   8    6.35    0.92
   6   3   8    4.09    0.91
   8  -4  -8    3.37    0.68
  -8   4   8    2.73    0.53
   7  -4  -8   23.61    1.80
   7  -4  -8   24.28    1.72
  -7   4   8   22.61    1.67
  -7   4   8   27.32    1.75
   6  -4  -8    6.06    0.78
   6  -4  -8    7.31    0.83
   6  -4  -8    6.26    0.72
  -6   4   8    6.34    0.69
  -6   4   8    6.38    0.68
   5  -4  -8   56.77    3.88
   5  -4  -8   61.47    3.96
   5  -4  -8   64.66    4.64
  -5   4   8   68.98    3.99
  -5   4   8   63.11    4.48
  -5   4   8   67.57    3.94
   4  -4  -8   12.16    1.10
   4  -4  -8   11.98    1.06
  -4   4   8   14.57    0.98
  -4   4   8   11.11    1.08
  -4   4   8   14.77    1.04
   3  -4  -8   19.58    1.45
   3  -4  -8   21.46    1.54
  -3   4   8   18.95    1.38
  -3   4   8   17.51    1.54
  -3   4   8   20.66    1.35
   2  -4  -8    0.55    0.33
  -2   4   8    0.06    0.27
  -2   4   8   -0.27    0.24
   1  -4  -8   28.51    1.89
   1  -4  -8   26.38    2.17
  -1   4   8   27.51    1.82
  -1   4   8   28.12    2.10
   0  -4  -8   13.85    1.11
   0  -4  -8   12.55    1.28
   0   4   8   14.36    1.23
   0   4   8   14.61    1.06
  -1  -4  -8   22.20    1.54
  -1  -4  -8   20.04    1.86
   1   4   8   22.41    1.76
   1   4   8   22.96    1.53
  -2  -4  -8  102.07    6.18
  -2  -4  -8   91.82    7.71
   2   4   8  107.45    6.17
   2   4   8  110.09    7.20
  -3  -4  -8    8.79    0.84
  -3  -4  -8    6.72    0.99
   3   4   8    8.86    1.06
   3   4   8    8.08    1.00
   3   4   8    9.47    0.81
  -4  -4  -8    1.23    0.52
  -4  -4  -8    2.56    0.47
   4   4   8    1.55    0.67
   4   4   8    2.13    0.45
   4   4   8    1.69    0.62
  -5  -4  -8    3.32    0.71
   5   4   8    4.04    0.80
   5   4   8    2.56    0.80
   6   4   8    3.35    0.82
   7  -5  -8    1.27    0.43
   7  -5  -8    1.80    0.54
  -7   5   8    2.16    0.45
  -7   5   8    1.19    0.40
   6  -5  -8    9.52    0.99
   6  -5  -8    9.52    0.96
  -6   5   8    8.61    0.85
  -6   5   8   10.14    0.88
   5  -5  -8    4.76    0.66
   5  -5  -8    4.87    0.65
  -5   5   8    3.86    0.55
  -5   5   8    4.96    0.55
  -5   5   8    5.14    0.63
   4  -5  -8   47.27    3.22
   4  -5  -8   55.42    3.33
  -4   5   8   52.81    3.27
  -4   5   8   51.04    3.70
  -4   5   8   53.38    3.28
   3  -5  -8   47.73    3.15
  -3   5   8   48.68    3.55
  -3   5   8   52.33    3.15
   2  -5  -8    2.73    0.54
  -2   5   8    3.69    0.55
  -2   5   8    3.36    0.52
   1  -5  -8   42.02    2.72
   1  -5  -8   38.48    3.22
  -1   5   8   42.46    2.74
  -1   5   8   41.42    3.06
  -1   5   8   45.37    2.70
   0  -5  -8    7.49    0.83
   0  -5  -8    7.18    0.88
   0   5   8    7.86    0.90
   0   5   8    8.80    0.81
  -1  -5  -8  112.14    6.56
  -1  -5  -8   96.94    8.11
   1   5   8  114.86    6.53
   1   5   8  110.68    7.58
  -2  -5  -8    1.55    0.51
  -2  -5  -8    0.80    0.39
   2   5   8    0.97    0.38
   2   5   8    1.66    0.54
  -3  -5  -8    6.73    0.97
  -3  -5  -8    9.41    0.88
   3   5   8    7.21    0.98
   3   5   8    8.33    1.03
   3   5   8    7.15    0.80
  -4  -5  -8   -0.07    0.44
  -4  -5  -8    0.21    0.36
   4   5   8    0.09    0.51
   4   5   8   -0.41    0.55
   5   5   8   14.56    1.52
   7  -6  -8    3.86    0.73
   7  -6  -8    4.67    0.69
  -7   6   8    4.41    0.75
  -7   6   8    3.64    0.60
  -7   6   8    3.58    0.56
   6  -6  -8    0.09    0.39
   6  -6  -8    0.92    0.47
  -6   6   8    0.76    0.48
  -6   6   8    0.37    0.37
  -6   6   8    0.29    0.33
   5  -6  -8   12.81    1.18
   5  -6  -8   13.88    1.23
  -5   6   8   14.76    1.25
  -5   6   8   13.73    1.23
  -5   6   8   17.84    1.22
   4  -6  -8    1.13    0.41
   4  -6  -8    2.09    0.55
  -4   6   8    2.22    0.49
  -4   6   8    1.76    0.42
  -4   6   8    2.09    0.45
   3  -6  -8   11.30    1.05
  -3   6   8    9.50    0.94
  -3   6   8   11.64    0.98
  -3   6   8   10.41    1.02
   2  -6  -8    0.48    0.43
  -2   6   8    0.85    0.37
  -2   6   8    0.95    0.39
  -2   6   8    0.78    0.35
   1  -6  -8   54.87    3.61
   1  -6  -8   51.89    4.30
  -1   6   8   57.39    4.11
  -1   6   8   59.39    3.66
  -1   6   8   60.12    3.58
   0  -6  -8   42.81    2.75
   0  -6  -8   36.47    3.23
   0   6   8   45.05    3.13
   0   6   8   42.72    2.71
  -1  -6  -8   -0.09    0.37
  -1  -6  -8    0.03    0.37
   1   6   8   -0.26    0.34
   1   6   8   -0.20    0.39
  -2  -6  -8    5.18    0.72
  -2  -6  -8    5.32    0.85
   2   6   8    5.09    0.69
   2   6   8    5.92    0.87
  -3  -6  -8   -0.20    0.38
  -3  -6  -8   -0.19    0.43
   3   6   8   -0.11    0.47
   3   6   8   -0.39    0.36
   3   6   8   -0.11    0.57
   4   6   8    1.83    0.73
   7  -7  -8    0.86    0.43
  -7   7   8   -0.02    0.39
   6  -7  -8    9.31    1.01
   6  -7  -8    8.10    0.96
  -6   7   8    8.60    0.98
  -6   7   8    6.90    0.87
   5  -7  -8    4.07    0.72
   5  -7  -8    3.61    0.65
  -5   7   8    4.02    0.64
  -5   7   8    3.45    0.64
   4  -7  -8    3.32    0.69
   4  -7  -8    3.41    0.61
  -4   7   8    3.22    0.57
  -4   7   8    3.92    0.62
  -4   7   8    4.17    0.64
   3  -7  -8    9.89    1.09
   3  -7  -8    9.19    0.95
  -3   7   8    9.51    0.92
  -3   7   8   10.44    1.04
  -3   7   8   11.51    1.01
   2  -7  -8    1.74    0.56
  -2   7   8    1.51    0.47
  -2   7   8    1.41    0.48
  -2   7   8    1.54    0.41
   1  -7  -8   10.62    1.13
  -1   7   8   11.28    1.04
  -1   7   8   11.61    1.17
   0  -7  -8    7.79    0.93
   0  -7  -8    8.57    0.99
   0   7   8    7.61    0.86
   0   7   8    7.43    0.97
  -1  -7  -8    7.43    0.97
  -1  -7  -8    7.85    0.91
   1   7   8    8.24    1.03
   1   7   8    6.90    0.82
  -2  -7  -8    2.57    0.59
  -2  -7  -8    1.13    0.51
   2   7   8    2.28    0.65
   2   7   8    1.70    0.51
  -3  -7  -8    4.63    0.86
  -3  -7  -8    5.95    0.80
   3   7   8    5.09    0.73
   3   7   8    4.18    0.87
   6  -8  -8    0.56    0.49
   5  -8  -8    9.80    1.10
  -5   8   8   10.35    1.03
  -5   8   8    9.07    1.01
   4  -8  -8    6.84    0.87
   4  -8  -8    8.49    1.02
  -4   8   8    7.91    0.89
  -4   8   8    6.77    0.82
  -4   8   8    6.58    0.87
   3  -8  -8   19.44    1.60
   3  -8  -8   21.10    1.73
  -3   8   8   22.70    1.67
  -3   8   8   22.33    1.82
   2  -8  -8    4.21    0.75
   2  -8  -8    4.16    0.65
  -2   8   8    4.32    0.68
  -2   8   8    4.64    0.75
   1  -8  -8    3.58    0.70
   1  -8  -8    2.40    0.58
  -1   8   8    2.74    0.67
  -1   8   8    3.51    0.61
   0  -8  -8    3.59    0.71
   0   8   8    2.18    0.56
   0   8   8    2.28    0.64
  -1  -8  -8    2.63    0.62
  -1  -8  -8    1.45    0.56
   1   8   8    1.34    0.51
  -2  -8  -8    8.92    1.17
  -3   9   8    5.83    0.85
   2  -9  -8    0.21    0.46
  -2   9   8   -0.52    0.43
   1  -9  -8    6.29    0.82
  -1  10  -9    1.94    0.82
   1 -10   9    1.53    0.62
  -2  10  -9    2.01    0.80
   2 -10   9    1.19    0.61
   1   9  -9    3.56    0.65
  -1  -9   9    3.85    0.78
  -1  -9   9    2.68    0.64
  -1  -9   9    3.65    0.65
   0   9  -9    0.77    0.75
   0   9  -9    1.98    0.74
   0   9  -9    1.02    0.48
   0  -9   9    2.06    0.64
   0  -9   9    2.41    0.54
   0  -9   9    1.15    0.52
  -1   9  -9    8.69    1.16
  -1   9  -9   10.25    1.16
  -1   9  -9    6.31    0.87
   1  -9   9    7.54    1.06
   1  -9   9    7.10    0.98
   1  -9   9    7.61    0.89
  -2   9  -9    6.77    1.04
  -2   9  -9    5.84    1.10
  -2   9  -9    4.86    0.79
   2  -9   9    7.54    0.85
   2  -9   9    6.35    0.99
  -3   9  -9   -0.25    0.43
  -3   9  -9    1.13    0.82
  -3   9  -9    0.51    0.71
   3  -9   9    0.15    0.41
  -4   9  -9    8.77    1.06
  -4   9  -9   10.59    1.32
  -4   9  -9   10.59    1.37
   4  -9   9   10.46    1.00
   4  -9   9   10.77    1.07
  -5   9  -9    0.28    0.49
   5  -9   9   -0.21    0.39
   4   8  -9    2.94    0.60
  -4  -8   9    1.66    0.53
   3   8  -9    0.48    0.60
   3   8  -9    0.40    0.41
  -3  -8   9    0.69    0.44
  -3  -8   9    0.36    0.47
  -3  -8   9    0.30    0.48
   2   8  -9    5.05    0.74
  -2  -8   9    5.56    0.82
  -2  -8   9    5.07    0.91
  -2  -8   9    6.08    0.76
   1   8  -9    5.04    0.74
   1   8  -9    6.45    0.87
  -1  -8   9    5.10    0.88
  -1  -8   9    5.31    0.79
  -1  -8   9    4.85    0.70
   0   8  -9    1.60    0.68
   0   8  -9    0.43    0.70
   0   8  -9    1.24    0.46
   0  -8   9    1.76    0.48
   0  -8   9    1.46    0.56
   0  -8   9    1.27    0.50
  -1   8  -9   10.16    1.13
  -1   8  -9   11.25    1.31
  -1   8  -9   14.85    1.39
   1  -8   9   12.86    1.10
   1  -8   9   12.62    1.37
  -2   8  -9    0.22    0.63
  -2   8  -9    0.29    0.41
  -2   8  -9   -0.17    0.65
   2  -8   9    0.24    0.43
   2  -8   9    0.06    0.34
  -3   8  -9    8.52    1.14
  -3   8  -9    7.56    1.16
  -3   8  -9    7.54    0.93
   3  -8   9   10.23    0.96
  -4   8  -9    4.12    0.91
  -4   8  -9    3.37    0.92
  -4   8  -9    3.98    0.70
   4  -8   9    4.93    0.65
   4  -8   9    5.37    0.71
  -5   8  -9    3.62    0.92
  -5   8  -9    2.25    0.79
  -5   8  -9    1.71    0.55
   5  -8   9    1.97    0.52
   5  -8   9    3.22    0.56
   5   7  -9    3.70    0.67
  -5  -7   9    4.43    0.77
  -5  -7   9    5.10    0.71
   4   7  -9   -0.27    0.48
   4   7  -9    0.35    0.55
   4   7  -9   -0.23    0.33
  -4  -7   9    0.30    0.44
  -4  -7   9    0.40    0.40
  -4  -7   9    0.39    0.44
   3   7  -9    6.94    0.87
  -3  -7   9    7.72    1.11
  -3  -7   9    9.25    1.03
  -3  -7   9    7.72    0.86
   2   7  -9    7.92    0.90
   2   7  -9    6.95    0.83
  -2  -7   9    6.76    0.90
  -2  -7   9    5.88    0.97
  -2  -7   9    6.39    0.77
   1   7  -9   22.39    1.75
   1   7  -9   25.49    1.94
  -1  -7   9   25.01    1.74
  -1  -7   9   24.30    2.09
  -1  -7   9   23.61    2.21
   0   7  -9   15.79    1.43
   0   7  -9   20.56    1.65
   0   7  -9   20.69    1.67
   0  -7   9   20.26    1.76
   0  -7   9   19.08    1.84
   0  -7   9   19.78    1.45
  -1   7  -9    3.70    0.83
  -1   7  -9    6.89    0.94
  -1   7  -9    5.75    0.74
   1  -7   9    5.90    0.70
   1  -7   9    5.37    0.85
  -2   7  -9   27.14    2.13
  -2   7  -9   33.00    2.44
  -2   7  -9   32.72    2.39
   2  -7   9   32.08    2.13
  -3   7  -9   -0.24    0.58
  -3   7  -9    0.42    0.69
  -3   7  -9   -0.11    0.37
   3  -7   9   -0.61    0.30
   3  -7   9   -0.57    0.33
  -4   7  -9   34.56    2.69
  -4   7  -9   30.95    2.37
  -4   7  -9   35.48    2.73
   4  -7   9   37.93    2.38
   4  -7   9   38.13    2.28
  -5   7  -9    5.64    0.76
  -5   7  -9    7.84    1.06
  -5   7  -9    7.22    1.07
   5  -7   9    6.93    0.77
   5  -7   9    6.75    0.75
  -6   7  -9    8.44    1.19
  -6   7  -9    8.78    1.21
   6  -7   9    9.36    0.93
  -7   7  -9    0.84    0.76
  -6  -6   9    7.02    0.97
   5   6  -9    1.53    0.51
   5   6  -9    0.32    0.39
   5   6  -9    0.08    0.57
  -5  -6   9    1.00    0.52
  -5  -6   9    2.15    0.49
  -5  -6   9    1.47    0.53
   4   6  -9    3.26    0.64
   4   6  -9    3.18    0.74
   4   6  -9    3.09    0.58
  -4  -6   9    3.64    0.57
  -4  -6   9    2.54    0.57
  -4  -6   9    3.05    0.69
   3   6  -9    0.21    0.35
   3   6  -9   -0.37    0.47
  -3  -6   9    0.62    0.35
  -3  -6   9    0.09    0.37
  -3  -6   9    0.59    0.44
   2   6  -9   45.26    3.21
   2   6  -9   40.62    2.94
  -2  -6   9   48.14    2.94
  -2  -6   9   49.23    3.62
  -2  -6   9   44.34    3.78
   1   6  -9    4.36    0.64
   1   6  -9    3.61    0.73
  -1  -6   9    3.58    0.72
  -1  -6   9    4.63    0.67
  -1  -6   9    5.71    0.66
   0   6  -9    0.02    0.56
   0   6  -9   -0.15    0.56
   0   6  -9   -0.47    0.30
   0  -6   9    0.00    0.31
   0  -6   9    0.03    0.31
   0  -6   9   -0.01    0.31
  -1   6  -9    1.11    0.61
  -1   6  -9    1.52    0.64
  -1   6  -9    1.29    0.46
   1  -6   9    1.94    0.42
   1  -6   9    1.94    0.51
  -2   6  -9    8.29    1.06
  -2   6  -9    9.64    1.09
  -2   6  -9    7.21    0.88
   2  -6   9    9.00    0.78
   2  -6   9   10.13    0.86
  -3   6  -9   13.59    1.23
  -3   6  -9   13.85    1.43
  -3   6  -9   15.93    1.45
   3  -6   9   15.80    1.20
   3  -6   9   16.81    1.15
   3  -6   9   16.49    1.23
  -4   6  -9   -0.30    0.33
  -4   6  -9    0.36    0.61
  -4   6  -9   -0.23    0.61
   4  -6   9    0.12    0.31
   4  -6   9    0.05    0.33
   4  -6   9   -0.02    0.36
  -5   6  -9   20.06    1.81
  -5   6  -9   19.03    1.51
  -5   6  -9   19.80    1.81
   5  -6   9   19.40    1.64
   5  -6   9   25.12    1.53
   5  -6   9   21.38    1.49
  -6   6  -9   -0.36    0.62
  -6   6  -9    0.28    0.67
   6  -6   9    0.30    0.40
   6  -6   9   -0.11    0.48
  -7   6  -9   -0.02    0.68
   7  -6   9   -0.33    0.51
   7  -6   9   -0.04    0.43
   6   5  -9    1.27    0.51
  -6  -5   9    0.88    0.48
  -6  -5   9    0.78    0.51
   5   5  -9    6.03    1.00
   5   5  -9    7.16    0.78
   5   5  -9    6.71    0.84
  -5  -5   9    5.91    0.95
  -5  -5   9    7.05    0.88
  -5  -5   9    7.01    0.74
   4   5  -9   -0.19    0.42
   4   5  -9    0.13    0.32
  -4  -5   9    0.29    0.34
  -4  -5   9   -0.24    0.36
  -4  -5   9   -0.13    0.38
   3   5  -9    2.24    0.56
   3   5  -9    2.79    0.51
  -3  -5   9    3.13    0.50
  -3  -5   9    2.90    0.55
  -3  -5   9    2.54    0.61
   2   5  -9    5.18    0.69
   2   5  -9    6.00    0.78
  -2  -5   9    5.46    0.84
  -2  -5   9    6.97    0.79
  -2  -5   9    7.41    0.72
   1   5  -9    4.95    0.81
   1   5  -9    4.42    0.62
  -1  -5   9    5.37    0.60
  -1  -5   9    4.81    0.66
  -1  -5   9    4.21    0.71
   0   5  -9   58.15    3.80
   0   5  -9   50.03    3.39
   0  -5   9   50.29    4.33
   0  -5   9   57.72    3.38
  -1   5  -9   -0.25    0.28
  -1   5  -9    0.25    0.49
  -1   5  -9   -0.05    0.51
   1  -5   9    0.09    0.27
   1  -5   9    0.12    0.28
  -2   5  -9   30.87    2.25
  -2   5  -9   26.93    2.12
  -2   5  -9   25.99    1.94
   2  -5   9   30.76    2.01
   2  -5   9   27.13    1.90
  -3   5  -9    1.32    0.41
  -3   5  -9    0.66    0.54
  -3   5  -9    0.54    0.52
   3  -5   9    0.68    0.31
   3  -5   9    1.03    0.37
   3  -5   9    0.80    0.34
  -4   5  -9   19.44    1.66
  -4   5  -9   17.15    1.37
  -4   5  -9   19.50    1.62
   4  -5   9   16.81    1.45
   4  -5   9   18.55    1.36
   4  -5   9   20.88    1.32
  -5   5  -9    2.87    0.52
  -5   5  -9    3.19    0.77
  -5   5  -9    3.98    0.83
   5  -5   9    5.01    0.58
   5  -5   9    4.08    0.66
  -6   5  -9    5.95    1.03
  -6   5  -9   10.18    1.11
   6  -5   9    6.72    0.91
   6  -5   9    6.79    0.78
  -7   5  -9    2.62    0.80
   7  -5   9    2.30    0.52
   7  -5   9    1.15    0.64
  -7  -4   9    2.38    0.67
   6   4  -9   22.94    2.18
   6   4  -9   23.33    1.78
  -6  -4   9   23.35    1.66
  -6  -4   9   25.74    2.04
  -6  -4   9   22.53    2.19
   5   4  -9    0.23    0.40
   5   4  -9    0.13    0.34
   5   4  -9    0.21    0.50
  -5  -4   9    0.45    0.42
  -5  -4   9    0.35    0.37
  -5  -4   9    0.08    0.32
   4   4  -9   16.07    1.32
   4   4  -9   15.69    1.28
  -4  -4   9   19.33    1.29
  -4  -4   9   17.26    1.67
  -4  -4   9   17.29    1.52
   3   4  -9    4.23    0.58
  -3  -4   9    3.26    0.66
  -3  -4   9    4.88    0.62
  -3  -4   9    4.53    0.56
   2   4  -9    8.73    0.92
   2   4  -9    7.61    0.82
  -2  -4   9    8.09    1.03
  -2  -4   9    9.51    0.91
  -2  -4   9    8.69    0.78
   1   4  -9   58.96    3.81
   1   4  -9   62.56    4.21
  -1  -4   9   65.79    3.79
  -1  -4   9   65.28    4.68
  -1  -4   9   54.95    4.85
   0   4  -9    1.83    0.43
   0   4  -9    2.07    0.65
   0  -4   9    2.42    0.52
   0  -4   9    2.64    0.43
  -1   4  -9    4.93    0.71
  -1   4  -9    5.24    0.64
  -1   4  -9    5.53    0.79
   1  -4   9    3.72    0.53
  -2   4  -9   46.35    3.00
  -2   4  -9   38.39    2.78
   2  -4   9   42.72    2.98
   2  -4   9   42.78    2.76
   2  -4   9   48.28    2.61
  -3   4  -9   72.17    4.93
  -3   4  -9   76.74    4.72
  -3   4  -9   67.54    4.37
   3  -4   9   68.97    4.15
   3  -4   9   71.34    4.78
   3  -4   9   72.90    4.35
  -4   4  -9    0.16    0.52
  -4   4  -9   -0.12    0.29
  -4   4  -9   -0.03    0.52
   4  -4   9    0.43    0.31
   4  -4   9    0.60    0.33
   4  -4   9   -0.46    0.37
  -5   4  -9   19.39    1.53
  -5   4  -9   16.85    1.29
  -5   4  -9   16.18    1.59
   5  -4   9   18.27    1.49
   5  -4   9   19.26    1.30
   5  -4   9   17.07    1.27
  -6   4  -9    7.31    0.95
  -6   4  -9    7.68    1.05
   6  -4   9    6.40    0.72
   6  -4   9    6.91    0.90
  -7   4  -9    2.09    0.78
   7  -4   9    1.85    0.51
   7  -4   9    2.37    0.72
   7   3  -9    9.31    1.01
  -7  -3   9    8.02    1.11
   6   3  -9    2.19    0.51
   6   3  -9    2.15    0.72
   6   3  -9    2.21    0.46
  -6  -3   9    1.97    0.57
  -6  -3   9    2.35    0.44
   5   3  -9    1.03    0.55
   5   3  -9    1.71    0.41
   5   3  -9    1.37    0.44
  -5  -3   9    1.25    0.36
  -5  -3   9    0.87    0.46
  -5  -3   9    1.65    0.42
   4   3  -9    1.08    0.43
   4   3  -9    1.41    0.39
  -4  -3   9    1.70    0.49
  -4  -3   9    1.89    0.41
  -4  -3   9    1.58    0.37
   3   3  -9   18.98    1.45
  -3  -3   9   18.18    1.81
  -3  -3   9   21.76    1.69
  -3  -3   9   21.87    1.43
   2   3  -9   19.08    1.36
   2   3  -9   14.99    1.22
  -2  -3   9   15.07    1.51
  -2  -3   9   15.66    1.18
  -2  -3   9   16.81    1.40
   1   3  -9   14.61    1.09
   1   3  -9   13.70    1.18
  -1  -3   9   15.22    1.04
  -1  -3   9   11.74    1.30
   0   3  -9  123.61    7.56
   0   3  -9  100.60    6.77
   0  -3   9  116.38    6.75
  -1   3  -9    6.88    0.86
  -1   3  -9    6.55    0.76
   1  -3   9    9.23    0.61
   1  -3   9    7.25    0.73
  -2   3  -9   19.18    1.38
  -2   3  -9   18.17    1.48
  -2   3  -9   15.21    1.28
   2  -3   9   18.65    1.14
   2  -3   9   16.18    1.24
  -3   3  -9    0.23    0.32
  -3   3  -9    1.03    0.54
  -3   3  -9    0.38    0.44
   3  -3   9    1.63    0.46
   3  -3   9    0.53    0.27
   3  -3   9   -0.01    0.30
  -4   3  -9    8.20    0.78
  -4   3  -9   10.24    0.95
  -4   3  -9    9.92    1.09
   4  -3   9    7.65    0.73
   4  -3   9    8.84    0.77
   4  -3   9    8.83    0.91
  -5   3  -9    3.51    0.47
  -5   3  -9    2.79    0.70
  -5   3  -9    2.90    0.66
  -5   3  -9    5.20    0.73
   5  -3   9    4.26    0.52
   5  -3   9    4.05    0.70
   5  -3   9    5.39    0.71
   5  -3   9    3.90    0.50
  -6   3  -9    3.16    0.66
  -6   3  -9    1.71    0.69
   6  -3   9    3.32    0.51
   6  -3   9    2.04    0.62
  -7   3  -9    7.70    1.04
  -7   3  -9    7.61    1.08
   7  -3   9    7.85    1.06
   7  -3   9    7.81    0.83
   7   2  -9    1.88    0.71
   7   2  -9    2.09    0.55
  -7  -2   9    1.49    0.54
   6   2  -9   43.21    2.73
   6   2  -9   39.10    2.59
   6   2  -9   40.41    3.27
  -6  -2   9   40.98    2.55
  -6  -2   9   39.10    3.37
   5   2  -9   23.67    2.23
   5   2  -9   23.91    1.78
   5   2  -9   29.48    1.86
  -5  -2   9   25.00    2.31
  -5  -2   9   29.04    2.14
  -5  -2   9   27.32    1.76
   4   2  -9   17.90    1.26
   4   2  -9   15.38    1.23
  -4  -2   9   19.28    1.46
  -4  -2   9   16.96    1.21
  -4  -2   9   15.30    1.58
   3   2  -9   60.28    3.85
  -3  -2   9   57.91    4.94
  -3  -2   9   65.97    4.72
  -3  -2   9   65.78    3.82
   2   2  -9  145.53    9.34
   2   2  -9  139.13    8.44
  -2  -2   9  146.07    8.40
  -2  -2   9  138.14   10.88
   1   2  -9    0.21    0.41
   1   2  -9    0.65    0.31
  -1  -2   9    0.99    0.28
   0   2  -9   11.94    1.06
   0   2  -9   10.89    0.98
   0  -2   9   13.40    0.94
  -1   2  -9  124.85    8.27
  -1   2  -9  151.68    9.23
   1  -2   9  149.52    7.87
   1  -2   9  131.69    8.24
  -2   2  -9   18.78    1.43
  -2   2  -9   21.10    1.64
   2  -2   9   22.58    1.30
   2  -2   9   20.55    1.41
  -3   2  -9  109.11    7.11
  -3   2  -9  101.86    7.35
  -3   2  -9  103.58    6.34
   3  -2   9  108.15    6.32
   3  -2   9  109.37    7.05
  -4   2  -9   30.05    1.98
  -4   2  -9   33.00    2.31
  -4   2  -9   29.44    2.36
   4  -2   9   30.57    1.89
   4  -2   9   30.92    2.33
   4  -2   9   30.15    2.26
   4  -2   9   29.54    1.95
  -5   2  -9   27.03    2.29
  -5   2  -9   27.38    1.85
  -5   2  -9   30.58    2.25
   5  -2   9   29.18    2.22
   5  -2   9   30.47    2.24
   5  -2   9   31.20    1.87
   5  -2   9   26.36    1.82
  -6   2  -9    6.61    0.89
  -6   2  -9    4.12    0.84
   6  -2   9    5.67    0.87
   6  -2   9    4.32    0.59
  -7   2  -9    3.45    0.81
  -7   2  -9    2.60    0.71
   7  -2   9    2.45    0.73
   8   1  -9    3.04    0.63
   7   1  -9    4.09    0.84
   7   1  -9    3.10    0.59
  -7  -1   9    3.24    0.64
   6   1  -9   -0.59    0.24
   6   1  -9    0.79    0.37
   6   1  -9    0.04    0.31
   6   1  -9   -0.60    0.49
  -6  -1   9   -0.10    0.25
  -6  -1   9    0.05    0.32
   5   1  -9   30.57    1.97
   5   1  -9   26.28    2.38
   5   1  -9   27.30    1.92
  -5  -1   9   29.43    2.48
  -5  -1   9   31.00    1.89
   4   1  -9   20.24    1.36
   4   1  -9   18.79    1.38
  -4  -1   9   20.06    1.34
  -4  -1   9   18.63    1.74
   3   1  -9   51.72    3.28
  -3  -1   9   52.04    4.20
  -3  -1   9   54.83    3.25
   2   1  -9    0.31    0.28
  -2  -1   9    0.03    0.28
  -2  -1   9    0.54    0.26
  -2  -1   9    0.45    0.23
   1   1  -9   45.61    3.15
   1   1  -9   45.62    2.89
  -1  -1   9   46.86    2.85
   0   1  -9   55.95    3.71
   0   1  -9   67.71    4.11
   0  -1   9   58.14    3.68
  -1   1  -9    7.35    0.77
  -1   1  -9    8.84    0.89
  -1   1  -9   10.12    0.88
   1  -1   9    8.44    0.73
  -2   1  -9    0.34    0.26
  -2   1  -9    0.44    0.37
  -2   1  -9   -0.03    0.39
   2  -1   9    0.33    0.18
   2  -1   9   -0.10    0.24
  -3   1  -9   12.71    1.33
  -3   1  -9   16.37    1.12
  -3   1  -9   15.22    1.28
   3  -1   9   15.72    1.33
   3  -1   9   14.53    0.99
   3  -1   9   15.89    1.32
   3  -1   9   14.39    1.08
  -4   1  -9   88.57    5.92
  -4   1  -9   83.43    6.16
  -4   1  -9   83.69    5.25
   4  -1   9   95.25    6.19
   4  -1   9   84.31    5.94
   4  -1   9   92.20    5.26
   4  -1   9   88.73    5.06
  -5   1  -9    0.80    0.55
  -5   1  -9    1.07    0.31
  -5   1  -9    1.31    0.47
   5  -1   9    1.88    0.50
   5  -1   9    2.18    0.58
  -6   1  -9    7.29    0.96
  -6   1  -9    6.91    0.92
   6  -1   9    9.49    0.97
   6  -1   9    5.73    0.96
   8   0  -9    2.80    0.80
   8   0  -9    2.91    0.58
   7   0  -9    0.44    0.57
   7   0  -9   -0.19    0.36
  -7   0   9    0.06    0.34
   6   0  -9   33.53    2.23
   6   0  -9   33.40    2.76
   6   0  -9   36.87    2.30
   6   0  -9   32.35    2.20
  -6   0   9   33.56    2.17
  -6   0   9   34.83    2.84
   5   0  -9    8.47    0.82
   5   0  -9    9.73    1.08
   5   0  -9   10.76    0.83
  -5   0   9   10.64    0.79
  -5   0   9    8.32    1.01
   4   0  -9   57.41    3.50
   4   0  -9   53.41    3.44
  -4   0   9   57.37    3.41
  -4   0   9   54.92    4.41
   3   0  -9   -0.18    0.20
   3   0  -9    0.33    0.27
  -3   0   9    0.07    0.24
   2   0  -9   39.29    2.54
  -2   0   9   40.32    2.48
  -2   0   9   40.68    2.51
   1   0  -9   76.20    4.91
  -1   0   9   85.36    4.89
  -1   0   9   82.58    4.88
   0   0  -9   16.04    1.26
   0   0  -9   17.21    1.32
   0   0  -9   15.46    1.18
   0   0   9   16.21    1.14
  -1   0  -9   67.90    4.33
  -1   0  -9   59.98    4.14
  -1   0  -9   56.53    3.76
   1   0   9   61.80    3.73
  -2   0  -9    8.61    0.84
  -2   0  -9    7.23    0.68
   2   0   9    7.02    0.66
   2   0   9    7.20    0.82
  -3   0  -9   81.53    4.75
  -3   0  -9   80.42    5.54
   3   0   9   81.13    4.73
   3   0   9   81.53    5.55
   3   0   9   69.15    5.33
  -4   0  -9    1.65    0.50
  -4   0  -9    0.45    0.29
  -4   0  -9    1.16    0.48
   4   0   9    0.67    0.30
   4   0   9    0.27    0.48
   4   0   9    0.79    0.44
  -5   0  -9   11.22    1.16
  -5   0  -9   10.03    1.09
   5   0   9   14.31    1.20
   5   0   9    9.30    1.18
  -6   0  -9    1.49    0.57
   6   0   9    4.34    0.71
   6   0   9    2.52    0.70
   8  -1  -9   -0.04    0.41
   8  -1  -9    0.47    0.59
  -8   1   9    0.08    0.35
   7  -1  -9   22.33    1.61
   7  -1  -9   20.39    1.95
   7  -1  -9   23.07    1.66
  -7   1   9   22.94    1.60
   6  -1  -9    0.45    0.36
   6  -1  -9    0.70    0.49
   6  -1  -9    0.23    0.33
   6  -1  -9    0.41    0.30
  -6   1   9   -0.28    0.31
  -6   1   9    0.75    0.35
  -6   1   9    0.56    0.27
   5  -1  -9   15.75    1.14
   5  -1  -9   15.44    1.43
   5  -1  -9   16.08    1.18
  -5   1   9   15.01    1.41
  -5   1   9   15.18    1.12
  -5   1   9   15.57    1.15
   4  -1  -9   10.58    0.89
   4  -1  -9   10.61    0.81
  -4   1   9    9.84    0.83
  -4   1   9   11.08    0.85
   3  -1  -9   71.44    4.43
   3  -1  -9   70.43    4.46
  -3   1   9   72.82    4.39
  -3   1   9   76.72    4.44
   2  -1  -9   64.18    4.16
  -2   1   9   71.69    4.13
  -2   1   9   68.05    4.13
   1  -1  -9    8.22    0.76
   1  -1  -9    8.03    0.74
  -1   1   9    7.50    0.57
  -1   1   9    8.60    0.70
   0  -1  -9   47.06    3.18
   0  -1  -9   42.21    2.81
   0   1   9   44.88    2.78
  -1  -1  -9   18.32    1.32
  -1  -1  -9   20.99    1.51
  -1  -1  -9   17.20    1.41
   1   1   9   18.68    1.29
   1   1   9   19.05    1.53
  -2  -1  -9   15.12    1.20
  -2  -1  -9   12.72    1.11
  -2  -1  -9   14.62    1.05
   2   1   9   12.58    1.20
   2   1   9   14.38    1.04
  -3  -1  -9   34.12    2.49
  -3  -1  -9   36.00    2.14
  -3  -1  -9   29.74    2.32
   3   1   9   34.41    2.50
   3   1   9   30.85    2.08
  -4  -1  -9   48.56    2.57
  -4  -1  -9   34.61    2.79
  -4  -1  -9   39.69    3.00
   4   1   9   31.42    2.90
   4   1   9   41.56    2.52
   4   1   9   46.03    3.04
  -5  -1  -9    4.00    0.70
  -5  -1  -9    4.04    0.64
   5   1   9    4.27    0.81
   5   1   9    5.65    0.77
  -6  -1  -9    2.53    0.63
   6   1   9    3.83    0.70
   6   1   9    3.20    0.79
   8  -2  -9    7.31    1.10
   8  -2  -9    9.06    0.99
  -8   2   9   10.14    0.92
   7  -2  -9    0.99    0.45
   7  -2  -9   -0.27    0.36
   7  -2  -9   -0.11    0.48
  -7   2   9   -0.18    0.26
  -7   2   9   -0.34    0.30
   6  -2  -9    6.77    0.67
   6  -2  -9    6.13    0.74
   6  -2  -9    6.35    0.67
   6  -2  -9    5.04    0.80
  -6   2   9    5.82    0.63
  -6   2   9    5.08    0.59
   5  -2  -9    7.69    0.68
   5  -2  -9    6.52    0.75
   5  -2  -9    7.36    0.88
  -5   2   9    6.56    0.68
  -5   2   9    8.18    0.71
   4  -2  -9    6.01    0.67
   4  -2  -9    5.86    0.54
  -4   2   9    4.91    0.57
  -4   2   9    5.58    0.54
   3  -2  -9    0.37    0.29
  -3   2   9    0.17    0.24
  -3   2   9    0.16    0.20
   2  -2  -9   70.38    4.46
  -2   2   9   79.49    4.43
  -2   2   9   70.66    4.41
  -2   2   9   70.78    5.11
   1  -2  -9   40.34    2.62
   1  -2  -9   40.14    2.89
  -1   2   9   41.04    2.99
  -1   2   9   43.23    2.59
   0  -2  -9    0.51    0.30
   0  -2  -9    0.84    0.32
   0   2   9    1.05    0.29
   0   2   9    0.69    0.38
  -1  -2  -9   26.59    1.94
  -1  -2  -9   24.92    1.72
   1   2   9   26.06    1.67
   1   2   9   23.61    1.94
  -2  -2  -9    0.27    0.35
  -2  -2  -9    0.64    0.30
   2   2   9    0.51    0.27
   2   2   9    0.39    0.39
  -3  -2  -9    0.92    0.43
  -3  -2  -9    0.59    0.43
  -3  -2  -9    0.83    0.33
   3   2   9    0.06    0.27
   3   2   9    1.73    0.47
  -4  -2  -9    4.21    0.57
  -4  -2  -9    3.59    0.68
  -4  -2  -9    5.08    0.65
   4   2   9    5.39    0.60
   4   2   9    5.26    0.87
   4   2   9    5.59    0.78
  -5  -2  -9    8.13    1.05
   5   2   9   12.88    1.26
   6   2   9   11.66    1.26
   8  -3  -9    0.90    0.52
  -8   3   9    1.47    0.46
   7  -3  -9   10.65    1.07
   7  -3  -9    9.01    1.09
   7  -3  -9   10.60    0.93
  -7   3   9    9.20    0.90
  -7   3   9    9.41    0.84
   6  -3  -9    1.72    0.43
   6  -3  -9    1.59    0.49
   6  -3  -9    1.51    0.53
  -6   3   9    2.28    0.41
  -6   3   9    1.81    0.39
   5  -3  -9   88.94    6.63
   5  -3  -9   92.04    5.59
   5  -3  -9   89.51    5.52
  -5   3   9   93.32    5.55
  -5   3   9   96.65    5.64
   4  -3  -9   19.85    1.65
   4  -3  -9   22.31    1.49
  -4   3   9   21.17    1.39
  -4   3   9   19.00    1.60
  -4   3   9   19.57    1.41
   3  -3  -9    9.81    0.91
  -3   3   9   11.25    0.81
  -3   3   9   10.61    0.85
  -3   3   9    9.51    0.97
   2  -3  -9    8.69    0.85
  -2   3   9    9.60    0.92
  -2   3   9    9.46    0.80
  -2   3   9    9.86    0.74
   1  -3  -9   18.28    1.43
   1  -3  -9   16.80    1.33
  -1   3   9   18.84    1.29
  -1   3   9   19.24    1.49
   0  -3  -9   47.20    3.08
   0   3   9   49.79    3.05
   0   3   9   49.65    3.54
  -1  -3  -9   -0.33    0.27
   1   3   9   -0.30    0.25
   1   3   9    0.29    0.34
  -2  -3  -9   19.71    1.48
   2   3   9   22.23    1.72
   2   3   9   19.79    1.43
  -3  -3  -9    5.92    0.89
  -3  -3  -9    7.43    0.75
   3   3   9    8.17    0.93
   3   3   9    6.76    0.72
  -4  -3  -9   59.74    3.75
  -4  -3  -9   52.27    4.70
   4   3   9   62.57    4.31
   4   3   9   64.35    4.44
   4   3   9   64.71    3.76
  -5  -3  -9   10.91    1.30
   5   3   9   13.45    1.29
   5   3   9    9.74    1.28
   6   3   9    1.85    0.70
   8  -4  -9    0.69    0.52
   7  -4  -9    1.21    0.53
   7  -4  -9    2.78    0.52
  -7   4   9    1.29    0.41
  -7   4   9    1.59    0.41
   6  -4  -9   28.97    2.26
   6  -4  -9   35.16    2.28
  -6   4   9   37.92    2.27
  -6   4   9   32.43    2.22
   5  -4  -9    9.31    0.96
   5  -4  -9    9.44    0.97
  -5   4   9   10.19    0.94
  -5   4   9    9.57    0.88
  -5   4   9   10.50    0.85
   4  -4  -9    8.13    0.87
  -4   4   9    9.05    0.81
  -4   4   9    7.90    0.70
  -4   4   9    7.90    0.84
   3  -4  -9    1.91    0.47
  -3   4   9    1.99    0.35
  -3   4   9    2.81    0.47
  -3   4   9    2.19    0.44
   2  -4  -9   54.08    3.47
  -2   4   9   53.27    3.94
  -2   4   9   57.69    3.44
   1  -4  -9   30.52    1.98
   1  -4  -9   26.41    2.27
  -1   4   9   27.97    2.19
  -1   4   9   30.64    1.93
   0  -4  -9   -0.33    0.31
   0  -4  -9    0.24    0.36
   0   4   9    0.47    0.36
   0   4   9    0.09    0.29
  -1  -4  -9   41.44    2.74
  -1  -4  -9   39.25    3.36
   1   4   9   45.21    2.73
   1   4   9   44.01    3.15
  -2  -4  -9    9.98    1.15
  -2  -4  -9    8.09    0.91
   2   4   9    9.31    1.07
   2   4   9   11.04    0.91
  -3  -4  -9   37.87    3.40
  -3  -4  -9   40.43    2.73
   3   4   9   44.53    2.73
   3   4   9   44.06    3.15
   3   4   9   44.81    3.23
  -4  -4  -9   -0.37    0.40
  -4  -4  -9    0.18    0.34
   4   4   9    0.42    0.50
   4   4   9    0.04    0.60
   5   4   9    5.14    0.93
   7  -5  -9    7.04    0.81
   7  -5  -9    5.81    0.84
  -7   5   9    5.68    0.69
  -7   5   9    6.55    0.74
   6  -5  -9    1.21    0.46
   6  -5  -9    1.41    0.50
  -6   5   9    1.34    0.43
  -6   5   9    1.09    0.37
   5  -5  -9    4.55    0.68
   5  -5  -9    4.56    0.66
  -5   5   9    4.81    0.61
  -5   5   9    3.93    0.60
  -5   5   9    4.42    0.54
   4  -5  -9    5.14    0.71
  -4   5   9    5.44    0.67
  -4   5   9    5.67    0.70
   3  -5  -9   11.69    1.07
  -3   5   9   12.23    1.02
  -3   5   9   11.96    1.12
   2  -5  -9    1.56    0.44
  -2   5   9    1.02    0.39
  -2   5   9    0.92    0.38
   1  -5  -9   16.68    1.62
   1  -5  -9   19.20    1.46
  -1   5   9   19.66    1.59
  -1   5   9   21.35    1.43
  -1   5   9   18.47    1.36
   0  -5  -9   48.00    3.11
   0  -5  -9   43.05    3.73
   0   5   9   52.53    3.09
   0   5   9   49.53    3.53
  -1  -5  -9    1.71    0.55
  -1  -5  -9    2.91    0.55
   1   5   9    2.32    0.48
   1   5   9    2.73    0.58
  -2  -5  -9   14.79    1.63
  -2  -5  -9   16.76    1.34
   2   5   9   17.81    1.58
   2   5   9   18.97    1.33
  -3  -5  -9   -0.03    0.35
  -3  -5  -9   -0.27    0.41
   3   5   9    0.16    0.38
   3   5   9    0.42    0.49
   3   5   9   -0.26    0.61
  -4  -5  -9    2.29    0.67
   4   5   9    1.96    0.78
   4   5   9    2.95    0.73
   7  -6  -9    5.40    0.75
  -7   6   9    3.29    0.61
  -7   6   9    3.37    0.58
   6  -6  -9   16.82    1.41
   6  -6  -9   14.62    1.40
  -6   6   9   18.86    1.37
  -6   6   9   17.87    1.38
  -6   6   9   17.09    1.47
   5  -6  -9    6.40    0.83
   5  -6  -9    8.73    0.98
  -5   6   9    7.19    0.82
  -5   6   9    9.15    0.93
   4  -6  -9   24.13    1.90
   4  -6  -9   26.28    2.01
  -4   6   9   31.79    2.03
  -4   6   9   27.08    2.15
  -4   6   9   29.16    1.97
   3  -6  -9    1.25    0.48
  -3   6   9    1.02    0.42
  -3   6   9    1.26    0.44
  -3   6   9    1.46    0.43
   2  -6  -9    4.89    0.74
  -2   6   9    5.59    0.62
  -2   6   9    4.67    0.64
  -2   6   9    4.14    0.66
   1  -6  -9   11.95    1.11
  -1   6   9   11.23    1.01
  -1   6   9   10.45    1.10
   0  -6  -9    9.58    1.16
   0  -6  -9   11.43    1.14
   0   6   9   11.76    1.18
   0   6   9   12.66    1.04
  -1  -6  -9   19.82    1.56
  -1  -6  -9   20.19    1.88
   1   6   9   20.41    1.77
   1   6   9   20.34    1.52
  -2  -6  -9   -0.07    0.39
  -2  -6  -9    0.13    0.44
   2   6   9   -0.37    0.32
   2   6   9    0.11    0.47
  -3  -6  -9    5.55    0.91
  -3  -6  -9    5.27    0.76
   3   6   9    5.64    0.93
   3   6   9    5.34    0.73
   7  -7  -9    2.02    0.60
   6  -7  -9   -0.02    0.47
  -6   7   9    0.28    0.44
   5  -7  -9    3.72    0.71
   5  -7  -9    3.89    0.66
  -5   7   9    4.13    0.69
  -5   7   9    3.98    0.67
   4  -7  -9    5.86    0.78
   4  -7  -9    8.26    0.95
  -4   7   9    6.52    0.81
  -4   7   9    6.43    0.81
  -4   7   9    6.65    0.81
   3  -7  -9   14.25    1.29
   3  -7  -9   17.06    1.44
  -3   7   9   16.27    1.35
  -3   7   9   15.85    1.45
  -3   7   9   17.23    1.31
   2  -7  -9    7.17    0.92
  -2   7   9    6.61    0.80
  -2   7   9    6.92    0.90
   1  -7  -9   10.99    1.16
  -1   7   9    9.57    1.02
  -1   7   9   10.81    1.14
   0  -7  -9   13.85    1.31
   0   7   9   12.05    1.31
   0   7   9   12.53    1.15
  -1  -7  -9    2.58    0.61
  -1  -7  -9    2.86    0.61
   1   7   9    2.74    0.57
   1   7   9    2.97    0.70
  -2  -7  -9    0.77    0.50
  -2  -7  -9    0.94    0.51
   2   7   9    0.07    0.42
  -3  -7  -9    0.05    0.45
  -5   8   9    5.45    0.80
  -4   8   9    5.68    0.80
  -4   8   9    5.07    0.72
   3  -8  -9    5.02    0.76
  -3   8   9    6.16    0.85
   2  -8  -9    7.36    0.90
  -2   8   9    8.93    1.06
   1  -8  -9    6.16    0.81
  -1   8   9    6.13    0.90
  -1  10 -10    2.12    0.86
   0   9 -10    4.17    0.88
   0  -9  10    4.65    0.85
  -1   9 -10    8.24    1.10
  -1   9 -10    6.24    1.08
  -1   9 -10    4.82    0.79
   1  -9  10    7.40    1.08
   1  -9  10    6.69    0.83
  -2   9 -10    0.23    0.76
  -2   9 -10    0.15    0.43
   2  -9  10    0.27    0.43
  -3   9 -10   16.64    1.47
  -3   9 -10   17.30    1.73
   3  -9  10   17.28    1.44
  -4   9 -10    0.45    0.49
   4  -9  10    0.42    0.45
   3   8 -10    5.73    0.80
   2   8 -10    0.95    0.48
  -2  -8  10    0.86    0.45
  -2  -8  10    0.59    0.53
  -2  -8  10    0.72    0.47
   1   8 -10    2.16    0.55
   1   8 -10    2.21    0.80
  -1  -8  10    2.01    0.53
  -1  -8  10    1.45    0.56
  -1  -8  10    1.35    0.58
   0   8 -10    0.72    0.69
   0   8 -10   -0.37    0.36
   0   8 -10    1.07    0.73
   0  -8  10    0.61    0.47
   0  -8  10    0.74    0.43
   0  -8  10    0.46    0.40
  -1   8 -10   17.86    1.65
  -1   8 -10   18.35    1.69
  -1   8 -10   15.24    1.43
   1  -8  10   18.69    1.81
   1  -8  10   17.98    1.42
  -2   8 -10    7.03    1.08
  -2   8 -10    6.46    0.89
  -2   8 -10    7.63    1.14
   2  -8  10    8.46    0.89
  -3   8 -10    0.29    0.46
  -3   8 -10   -0.22    0.73
  -3   8 -10    0.23    0.71
   3  -8  10    0.17    0.41
   3  -8  10    0.55    0.41
  -4   8 -10   11.08    1.39
  -4   8 -10    9.60    1.14
  -4   8 -10   12.52    1.46
   4  -8  10   14.03    1.10
   4  -8  10   13.55    1.13
  -5   8 -10    0.88    0.50
  -5   8 -10    0.43    0.80
   5  -8  10    1.69    0.49
   5  -8  10    1.31    0.47
   5   7 -10    0.06    0.42
  -5  -7  10    0.25    0.44
   4   7 -10    0.76    0.45
  -4  -7  10    0.37    0.46
  -4  -7  10    0.39    0.41
   3   7 -10    0.20    0.38
  -3  -7  10    0.23    0.45
  -3  -7  10    0.15    0.37
  -3  -7  10    0.53    0.43
   2   7 -10   13.65    1.24
   2   7 -10   15.26    1.35
  -2  -7  10   15.77    1.45
  -2  -7  10   15.02    1.23
  -2  -7  10   13.78    1.54
   1   7 -10   16.54    1.40
   1   7 -10    9.97    1.18
  -1  -7  10   14.72    1.18
  -1  -7  10   14.45    1.52
  -1  -7  10   14.76    1.43
   0   7 -10   -0.14    0.65
   0   7 -10    0.69    0.40
   0   7 -10    1.08    0.71
   0  -7  10    1.25    0.41
   0  -7  10    0.79    0.48
  -1   7 -10    2.57    0.79
  -1   7 -10    3.60    0.65
  -1   7 -10    3.97    0.84
   1  -7  10    3.24    0.70
   1  -7  10    3.84    0.61
  -2   7 -10    0.75    0.68
  -2   7 -10    0.29    0.41
  -2   7 -10    0.43    0.66
   2  -7  10   -0.16    0.35
  -3   7 -10    5.58    0.79
  -3   7 -10    4.36    0.93
  -3   7 -10    6.69    1.02
   3  -7  10    7.07    0.71
   3  -7  10    6.56    0.77
  -4   7 -10    2.32    0.80
  -4   7 -10    1.28    0.71
  -4   7 -10    2.16    0.56
   4  -7  10    1.30    0.46
   4  -7  10    2.87    0.54
  -5   7 -10   16.18    1.57
  -5   7 -10   16.89    1.58
  -5   7 -10   12.04    1.22
   5  -7  10   15.31    1.24
   5  -7  10   15.69    1.22
  -6   7 -10    0.07    0.76
   6  -7  10    0.01    0.42
   5   6 -10    2.61    0.57
  -5  -6  10    3.85    0.68
  -5  -6  10    3.33    0.61
   4   6 -10    0.57    0.59
   4   6 -10   -0.29    0.33
   4   6 -10    0.05    0.47
  -4  -6  10   -0.01    0.39
  -4  -6  10    0.19    0.37
  -4  -6  10    0.29    0.43
   3   6 -10   14.46    1.28
   3   6 -10   16.48    1.38
  -3  -6  10   14.03    1.59
  -3  -6  10   16.23    1.28
  -3  -6  10   17.70    1.53
   2   6 -10    3.04    0.54
   2   6 -10    2.81    0.70
  -2  -6  10    2.84    0.58
  -2  -6  10    2.94    0.66
  -2  -6  10    3.31    0.55
   1   6 -10    3.01    0.72
   1   6 -10    2.77    0.53
  -1  -6  10    3.38    0.54
  -1  -6  10    2.65    0.56
  -1  -6  10    3.09    0.64
   0   6 -10    1.77    0.68
   0   6 -10    2.16    0.51
   0  -6  10    2.55    0.48
   0  -6  10    2.33    0.60
  -1   6 -10   16.88    1.53
  -1   6 -10   17.50    1.60
  -1   6 -10   16.68    1.38
   1  -6  10   19.09    1.37
  -2   6 -10   45.75    3.00
  -2   6 -10   44.03    3.12
  -2   6 -10   36.44    2.74
   2  -6  10   41.46    2.72
  -3   6 -10    0.23    0.40
  -3   6 -10   -0.65    0.58
  -3   6 -10    0.14    0.59
   3  -6  10    0.04    0.30
   3  -6  10   -0.39    0.31
  -4   6 -10    9.36    1.06
  -4   6 -10    9.48    1.27
  -4   6 -10   13.70    1.33
   4  -6  10   12.47    1.08
   4  -6  10   14.56    1.09
   4  -6  10   12.97    1.00
  -5   6 -10    0.54    0.39
  -5   6 -10    1.78    0.71
  -5   6 -10    1.37    0.72
   5  -6  10    0.27    0.36
   5  -6  10    0.56    0.37
   5  -6  10    0.25    0.45
  -6   6 -10    4.99    0.95
   6  -6  10    5.24    0.70
   6  -6  10    5.74    0.84
   5   5 -10    1.41    0.46
   5   5 -10    1.15    0.51
   5   5 -10    1.36    0.63
  -5  -5  10    1.75    0.47
  -5  -5  10    2.01    0.52
  -5  -5  10    1.20    0.54
   4   5 -10   23.61    1.97
   4   5 -10   24.36    2.03
  -4  -5  10   28.99    2.57
  -4  -5  10   31.34    2.00
  -4  -5  10   34.86    2.43
   3   5 -10    0.19    0.33
  -3  -5  10    0.48    0.39
  -3  -5  10    0.04    0.32
  -3  -5  10    0.46    0.43
   2   5 -10    0.79    0.54
   2   5 -10    0.66    0.36
  -2  -5  10    0.45    0.42
  -2  -5  10    0.90    0.41
  -2  -5  10    1.22    0.38
   1   5 -10   41.00    2.85
   1   5 -10   38.82    2.59
  -1  -5  10   34.60    3.23
  -1  -5  10   43.21    2.57
   0   5 -10    1.86    0.48
   0   5 -10    2.18    0.67
   0  -5  10    2.99    0.50
   0  -5  10    1.94    0.52
  -1   5 -10    1.15    0.61
  -1   5 -10    0.15    0.53
  -1   5 -10    1.30    0.43
   1  -5  10    0.89    0.37
   1  -5  10    0.95    0.38
  -2   5 -10    3.46    0.74
  -2   5 -10    4.88    0.85
  -2   5 -10    5.06    0.69
   2  -5  10    4.42    0.62
   2  -5  10    4.78    0.59
   2  -5  10    5.19    0.53
  -3   5 -10   13.79    1.19
  -3   5 -10   14.70    1.41
  -3   5 -10   14.67    1.34
   3  -5  10   13.53    1.18
   3  -5  10   15.93    1.09
   3  -5  10   14.62    1.15
  -4   5 -10    0.79    0.60
  -4   5 -10    0.46    0.38
  -4   5 -10   -0.05    0.60
   4  -5  10    0.40    0.33
   4  -5  10    0.00    0.35
   4  -5  10    0.52    0.42
  -5   5 -10    6.03    0.97
  -5   5 -10    6.30    0.73
  -5   5 -10    6.69    0.97
   5  -5  10    4.67    0.76
   5  -5  10    7.89    0.75
   5  -5  10    6.61    0.71
  -6   5 -10    9.46    1.13
  -6   5 -10    8.72    1.18
   6  -5  10    9.07    0.88
   6  -5  10    6.77    0.95
   7  -5  10    1.37    0.51
   7  -5  10    2.42    0.72
   6   4 -10    1.44    0.70
   6   4 -10    0.91    0.50
  -6  -4  10    1.62    0.42
  -6  -4  10    0.69    0.49
   5   4 -10    1.79    0.49
   5   4 -10    2.24    0.54
   5   4 -10    2.23    0.72
  -5  -4  10    2.37    0.62
  -5  -4  10    2.95    0.56
  -5  -4  10    2.54    0.48
   4   4 -10    2.56    0.52
   4   4 -10    3.90    0.60
  -4  -4  10    3.03    0.50
  -4  -4  10    2.47    0.63
  -4  -4  10    3.24    0.56
   3   4 -10   21.05    1.63
  -3  -4  10   23.62    1.61
  -3  -4  10   25.57    1.95
  -3  -4  10   20.57    2.05
   2   4 -10   11.75    1.10
   2   4 -10   16.77    1.28
  -2  -4  10   12.42    1.35
  -2  -4  10   15.30    1.28
  -2  -4  10   13.14    1.07
   1   4 -10   10.28    0.93
   1   4 -10   10.87    1.10
  -1  -4  10   11.09    0.90
  -1  -4  10    9.24    1.11
   0   4 -10   67.94    4.64
   0   4 -10   78.57    5.19
   0  -4  10   80.71    4.63
  -1   4 -10    6.93    0.80
  -1   4 -10    8.32    0.98
   1  -4  10    7.65    0.77
  -2   4 -10   64.92    4.71
  -2   4 -10   75.14    5.01
   2  -4  10   87.93    4.46
   2  -4  10   77.10    4.70
   2  -4  10   77.75    5.12
  -3   4 -10    1.25    0.61
  -3   4 -10    1.03    0.52
  -3   4 -10   -0.02    0.37
   3  -4  10    1.28    0.34
   3  -4  10    1.39    0.43
   3  -4  10    0.55    0.37
  -4   4 -10   42.05    2.73
  -4   4 -10   40.51    2.93
  -4   4 -10   42.61    3.14
   4  -4  10   43.56    2.69
   4  -4  10   44.38    2.58
   4  -4  10   40.67    2.98
  -5   4 -10    2.82    0.80
  -5   4 -10    3.13    0.69
  -5   4 -10    3.79    0.54
   5  -4  10    4.23    0.57
   5  -4  10    4.76    0.56
   5  -4  10    3.63    0.67
  -6   4 -10    4.14    0.88
   6  -4  10    3.78    0.76
   6  -4  10    6.14    0.68
  -7   4 -10    2.86    0.86
   7  -4  10    2.71    0.59
   7  -4  10    4.07    0.81
  -7  -3  10    1.24    0.57
   6   3 -10    8.34    1.26
   6   3 -10   12.06    1.02
   6   3 -10   10.31    0.95
  -6  -3  10    8.93    1.20
   5   3 -10    3.44    0.78
   5   3 -10    4.00    0.60
   5   3 -10    2.70    0.50
  -5  -3  10    2.80    0.52
  -5  -3  10    2.54    0.61
  -5  -3  10    2.71    0.47
   4   3 -10   26.41    1.88
   4   3 -10   24.51    1.85
  -4  -3  10   30.64    2.23
  -4  -3  10   24.11    2.35
  -4  -3  10   28.66    1.83
   3   3 -10   18.12    1.47
  -3  -3  10   18.84    1.85
  -3  -3  10   22.17    1.72
  -3  -3  10   21.50    1.44
   2   3 -10   70.64    4.61
   2   3 -10   64.94    4.18
  -2  -3  10   62.99    5.34
  -2  -3  10   71.52    4.14
   1   3 -10   12.62    1.08
   1   3 -10   12.79    1.17
  -1  -3  10   13.75    1.04
  -1  -3  10   13.02    1.31
   0   3 -10   17.71    1.40
   0   3 -10   14.65    1.26
   0  -3  10   16.59    1.21
  -1   3 -10    1.01    0.40
  -1   3 -10    0.90    0.52
   1  -3  10    1.61    0.38
   1  -3  10    1.56    0.26
  -2   3 -10   84.11    5.61
  -2   3 -10   93.93    5.94
  -2   3 -10   90.82    6.27
   2  -3  10   93.18    5.58
   2  -3  10  100.54    5.31
  -3   3 -10  108.76    6.79
  -3   3 -10  102.40    7.14
  -3   3 -10  100.34    6.37
   3  -3  10  107.96    7.05
   3  -3  10  112.77    6.09
   3  -3  10  105.10    6.35
  -4   3 -10    2.91    0.59
  -4   3 -10    3.17    0.51
  -4   3 -10    4.06    0.75
   4  -3  10    3.56    0.51
   4  -3  10    3.60    0.48
   4  -3  10    3.62    0.64
  -5   3 -10    5.88    0.93
  -5   3 -10    5.91    0.67
   5  -3  10    5.59    0.64
   5  -3  10    6.32    0.87
   5  -3  10    7.88    0.90
  -6   3 -10    2.64    0.77
   6  -3  10    2.32    0.66
   6  -3  10    2.38    0.50
  -7   3 -10    2.16    0.82
   7  -3  10    2.41    0.55
   7   2 -10   11.78    1.53
   7   2 -10   14.63    1.21
  -7  -2  10   12.93    1.43
   6   2 -10    0.13    0.59
   6   2 -10    1.16    0.40
   6   2 -10    0.72    0.42
  -6  -2  10    0.32    0.31
  -6  -2  10    0.53    0.44
   5   2 -10    1.24    0.59
   5   2 -10    1.48    0.43
   5   2 -10    2.10    0.41
  -5  -2  10    0.78    0.45
  -5  -2  10    1.63    0.37
   4   2 -10    0.26    0.31
   4   2 -10   -0.06    0.32
  -4  -2  10    0.76    0.39
  -4  -2  10    0.07    0.28
   3   2 -10   81.64    5.11
  -3  -2  10   80.11    6.57
  -3  -2  10   90.79    5.09
   2   2 -10   -0.01    0.27
   2   2 -10    0.33    0.43
  -2  -2  10    0.45    0.28
  -2  -2  10    0.02    0.32
   1   2 -10    3.62    0.52
   1   2 -10    2.21    0.55
  -1  -2  10    2.82    0.44
   0   2 -10    3.86    0.64
   0   2 -10    3.40    0.53
   0  -2  10    3.13    0.46
  -1   2 -10    1.51    0.50
  -1   2 -10    1.15    0.38
   1  -2  10    1.09    0.35
   1  -2  10    1.18    0.22
  -2   2 -10   44.72    2.95
  -2   2 -10   47.03    3.30
   2  -2  10   51.65    2.73
   2  -2  10   42.33    2.90
  -3   2 -10    6.17    0.83
  -3   2 -10    4.32    0.59
  -3   2 -10    5.53    0.77
   3  -2  10    6.49    0.78
   3  -2  10    4.42    0.58
   3  -2  10    4.75    0.48
  -4   2 -10   27.07    2.18
  -4   2 -10   28.73    1.89
  -4   2 -10   27.66    2.26
   4  -2  10   28.50    1.87
   4  -2  10   30.48    2.24
   4  -2  10   28.90    2.17
  -5   2 -10   13.73    1.30
  -5   2 -10   12.33    1.35
   5  -2  10   10.84    1.22
   5  -2  10   12.02    0.97
   5  -2  10   15.14    1.28
  -6   2 -10    8.87    1.11
  -6   2 -10    9.55    1.14
   6  -2  10    7.85    0.80
   6  -2  10    7.62    1.04
  -7   2 -10    2.90    0.85
   7   1 -10    3.43    0.85
   7   1 -10    3.73    0.63
   6   1 -10   14.27    1.15
   6   1 -10   13.06    1.47
   6   1 -10   14.90    1.14
  -6  -1  10   14.09    1.46
  -6  -1  10   14.15    1.08
   5   1 -10    5.76    0.62
   5   1 -10    5.28    0.62
   5   1 -10    4.13    0.80
  -5  -1  10    3.98    0.52
  -5  -1  10    4.97    0.74
   4   1 -10   28.65    1.92
   4   1 -10   27.77    1.95
  -4  -1  10   29.29    2.47
  -4  -1  10   30.00    1.90
   3   1 -10    1.21    0.36
  -3  -1  10    0.77    0.37
  -3  -1  10    1.00    0.31
   2   1 -10    3.15    0.49
  -2  -1  10    3.91    0.47
   1   1 -10   28.93    2.12
   1   1 -10   28.01    1.95
  -1  -1  10   30.80    1.91
   0   1 -10   55.55    3.59
   0   1 -10   59.30    3.97
   0  -1  10   59.58    3.56
  -1   1 -10   53.44    3.55
  -1   1 -10   48.19    3.22
   1  -1  10   52.46    3.18
  -2   1 -10    4.39    0.71
  -2   1 -10    4.57    0.69
  -2   1 -10    5.42    0.61
   2  -1  10    6.06    0.60
  -3   1 -10  123.52    7.30
  -3   1 -10  123.16    8.47
   3  -1  10  122.95    8.49
   3  -1  10  120.89    7.27
   3  -1  10  122.71    8.15
  -4   1 -10    4.60    0.75
  -4   1 -10    3.66    0.72
  -4   1 -10    4.74    0.57
   4  -1  10    5.49    0.76
   4  -1  10    5.04    0.77
   4  -1  10    3.42    0.52
  -5   1 -10   17.41    1.58
   5  -1  10   19.30    1.53
   5  -1  10   13.39    1.45
  -6   1 -10   -0.09    0.60
  -6   1 -10   -0.58    0.47
   6  -1  10   -0.09    0.52
   8   0 -10    1.96    0.57
   7   0 -10    2.54    0.53
   7   0 -10    2.01    0.73
  -7   0  10    3.05    0.54
   6   0 -10    0.06    0.34
   6   0 -10   -0.43    0.48
   6   0 -10    0.35    0.30
   6   0 -10    0.25    0.36
  -6   0  10    0.03    0.33
  -6   0  10    0.05    0.30
  -6   0  10    0.08    0.31
   5   0 -10    4.46    0.54
   5   0 -10    4.84    0.59
   5   0 -10    4.24    0.77
  -5   0  10    4.06    0.66
  -5   0  10    5.33    0.58
  -5   0  10    4.16    0.52
   4   0 -10    1.86    0.34
   4   0 -10    1.77    0.40
  -4   0  10    1.57    0.35
  -4   0  10    1.39    0.33
   3   0 -10   14.98    1.21
   3   0 -10   16.95    1.13
  -3   0  10   16.74    1.14
  -3   0  10   15.75    1.16
   2   0 -10   35.15    2.47
  -2   0  10   42.31    2.39
  -2   0  10   36.48    2.42
   1   0 -10   35.39    2.47
  -1   0  10   39.75    2.36
  -1   0  10   39.74    2.44
   0   0 -10   19.63    1.45
   0   0 -10   17.12    1.40
   0   0 -10   16.08    1.31
   0   0  10   18.83    1.27
  -1   0 -10    0.76    0.38
  -1   0 -10    0.72    0.34
  -1   0 -10    0.93    0.39
   1   0  10    1.17    0.33
  -2   0 -10   24.51    1.98
  -2   0 -10   27.12    2.07
  -2   0 -10   27.20    1.80
   2   0  10   27.12    1.77
   2   0  10   29.05    2.11
  -3   0 -10    3.47    0.64
  -3   0 -10    1.79    0.57
  -3   0 -10    3.41    0.47
   3   0  10    3.69    0.72
   3   0  10    3.20    0.48
   3   0  10    3.41    0.62
  -4   0 -10   19.58    1.70
  -4   0 -10   23.29    1.42
   4   0  10   18.83    1.37
   4   0  10   16.20    1.66
   4   0  10   21.54    1.71
  -5   0 -10    2.42    0.59
  -5   0 -10    1.23    0.59
   5   0  10    3.03    0.64
   5   0  10    1.13    0.60
  -6   0 -10    0.19    0.46
   6   0  10    0.40    0.59
   6   0  10    0.89    0.55
   8  -1 -10    9.87    1.31
   7  -1 -10    0.25    0.41
   7  -1 -10   -0.10    0.52
  -7   1  10    0.34    0.34
   6  -1 -10   17.42    1.39
   6  -1 -10   18.57    1.35
   6  -1 -10   18.84    1.38
   6  -1 -10   16.59    1.67
  -6   1  10   18.52    1.34
  -6   1  10   19.05    1.31
   5  -1 -10    7.25    0.77
   5  -1 -10    7.08    0.93
   5  -1 -10    7.37    0.72
  -5   1  10    7.92    0.72
  -5   1  10    7.45    0.70
   4  -1 -10    2.15    0.46
   4  -1 -10    2.76    0.38
  -4   1  10    2.78    0.38
  -4   1  10    3.02    0.45
   3  -1 -10    6.24    0.57
   3  -1 -10    6.34    0.72
  -3   1  10    7.11    0.69
  -3   1  10    7.69    0.61
   2  -1 -10   89.50    5.72
  -2   1  10   95.12    5.68
  -2   1  10   98.90    5.71
   1  -1 -10   92.38    5.70
   1  -1 -10   95.99    6.46
  -1   1  10   94.26    5.65
   0  -1 -10    5.78    0.67
   0  -1 -10    5.74    0.69
   0   1  10    6.60    0.77
   0   1  10    6.02    0.64
  -1  -1 -10   38.84    2.89
  -1  -1 -10   40.72    2.67
  -1  -1 -10   43.23    3.04
   1   1  10   44.72    3.10
   1   1  10   42.51    2.64
  -2  -1 -10   -0.30    0.33
  -2  -1 -10   -0.24    0.39
  -2  -1 -10    0.18    0.28
   2   1  10   -0.14    0.34
   2   1  10    0.03    0.24
  -3  -1 -10   15.30    1.37
  -3  -1 -10   16.90    1.26
  -3  -1 -10   17.84    1.49
   3   1  10   19.25    1.53
   3   1  10   17.15    1.23
  -4  -1 -10    5.70    0.82
  -4  -1 -10    7.09    0.79
  -4  -1 -10    7.11    0.70
   4   1  10    7.63    0.93
   4   1  10    5.85    0.65
   4   1  10    5.85    0.93
  -5  -1 -10    1.36    0.52
   5   1  10    1.10    0.62
   5   1  10    1.77    0.58
   6   1  10    6.03    0.93
   8  -2 -10    4.86    0.87
   8  -2 -10    4.78    0.77
   7  -2 -10   19.75    1.82
   7  -2 -10   18.92    1.57
  -7   2  10   22.33    1.52
  -7   2  10   19.08    1.41
   6  -2 -10    3.96    0.58
   6  -2 -10    3.74    0.73
   6  -2 -10    5.06    0.68
  -6   2  10    4.17    0.55
  -6   2  10    5.15    0.59
   5  -2 -10   20.80    1.49
   5  -2 -10   18.90    1.70
  -5   2  10   19.06    1.39
  -5   2  10   20.70    1.41
   4  -2 -10    3.29    0.53
  -4   2  10    3.28    0.42
  -4   2  10    2.86    0.45
   3  -2 -10  119.53    7.23
  -3   2  10  121.59    7.18
  -3   2  10  120.42    7.25
   2  -2 -10    4.89    0.62
  -2   2  10    4.40    0.53
  -2   2  10    5.14    0.64
  -2   2  10    4.50    0.43
   1  -2 -10   18.14    1.42
   1  -2 -10   16.94    1.34
  -1   2  10   18.82    1.52
  -1   2  10   18.69    1.29
   0  -2 -10   41.98    3.12
   0  -2 -10   42.71    2.80
   0   2  10   45.55    3.22
   0   2  10   44.61    2.75
  -1  -2 -10   17.58    1.50
  -1  -2 -10   19.05    1.38
   1   2  10   19.30    1.32
   1   2  10   18.42    1.55
  -2  -2 -10   17.35    1.30
  -2  -2 -10   16.66    1.46
   2   2  10   16.92    1.23
   2   2  10   18.38    1.51
  -3  -2 -10    9.05    0.84
  -3  -2 -10    8.12    0.98
   3   2  10   11.06    1.05
   3   2  10    8.68    0.81
  -4  -2 -10   13.40    1.39
  -4  -2 -10   16.04    1.21
  -4  -2 -10   14.72    1.28
   4   2  10   13.18    1.46
   4   2  10   16.29    1.18
   4   2  10   17.74    1.48
  -5  -2 -10    4.93    0.79
   5   2  10    6.70    0.94
   5   2  10    4.88    0.94
   6   2  10    2.36    0.70
   8  -3 -10    0.38    0.50
   7  -3 -10   -0.18    0.36
   7  -3 -10   -0.06    0.41
  -7   3  10    0.29    0.31
  -7   3  10   -0.39    0.31
   6  -3 -10   10.12    1.16
   6  -3 -10   11.33    1.08
   6  -3 -10   10.99    1.00
  -6   3  10   10.60    0.94
  -6   3  10   12.40    0.97
   5  -3 -10    4.25    0.70
   5  -3 -10    5.53    0.69
  -5   3  10    5.96    0.70
  -5   3  10    5.38    0.57
  -5   3  10    4.45    0.58
   4  -3 -10   27.73    2.25
   4  -3 -10   28.25    1.99
  -4   3  10   29.24    1.92
  -4   3  10   28.57    1.89
  -4   3  10   30.11    2.21
   3  -3 -10    3.09    0.51
  -3   3  10    2.82    0.53
  -3   3  10    2.56    0.36
  -3   3  10    2.34    0.43
   2  -3 -10   11.17    1.00
  -2   3  10   12.27    0.94
  -2   3  10   10.93    1.07
   1  -3 -10   71.62    5.01
   1  -3 -10   68.75    4.46
  -1   3  10   72.96    4.41
  -1   3  10   75.81    5.12
   0  -3 -10    0.24    0.32
   0  -3 -10    0.05    0.31
   0   3  10    0.22    0.27
   0   3  10   -0.40    0.33
  -1  -3 -10    9.51    1.02
  -1  -3 -10    9.95    0.96
   1   3  10    9.94    0.87
   1   3  10   10.89    1.06
  -2  -3 -10    0.19    0.35
   2   3  10    0.19    0.31
   2   3  10    0.38    0.42
  -3  -3 -10   28.23    1.98
  -3  -3 -10   26.36    2.47
   3   3  10   30.43    1.98
   3   3  10   31.66    2.35
  -4  -3 -10    0.21    0.47
  -4  -3 -10    0.01    0.43
  -4  -3 -10    0.18    0.36
   4   3  10   -0.41    0.62
   4   3  10    0.36    0.50
   5   3  10   14.43    1.47
   7  -4 -10   14.24    1.34
   7  -4 -10   13.97    1.22
  -7   4  10   15.61    1.21
   6  -4 -10    8.47    0.91
   6  -4 -10    8.21    0.93
  -6   4  10    8.81    0.83
  -6   4  10    8.10    0.81
   5  -4 -10   21.01    1.57
   5  -4 -10   18.37    1.53
  -5   4  10   18.87    1.62
  -5   4  10   21.39    1.50
  -5   4  10   21.47    1.45
   4  -4 -10   -0.10    0.37
  -4   4  10    0.85    0.37
  -4   4  10    0.66    0.36
  -4   4  10    0.87    0.29
   3  -4 -10    9.49    0.97
  -3   4  10   11.18    0.90
  -3   4  10    8.26    0.93
   2  -4 -10   19.92    1.57
  -2   4  10   21.39    1.73
  -2   4  10   22.35    1.53
   1  -4 -10   32.10    2.74
   1  -4 -10   35.39    2.35
  -1   4  10   36.57    2.29
  -1   4  10   35.16    2.62
   0  -4 -10   33.44    2.87
   0  -4 -10   36.84    2.42
   0   4  10   38.66    2.73
   0   4  10   34.63    2.34
  -1  -4 -10   -0.02    0.35
  -1  -4 -10    0.12    0.42
   1   4  10    0.15    0.32
   1   4  10    0.16    0.41
  -2  -4 -10   34.26    2.35
  -2  -4 -10   31.38    2.88
   2   4  10   38.71    2.36
   2   4  10   36.40    2.73
  -3  -4 -10    2.63    0.54
  -3  -4 -10    2.48    0.65
   3   4  10    2.45    0.81
   3   4  10    2.49    0.52
   3   4  10    3.02    0.68
  -4  -4 -10    3.18    0.75
   4   4  10    2.53    0.84
   4   4  10    3.38    0.75
   7  -5 -10    6.52    0.81
  -7   5  10    4.46    0.66
  -7   5  10    5.31    0.70
   6  -5 -10   16.71    1.37
   6  -5 -10   16.51    1.35
  -6   5  10   13.90    1.25
  -6   5  10   16.31    1.23
   5  -5 -10    1.45    0.50
   5  -5 -10    1.50    0.50
  -5   5  10    1.70    0.46
  -5   5  10    1.59    0.39
  -5   5  10    1.44    0.42
   4  -5 -10   34.26    2.42
  -4   5  10   36.38    2.38
  -4   5  10   35.24    2.67
   3  -5 -10    5.51    0.75
  -3   5  10    6.56    0.77
  -3   5  10    4.48    0.64
   2  -5 -10    9.11    0.98
  -2   5  10    9.20    0.95
  -2   5  10    7.72    0.84
   1  -5 -10    7.91    0.92
  -1   5  10    8.55    0.93
  -1   5  10    8.02    0.83
   0  -5 -10   -0.13    0.38
   0  -5 -10   -0.75    0.36
   0   5  10    0.20    0.35
   0   5  10   -0.07    0.37
  -1  -5 -10    3.99    0.67
  -1  -5 -10    3.80    0.69
   1   5  10    3.27    0.59
   1   5  10    3.35    0.64
  -2  -5 -10    3.30    0.70
  -2  -5 -10    4.19    0.66
   2   5  10    4.28    0.76
   2   5  10    3.62    0.60
  -3  -5 -10    5.45    0.90
  -3  -5 -10    5.71    0.76
   3   5  10    5.15    0.71
   3   5  10    6.20    1.02
   3   5  10    4.59    0.85
   7  -6 -10   13.50    1.26
   6  -6 -10    1.03    0.52
  -6   6  10    0.51    0.52
  -6   6  10    0.56    0.39
  -6   6  10    0.93    0.43
   5  -6 -10    1.53    0.57
   5  -6 -10    0.35    0.43
  -5   6  10    0.94    0.51
  -5   6  10    0.70    0.44
   4  -6 -10    6.41    0.88
   4  -6 -10    5.58    0.76
  -4   6  10    5.19    0.74
  -4   6  10    6.49    0.77
  -4   6  10    5.49    0.73
   3  -6 -10   14.38    1.34
  -3   6  10   14.81    1.26
  -3   6  10   14.68    1.23
  -3   6  10   16.06    1.40
   2  -6 -10   13.47    1.25
  -2   6  10   14.57    1.31
  -2   6  10   12.37    1.15
   1  -6 -10    4.66    0.74
  -1   6  10    4.68    0.65
  -1   6  10    3.50    0.68
   0  -6 -10   33.20    2.36
   0   6  10   33.80    2.64
   0   6  10   33.34    2.29
  -1  -6 -10    0.39    0.46
  -1  -6 -10    1.01    0.52
   1   6  10    0.62    0.43
   1   6  10    0.65    0.51
  -2  -6 -10    0.93    0.49
  -2  -6 -10    1.11    0.56
   2   6  10    1.00    0.48
  -3  -6 -10    1.94    0.57
   3   6  10    2.79    0.59
  -5   7  10    9.73    1.05
  -4   7  10    9.12    1.01
  -4   7  10   10.56    1.08
   3  -7 -10   10.60    1.19
   3  -7 -10    9.69    1.07
  -3   7  10   10.77    1.16
  -3   7  10   12.01    1.10
   2  -7 -10   14.78    1.39
  -2   7  10   13.55    1.26
  -2   7  10   15.08    1.41
   1  -7 -10    6.93    0.93
  -1   7  10    5.82    0.87
  -1   7  10    5.32    0.74
   0  -7 -10    0.20    0.51
   0   7  10   -0.22    0.38
  -3   8  10    8.03    1.03
   0   9 -11    0.25    0.74
  -1   9 -11    4.86    0.98
   3  -9  11   -0.34    0.40
   1   8 -11   -0.40    0.66
   1   8 -11    0.35    0.42
  -1  -8  11    0.03    0.44
  -1  -8  11    0.78    0.48
   0   8 -11   20.34    1.76
   0   8 -11   14.54    1.44
   0  -8  11   17.59    1.43
   0  -8  11   19.66    1.88
  -1   8 -11   15.09    1.55
  -1   8 -11   11.04    1.27
   1  -8  11   16.19    1.62
   1  -8  11   14.28    1.24
  -2   8 -11    0.74    0.78
  -2   8 -11    1.16    0.51
  -2   8 -11    1.47    0.81
   2  -8  11    1.46    0.48
  -3   8 -11    2.94    0.90
  -3   8 -11    4.72    0.75
  -3   8 -11    4.80    1.00
   3  -8  11    4.75    0.64
   3  -8  11    4.20    0.67
  -4   8 -11    1.00    0.50
   4  -8  11    0.66    0.44
   4  -8  11    0.64    0.44
  -5   8 -11    5.00    0.76
   3   7 -11    0.30    0.39
  -3  -7  11    0.00    0.42
  -3  -7  11    0.34    0.40
   2   7 -11    0.90    0.67
   2   7 -11    1.11    0.46
  -2  -7  11    0.81    0.46
  -2  -7  11    0.50    0.49
  -2  -7  11    1.55    0.47
   1   7 -11    3.38    0.83
   1   7 -11    4.71    0.73
  -1  -7  11    5.16    0.71
  -1  -7  11    4.18    0.80
  -1  -7  11    5.10    0.75
   0   7 -11    1.19    0.48
   0   7 -11    1.30    0.74
   0  -7  11    1.92    0.48
   0  -7  11    1.49    0.57
  -1   7 -11    2.84    0.81
  -1   7 -11    2.98    0.85
  -1   7 -11    4.57    0.72
   1  -7  11    5.08    0.69
  -2   7 -11   12.31    1.36
  -2   7 -11   10.77    1.14
   2  -7  11   10.74    1.04
  -3   7 -11    0.70    0.70
  -3   7 -11    0.09    0.72
  -3   7 -11    0.04    0.42
   3  -7  11    0.46    0.40
   3  -7  11   -0.11    0.34
  -4   7 -11    2.07    0.80
  -4   7 -11    1.94    0.83
  -4   7 -11    2.37    0.59
   4  -7  11    3.20    0.57
   4  -7  11    2.96    0.51
  -5   7 -11    0.74    0.48
  -5   7 -11    1.03    0.80
   5  -7  11    1.20    0.48
   5  -7  11    2.01    0.52
   5   6 -11   -0.41    0.40
  -5  -6  11    0.83    0.46
  -5  -6  11    0.15    0.45
   4   6 -11    2.20    0.66
   4   6 -11    2.02    0.52
  -4  -6  11    1.96    0.65
  -4  -6  11    1.79    0.52
  -4  -6  11    2.45    0.54
   3   6 -11    0.32    0.39
  -3  -6  11    0.42    0.38
  -3  -6  11   -0.04    0.42
  -3  -6  11    0.06    0.41
   2   6 -11    8.83    1.03
   2   6 -11   12.63    1.20
  -2  -6  11   10.45    1.29
  -2  -6  11   12.01    1.21
  -2  -6  11   12.48    1.05
   1   6 -11    6.09    0.92
   1   6 -11    4.91    0.73
  -1  -6  11    5.33    0.89
  -1  -6  11    7.70    0.77
   0   6 -11   -0.67    0.64
   0   6 -11    0.30    0.38
   0  -6  11   -0.23    0.37
   0  -6  11   -0.71    0.29
  -1   6 -11   29.92    2.33
  -1   6 -11   36.44    2.67
   1  -6  11   36.05    2.32
  -2   6 -11    1.62    0.71
  -2   6 -11   -0.13    0.38
  -2   6 -11    1.12    0.69
   2  -6  11    0.21    0.38
   2  -6  11    0.31    0.32
  -3   6 -11   21.33    1.94
  -3   6 -11   21.43    1.84
  -3   6 -11   18.76    1.67
   3  -6  11   26.33    1.56
   3  -6  11   23.28    1.66
  -4   6 -11    2.83    0.78
  -4   6 -11    2.02    0.52
  -4   6 -11    1.32    0.75
   4  -6  11    1.90    0.48
   4  -6  11    2.39    0.47
  -5   6 -11    4.72    0.73
  -5   6 -11    6.99    1.09
  -5   6 -11    6.47    1.02
   5  -6  11    6.08    0.69
   6  -6  11    1.57    0.52
   5   5 -11    3.38    0.63
   5   5 -11    3.12    0.65
  -5  -5  11    3.41    0.74
  -5  -5  11    2.95    0.55
  -5  -5  11    3.02    0.60
   4   5 -11   -1.13    0.43
   4   5 -11   -0.31    0.36
  -4  -5  11    0.02    0.38
  -4  -5  11    0.08    0.38
  -4  -5  11   -0.23    0.41
   3   5 -11   15.41    1.32
  -3  -5  11   15.99    1.28
  -3  -5  11   14.70    1.63
  -3  -5  11   17.98    1.54
   2   5 -11    2.94    0.68
   2   5 -11    1.70    0.47
  -2  -5  11    1.84    0.55
  -2  -5  11    2.49    0.49
   1   5 -11   10.47    1.11
   1   5 -11    7.42    0.89
  -1  -5  11    9.97    0.89
  -1  -5  11    8.02    1.10
   0   5 -11   15.23    1.29
   0   5 -11   13.97    1.46
   0  -5  11   17.69    1.26
  -1   5 -11   35.20    2.53
  -1   5 -11   39.84    2.87
   1  -5  11   38.43    2.49
  -2   5 -11   61.82    4.46
  -2   5 -11   54.45    3.98
   2  -5  11   72.81    3.75
   2  -5  11   62.97    4.26
   2  -5  11   63.91    3.97
  -3   5 -11    0.32    0.59
  -3   5 -11    0.30    0.41
  -3   5 -11    0.29    0.60
   3  -5  11    0.34    0.33
   3  -5  11    0.68    0.41
   3  -5  11    0.49    0.39
  -4   5 -11    7.70    0.97
  -4   5 -11    6.90    1.01
  -4   5 -11    5.11    0.74
   4  -5  11    6.23    0.80
   4  -5  11    7.29    0.71
   4  -5  11    6.36    0.75
  -5   5 -11    0.19    0.70
  -5   5 -11    0.78    0.41
  -5   5 -11    0.41    0.66
   5  -5  11    1.38    0.43
   5  -5  11    0.31    0.50
   6  -5  11    6.89    0.76
   6  -5  11    5.75    0.87
  -6  -4  11    1.10    0.52
  -6  -4  11    0.97    0.42
   5   4 -11    2.49    0.54
   5   4 -11    3.29    0.83
  -5  -4  11    3.00    0.52
  -5  -4  11    1.46    0.59
   4   4 -11   19.97    1.54
   4   4 -11   17.91    1.55
  -4  -4  11   21.87    1.79
  -4  -4  11   18.88    1.93
  -4  -4  11   22.04    1.50
   3   4 -11    0.31    0.38
  -3  -4  11    1.14    0.40
  -3  -4  11    0.76    0.45
  -3  -4  11    1.30    0.39
   2   4 -11    5.56    0.72
   2   4 -11    6.97    0.86
  -2  -4  11    5.17    0.85
  -2  -4  11    5.95    0.68
   1   4 -11   21.69    1.59
   1   4 -11   22.34    1.73
  -1  -4  11   20.92    1.53
  -1  -4  11   19.11    1.91
   0   4 -11   22.97    1.73
   0   4 -11   23.52    1.91
   0  -4  11   24.59    1.69
  -1   4 -11    7.72    0.91
  -1   4 -11    8.13    1.05
   1  -4  11    8.70    0.87
   1  -4  11    9.91    0.72
  -2   4 -11    0.64    0.60
  -2   4 -11    1.23    0.46
   2  -4  11    1.79    0.49
   2  -4  11    1.61    0.45
   2  -4  11    1.38    0.32
  -3   4 -11   15.89    1.55
  -3   4 -11   17.19    1.36
  -3   4 -11   18.00    1.45
   3  -4  11   16.00    1.40
   3  -4  11   17.33    1.30
   3  -4  11   18.52    1.20
  -4   4 -11    1.00    0.57
  -4   4 -11    0.29    0.60
  -4   4 -11    0.38    0.36
   4  -4  11    0.27    0.31
   4  -4  11    0.31    0.44
   4  -4  11    0.25    0.36
  -5   4 -11    3.81    0.88
   5  -4  11    4.43    0.73
   5  -4  11    4.46    0.58
  -6   4 -11    4.91    0.97
   6  -4  11    4.98    0.67
   6  -4  11    4.38    0.81
  -7  -3  11    3.06    0.74
   6   3 -11    2.79    0.59
   6   3 -11    2.59    0.51
   6   3 -11    1.21    0.70
  -6  -3  11    2.35    0.47
  -6  -3  11    2.49    0.66
   5   3 -11    7.77    1.23
   5   3 -11   11.42    1.02
   5   3 -11   10.54    1.03
  -5  -3  11   10.33    1.26
  -5  -3  11   12.00    0.97
   4   3 -11    0.18    0.41
   4   3 -11    0.46    0.35
  -4  -3  11    0.10    0.37
  -4  -3  11    0.06    0.31
   3   3 -11   20.42    1.64
  -3  -3  11   26.14    1.63
  -3  -3  11   21.59    2.06
   2   3 -11   17.11    1.29
   2   3 -11   16.79    1.37
  -2  -3  11   15.03    1.54
  -2  -3  11   14.77    1.19
   1   3 -11   54.42    3.80
   1   3 -11   53.25    3.46
  -1  -3  11   55.21    3.39
   0   3 -11    1.31    0.58
   0   3 -11    2.27    0.50
   0  -3  11    2.50    0.45
  -1   3 -11    0.82    0.55
  -1   3 -11   -0.32    0.35
   1  -3  11    0.42    0.34
   1  -3  11    0.33    0.22
  -2   3 -11   30.46    2.26
  -2   3 -11   38.42    2.60
   2  -3  11   34.16    2.23
  -3   3 -11    0.67    0.59
  -3   3 -11   -0.06    0.34
   3  -3  11    0.34    0.28
   3  -3  11    0.42    0.34
   3  -3  11   -0.02    0.43
  -4   3 -11   14.76    1.46
  -4   3 -11   14.60    1.18
   4  -3  11   15.27    1.38
   4  -3  11   17.04    1.19
  -5   3 -11    0.85    0.66
   5  -3  11    0.95    0.53
   5  -3  11    0.83    0.38
   5  -3  11    1.08    0.53
  -6   3 -11   15.19    1.55
   7   2 -11    1.46    0.55
  -7  -2  11    1.59    0.58
   6   2 -11    7.48    0.83
   6   2 -11    6.68    1.07
   6   2 -11    6.50    0.76
  -6  -2  11    5.30    0.66
  -6  -2  11    6.95    0.98
   5   2 -11    3.80    0.59
   5   2 -11    2.66    0.77
   5   2 -11    5.39    0.65
  -5  -2  11    3.26    0.51
  -5  -2  11    3.46    0.68
   4   2 -11   21.50    1.59
   4   2 -11   22.11    1.58
  -4  -2  11   21.77    1.54
  -4  -2  11   22.99    2.04
   3   2 -11    2.32    0.49
  -3  -2  11    2.86    0.60
  -3  -2  11    3.13    0.47
   2   2 -11   15.64    1.28
  -2  -2  11   16.82    1.23
   1   2 -11    2.31    0.56
   1   2 -11    2.38    0.48
  -1  -2  11    1.92    0.41
   0   2 -11    2.98    0.61
   0   2 -11    2.28    0.50
   0  -2  11    3.30    0.49
  -1   2 -11   35.09    2.64
  -1   2 -11   35.58    2.41
   1  -2  11   38.59    2.37
  -2   2 -11    7.50    0.83
   2  -2  11    9.64    0.82
  -3   2 -11   29.78    2.03
  -3   2 -11   29.13    2.27
   3  -2  11   30.81    2.26
   3  -2  11   30.16    1.98
  -4   2 -11    9.57    1.10
  -4   2 -11    9.20    0.87
  -4   2 -11    7.37    0.99
   4  -2  11    8.79    1.02
   4  -2  11   10.14    1.06
   4  -2  11    7.84    0.82
  -5   2 -11    2.80    0.76
  -5   2 -11    4.45    0.77
   5  -2  11    2.65    0.68
   5  -2  11    3.79    0.70
  -6   2 -11    0.99    0.72
   6  -2  11    0.58    0.59
   7   1 -11    1.16    0.50
   6   1 -11   -0.20    0.56
   6   1 -11    0.56    0.37
   6   1 -11    0.14    0.34
  -6  -1  11    0.44    0.40
  -6  -1  11   -0.04    0.31
   5   1 -11    6.00    0.71
   5   1 -11    6.37    0.97
   5   1 -11    5.82    0.68
  -5  -1  11    6.69    0.68
  -5  -1  11    6.80    0.92
   4   1 -11   -0.46    0.27
   4   1 -11   -0.05    0.30
  -4  -1  11    0.32    0.37
  -4  -1  11    0.06    0.28
   3   1 -11   18.77    1.45
  -3  -1  11   20.11    1.38
   2   1 -11   74.03    4.69
  -2  -1  11   78.14    4.63
   1   1 -11    0.08    0.33
   1   1 -11    0.28    0.45
  -1  -1  11    0.26    0.29
   0   1 -11   30.03    2.20
   0   1 -11   28.15    2.02
   0  -1  11   31.00    1.97
  -1   1 -11    4.10    0.65
  -1   1 -11    4.47    0.60
   1  -1  11    3.66    0.53
  -2   1 -11   28.71    2.07
  -2   1 -11   24.61    1.78
  -2   1 -11   22.68    1.95
   2  -1  11   27.99    1.76
  -3   1 -11    1.70    0.56
  -3   1 -11    2.41    0.58
  -3   1 -11    0.89    0.38
   3  -1  11    1.19    0.56
   3  -1  11    1.18    0.49
   3  -1  11    1.58    0.39
  -4   1 -11   29.41    1.93
  -4   1 -11   27.19    2.32
   4  -1  11   31.63    1.93
   4  -1  11   26.35    2.22
   4  -1  11   29.06    2.29
  -5   1 -11    0.26    0.52
  -5   1 -11    0.85    0.63
   5  -1  11   -0.35    0.49
   5  -1  11    0.87    0.49
  -6   1 -11    2.28    0.77
   7   0 -11    0.75    0.66
  -7   0  11    0.62    0.39
   6   0 -11   17.36    1.45
   6   0 -11   19.12    1.47
   6   0 -11   19.81    1.53
   6   0 -11   18.50    1.86
  -6   0  11   20.34    1.41
  -6   0  11   23.21    1.49
   5   0 -11   -0.13    0.31
   5   0 -11    0.06    0.48
   5   0 -11   -0.27    0.29
  -5   0  11   -0.13    0.29
  -5   0  11   -0.42    0.27
   4   0 -11   27.24    1.94
   4   0 -11   29.76    1.90
  -4   0  11   29.41    1.88
  -4   0  11   27.02    1.87
   3   0 -11    5.87    0.57
   3   0 -11    5.84    0.69
  -3   0  11    5.57    0.55
  -3   0  11    5.64    0.62
   2   0 -11   37.82    2.69
  -2   0  11   42.67    2.64
  -2   0  11   43.27    2.58
   1   0 -11   58.38    3.65
  -1   0  11   57.97    3.58
   0   0 -11   41.55    2.75
   0   0 -11   42.55    2.98
   0   0  11   43.64    2.69
  -1   0 -11   31.97    2.19
  -1   0 -11   34.89    2.49
  -1   0 -11   32.18    2.38
   1   0  11   32.50    2.14
  -2   0 -11    1.68    0.50
  -2   0 -11    0.73    0.48
  -2   0 -11    1.15    0.39
   2   0  11    2.50    0.56
   2   0  11    1.39    0.40
  -3   0 -11   19.39    1.67
  -3   0 -11   20.83    1.50
  -3   0 -11   23.43    1.80
   3   0  11   23.52    1.80
   3   0  11   18.37    1.75
   3   0  11   22.23    1.50
  -4   0 -11   -0.39    0.29
  -4   0 -11   -0.14    0.51
  -4   0 -11   -0.44    0.40
   4   0  11   -0.17    0.43
   4   0  11    0.24    0.31
   4   0  11   -0.67    0.49
  -5   0 -11    0.07    0.46
  -5   0 -11    0.13    0.54
   5   0  11   -0.39    0.52
   5   0  11    0.36    0.49
   7  -1 -11    8.20    1.13
   7  -1 -11    8.47    0.92
  -7   1  11    6.74    0.77
   6  -1 -11    7.74    1.03
   6  -1 -11    8.15    0.88
   6  -1 -11    9.15    0.87
  -6   1  11    6.12    0.70
  -6   1  11    6.54    0.74
   5  -1 -11   12.08    1.08
   5  -1 -11   11.19    1.30
  -5   1  11   13.92    1.00
  -5   1  11   12.24    1.02
   4  -1 -11   -0.40    0.29
  -4   1  11   -0.11    0.31
  -4   1  11   -0.20    0.24
   3  -1 -11   29.65    2.24
  -3   1  11   32.22    2.19
  -3   1  11   38.08    2.16
   2  -1 -11   35.27    2.40
  -2   1  11   37.45    2.36
   1  -1 -11   10.13    0.95
  -1   1  11   10.67    0.89
   0  -1 -11    0.77    0.36
   0  -1 -11    1.48    0.45
   0   1  11    1.03    0.37
   0   1  11    1.59    0.46
  -1  -1 -11    9.28    0.91
  -1  -1 -11   10.30    1.03
   1   1  11   11.07    0.92
   1   1  11   10.46    1.07
  -2  -1 -11   21.55    1.69
  -2  -1 -11   18.53    1.56
  -2  -1 -11   20.98    1.47
   2   1  11   21.80    1.71
   2   1  11   18.77    1.40
  -3  -1 -11    0.30    0.35
  -3  -1 -11   -0.20    0.42
  -3  -1 -11    0.11    0.47
   3   1  11    0.61    0.46
   3   1  11   -0.02    0.30
  -4  -1 -11    7.42    0.85
  -4  -1 -11    5.90    0.69
  -4  -1 -11    5.53    0.86
   4   1  11    5.95    0.95
   4   1  11    6.14    0.68
   4   1  11    8.43    0.99
  -5  -1 -11    8.76    1.16
   5   1  11   13.14    1.26
   7  -2 -11    6.15    0.81
   7  -2 -11    6.19    0.92
  -7   2  11    4.43    0.64
   6  -2 -11    4.22    0.69
   6  -2 -11    4.47    0.62
   6  -2 -11    3.95    0.75
  -6   2  11    3.48    0.52
  -6   2  11    4.16    0.54
   5  -2 -11    0.86    0.51
   5  -2 -11    0.93    0.42
  -5   2  11    0.30    0.32
  -5   2  11    0.67    0.30
   4  -2 -11   31.77    2.27
  -4   2  11   32.28    2.19
  -4   2  11   35.61    2.17
   3  -2 -11    1.09    0.40
  -3   2  11    0.45    0.31
  -3   2  11    1.20    0.27
  -3   2  11    0.70    0.40
   2  -2 -11   35.53    2.40
  -2   2  11   36.12    2.70
  -2   2  11   36.12    2.33
   1  -2 -11   23.50    1.83
   1  -2 -11   24.62    1.74
  -1   2  11   24.01    1.66
  -1   2  11   24.97    1.94
   0  -2 -11    2.21    0.50
   0  -2 -11    3.33    0.54
   0   2  11    2.22    0.43
   0   2  11    3.10    0.57
  -1  -2 -11   32.14    2.35
  -1  -2 -11   29.13    2.08
   1   2  11   31.92    2.38
   1   2  11   29.54    2.02
  -2  -2 -11    0.21    0.34
  -2  -2 -11    0.15    0.41
   2   2  11    0.26    0.42
   2   2  11    0.26    0.31
  -3  -2 -11    4.70    0.63
  -3  -2 -11    4.16    0.69
   3   2  11    4.92    0.78
   3   2  11    4.85    0.60
  -4  -2 -11    2.18    0.58
  -4  -2 -11    1.33    0.44
   4   2  11    2.16    0.61
   4   2  11    1.45    0.71
   5   2  11   18.11    1.71
   7  -3 -11   10.47    1.14
  -7   3  11   10.30    0.98
  -7   3  11   11.73    1.01
   6  -3 -11    0.21    0.39
   6  -3 -11    0.64    0.45
  -6   3  11    0.07    0.31
  -6   3  11   -0.11    0.32
   5  -3 -11   30.62    2.16
  -5   3  11   32.12    2.07
  -5   3  11   31.63    2.40
  -5   3  11   30.14    2.08
   4  -3 -11    3.15    0.58
  -4   3  11    3.57    0.45
  -4   3  11    3.31    0.60
  -4   3  11    3.29    0.52
   3  -3 -11    2.16    0.51
  -3   3  11    2.58    0.52
  -3   3  11    2.76    0.46
   2  -3 -11   10.39    1.01
  -2   3  11    9.80    1.00
  -2   3  11    9.50    0.86
   1  -3 -11    2.85    0.53
  -1   3  11    2.57    0.53
  -1   3  11    1.78    0.40
   0  -3 -11    9.14    0.94
   0  -3 -11    9.39    0.96
   0   3  11    9.19    0.85
   0   3  11    9.71    1.01
  -1  -3 -11    9.38    1.03
  -1  -3 -11    9.85    0.99
   1   3  11   10.48    1.09
   1   3  11   11.27    0.92
  -2  -3 -11   19.61    1.47
  -2  -3 -11   17.39    1.61
   2   3  11   19.37    1.41
   2   3  11   20.03    1.68
  -3  -3 -11    0.13    0.49
  -3  -3 -11    0.00    0.43
  -3  -3 -11    0.65    0.39
   3   3  11   -0.02    0.45
   3   3  11    0.47    0.36
  -4  -3 -11   10.14    1.29
   4   3  11   12.03    1.26
  -7   4  11   -0.02    0.36
  -7   4  11    0.07    0.36
   6  -4 -11    4.77    0.75
   6  -4 -11    5.57    0.77
  -6   4  11    4.54    0.65
  -6   4  11    5.42    0.63
   5  -4 -11    0.85    0.46
   5  -4 -11    0.68    0.46
  -5   4  11    0.40    0.36
  -5   4  11    0.12    0.35
  -5   4  11    0.14    0.30
   4  -4 -11   26.52    1.99
  -4   4  11   28.07    2.16
  -4   4  11   27.84    1.92
   3  -4 -11   12.81    1.18
  -3   4  11   12.91    1.22
  -3   4  11   13.88    1.11
   2  -4 -11    9.61    0.99
  -2   4  11    7.51    0.82
  -2   4  11    9.18    0.97
   1  -4 -11   16.74    1.41
  -1   4  11   16.61    1.32
  -1   4  11   18.99    1.55
   0  -4 -11    0.44    0.43
   0  -4 -11    1.28    0.46
   0  -4 -11    0.92    0.47
   0   4  11    0.95    0.39
   0   4  11    1.07    0.45
  -1  -4 -11    0.76    0.44
  -1  -4 -11    1.30    0.52
   1   4  11    0.88    0.39
   1   4  11    0.92    0.48
  -2  -4 -11    1.63    0.58
  -2  -4 -11    2.03    0.52
   2   4  11    1.92    0.47
   2   4  11    1.93    0.58
  -3  -4 -11    4.98    0.74
  -3  -4 -11    4.80    0.85
  -3  -4 -11    6.88    1.00
   3   4  11    7.40    0.81
   3   4  11    7.56    1.01
   3   4  11    3.95    0.96
   6  -5 -11    0.99    0.52
  -6   5  11    0.50    0.37
  -6   5  11    0.77    0.42
   5  -5 -11    4.36    0.72
   5  -5 -11    5.13    0.76
  -5   5  11    3.50    0.61
   4  -5 -11    4.99    0.78
  -4   5  11    4.53    0.67
  -4   5  11    6.04    0.75
   3  -5 -11    6.80    0.87
  -3   5  11    7.31    0.81
  -3   5  11    7.13    0.87
   2  -5 -11    6.61    0.86
  -2   5  11    6.51    0.86
  -2   5  11    5.54    0.72
   1  -5 -11    1.05    0.47
  -1   5  11    1.49    0.51
  -1   5  11    0.74    0.41
   0  -5 -11   10.41    1.09
   0   5  11   10.70    0.99
   0   5  11    8.79    1.09
  -1  -5 -11    2.14    0.61
  -1  -5 -11    2.43    0.60
   1   5  11    2.55    0.63
   1   5  11    1.81    0.50
  -2  -5 -11   12.91    1.21
  -2  -5 -11   12.99    1.47
   2   5  11   13.53    1.17
  -3  -5 -11    0.85    0.47
   3   5  11    0.60    0.45
  -5   6  11    0.97    0.53
   4  -6 -11   14.17    1.35
  -4   6  11   14.26    1.26
  -4   6  11   15.21    1.36
  -4   6  11   12.64    1.23
   3  -6 -11   17.92    1.48
  -3   6  11   15.74    1.47
  -3   6  11   15.04    1.34
   2  -6 -11    6.55    0.91
  -2   6  11    4.37    0.71
  -2   6  11    6.05    0.84
   1  -6 -11    5.63    0.84
  -1   6  11    4.06    0.75
  -1   6  11    3.75    0.64
   0  -6 -11    5.22    0.82
   0   6  11    4.45    0.80
   0   6  11    4.83    0.71
   1   6  11    3.57    0.66
  -2  -6 -11    0.13    0.54
  -4   7  11    1.66    0.55
  -3   7  11    7.33    0.96
   1   8 -12   -0.28    0.70
   0   8 -12    2.20    0.92
  -1   8 -12    2.66    0.96
   3  -8  12    0.69    0.40
   2   7 -12    3.24    0.85
   1   7 -12    0.66    0.45
   1   7 -12   -0.49    0.73
  -1  -7  12    1.32    0.47
  -1  -7  12    0.93    0.56
   0   7 -12    9.70    1.26
   0   7 -12    8.73    1.01
   0  -7  12    7.47    1.13
   0  -7  12    9.29    0.95
  -1   7 -12   11.36    1.37
  -1   7 -12   11.84    1.17
   1  -7  12    9.85    1.05
  -2   7 -12    0.82    0.77
  -2   7 -12   -0.14    0.72
  -2   7 -12   -0.28    0.41
   2  -7  12    0.03    0.35
   2  -7  12    0.63    0.42
  -3   7 -12    7.17    0.96
   3  -7  12    7.56    0.91
   3  -7  12    8.40    0.80
  -4   7 -12    0.66    0.50
  -4   7 -12    0.36    0.76
   4  -7  12    0.17    0.38
   4  -7  12    0.75    0.45
  -4  -6  12    0.47    0.49
   3   6 -12    0.68    0.43
  -3  -6  12    0.43    0.44
  -3  -6  12    1.19    0.46
  -3  -6  12    0.83    0.50
   2   6 -12   -0.64    0.66
   2   6 -12   -0.35    0.34
  -2  -6  12    0.00    0.41
  -2  -6  12   -0.10    0.36
   1   6 -12    3.84    0.85
   1   6 -12    3.69    0.66
  -1  -6  12    4.75    0.67
  -1  -6  12    3.51    0.77
   0   6 -12    3.62    0.88
   0   6 -12    3.72    0.66
   0  -6  12    4.17    0.62
  -1   6 -12    1.93    0.81
  -1   6 -12    1.76    0.55
   1  -6  12    2.89    0.57
  -2   6 -12   22.94    1.87
  -2   6 -12   25.55    2.14
   2  -6  12   23.06    1.81
   2  -6  12   28.11    1.67
  -3   6 -12    0.38    0.72
  -3   6 -12   -0.08    0.42
  -3   6 -12    0.19    0.64
   3  -6  12   -0.38    0.38
  -4   6 -12    2.01    0.55
  -4   6 -12    1.03    0.73
   4  -6  12    2.08    0.51
  -5   6 -12    0.61    0.71
   5   5 -12    0.23    0.45
  -5  -5  12   -0.23    0.39
   4   5 -12    8.95    1.01
   4   5 -12    9.51    1.07
  -4  -5  12    8.87    0.93
  -4  -5  12    8.06    1.18
   3   5 -12    1.76    0.51
  -3  -5  12    1.62    0.55
   2   5 -12    2.82    0.74
   2   5 -12    4.02    0.65
  -2  -5  12    2.58    0.67
  -2  -5  12    3.38    0.58
   1   5 -12    7.02    0.89
   1   5 -12    8.12    1.03
  -1  -5  12    8.14    0.86
  -1  -5  12    7.03    1.03
   0   5 -12    6.04    0.84
   0   5 -12    5.93    0.99
   0  -5  12    8.32    0.85
  -1   5 -12   21.02    1.77
  -1   5 -12   24.69    2.03
   1  -5  12   25.35    1.76
  -2   5 -12    5.66    1.04
  -2   5 -12    9.45    1.02
   2  -5  12   10.25    0.96
   2  -5  12    8.33    0.88
  -3   5 -12    7.18    1.08
  -3   5 -12    8.94    0.98
   3  -5  12    8.24    0.86
   3  -5  12    7.44    0.86
  -4   5 -12    0.00    0.60
  -4   5 -12    0.48    0.43
  -4   5 -12    0.23    0.68
   4  -5  12    0.12    0.39
   4  -5  12    0.82    0.48
   5  -5  12   11.28    1.17
   5   4 -12    5.50    0.83
   5   4 -12    7.48    0.86
  -5  -4  12    6.80    1.04
   4   4 -12    0.92    0.52
   4   4 -12    0.84    0.43
  -4  -4  12    0.69    0.40
  -4  -4  12    1.13    0.52
   3   4 -12   16.15    1.32
  -3  -4  12   16.13    1.25
  -3  -4  12   14.16    1.59
   2   4 -12    0.09    0.35
   2   4 -12    0.58    0.60
  -2  -4  12    0.38    0.40
  -2  -4  12   -0.06    0.32
   1   4 -12   15.23    1.35
   1   4 -12   17.12    1.52
  -1  -4  12   17.44    1.30
   0   4 -12    9.00    1.02
   0   4 -12   10.29    1.17
   0  -4  12   10.49    0.94
  -1   4 -12   11.67    1.34
  -1   4 -12   11.74    1.14
   1  -4  12   13.52    1.08
  -2   4 -12    1.67    0.50
  -2   4 -12    0.69    0.65
   2  -4  12    0.97    0.49
   2  -4  12    1.71    0.46
  -3   4 -12    1.14    0.48
  -3   4 -12    2.39    0.74
   3  -4  12    2.15    0.49
   3  -4  12    1.54    0.54
  -4   4 -12    1.25    0.61
  -4   4 -12    0.62    0.67
  -4   4 -12    1.51    0.47
   4  -4  12    1.33    0.46
   4  -4  12    1.45    0.54
  -5   4 -12    4.11    0.91
   5  -4  12    4.55    0.80
   5  -4  12    2.66    0.70
   6   3 -12   10.07    1.05
   6   3 -12    9.89    1.06
  -6  -3  12    8.49    1.22
   5   3 -12    2.38    0.52
   5   3 -12    1.72    0.52
   5   3 -12    1.25    0.72
  -5  -3  12    1.52    0.44
  -5  -3  12    1.85    0.58
   4   3 -12    8.85    0.97
   4   3 -12   10.26    0.99
  -4  -3  12    8.71    1.16
  -4  -3  12    8.41    0.87
   3   3 -12   16.49    1.37
  -3  -3  12   18.31    1.74
  -3  -3  12   17.56    1.34
   2   3 -12    6.13    0.75
   2   3 -12    6.91    0.91
  -2  -3  12    6.12    0.70
   1   3 -12    0.79    0.59
   1   3 -12    1.38    0.42
  -1  -3  12    1.06    0.39
   0   3 -12    0.20    0.55
   0   3 -12   -0.17    0.33
   0  -3  12    0.15    0.32
  -1   3 -12    3.09    0.72
   1  -3  12    4.11    0.57
  -2   3 -12    1.83    0.50
  -2   3 -12    0.19    0.60
   2  -3  12    1.28    0.43
  -3   3 -12   24.94    2.00
  -3   3 -12   30.33    2.33
   3  -3  12   31.50    2.01
   3  -3  12   31.39    2.22
  -4   3 -12    2.23    0.51
  -4   3 -12    2.65    0.74
   4  -3  12    2.03    0.49
   4  -3  12    2.01    0.59
  -5   3 -12    7.17    1.05
   5  -3  12    4.92    0.86
   5  -3  12    7.90    1.02
   6   2 -12    2.08    0.52
   6   2 -12    2.28    0.58
  -6  -2  12    2.61    0.64
  -6  -2  12    2.50    0.49
   5   2 -12    3.25    0.85
   5   2 -12    5.40    0.69
   5   2 -12    4.66    0.69
  -5  -2  12    3.99    0.79
  -5  -2  12    5.08    0.62
   4   2 -12    0.97    0.42
   4   2 -12    1.48    0.45
  -4  -2  12    1.44    0.51
  -4  -2  12    1.40    0.38
   3   2 -12   27.84    2.02
  -3  -2  12   30.77    1.98
   2   2 -12   18.74    1.52
  -2  -2  12   22.19    1.50
   1   2 -12    0.67    0.37
   1   2 -12    1.00    0.56
  -1  -2  12    1.38    0.38
   0   2 -12   30.73    2.19
   0   2 -12   32.39    2.39
   0  -2  12   32.44    2.13
  -1   2 -12    0.04    0.34
  -1   2 -12    1.03    0.57
   1  -2  12    0.26    0.33
  -2   2 -12   25.32    2.01
  -2   2 -12   25.72    1.84
   2  -2  12   26.16    1.78
  -3   2 -12    1.95    0.49
  -3   2 -12    1.38    0.66
   3  -2  12    2.71    0.50
   3  -2  12    2.14    0.61
  -4   2 -12    8.25    0.82
   4  -2  12    8.59    1.04
   4  -2  12    6.82    0.95
   4  -2  12    6.28    0.74
  -5   2 -12    0.38    0.54
  -5   2 -12   -0.41    0.64
   5  -2  12   -0.65    0.44
   5  -2  12   -0.08    0.53
   6   1 -12    6.33    0.81
   6   1 -12    6.50    1.09
   6   1 -12    9.32    0.89
  -6  -1  12    9.46    0.86
  -6  -1  12    6.57    0.99
  -6  -1  12    7.16    0.78
   5   1 -12    0.34    0.38
   5   1 -12    0.05    0.55
   5   1 -12    0.93    0.38
  -5  -1  12    0.11    0.33
  -5  -1  12    0.30    0.41
   4   1 -12   24.03    1.60
   4   1 -12   21.58    1.65
  -4  -1  12   21.67    1.58
   3   1 -12    6.11    0.75
  -3  -1  12    6.37    0.68
   2   1 -12    0.19    0.36
  -2  -1  12   -0.04    0.31
   1   1 -12    6.30    0.72
  -1  -1  12    3.82    0.56
   0   1 -12   50.13    3.72
   0   1 -12   53.79    3.42
   0  -1  12   56.84    3.36
  -1   1 -12   23.36    1.80
  -1   1 -12   21.56    1.65
   1  -1  12   23.49    1.61
  -2   1 -12    1.56    0.45
  -2   1 -12    1.68    0.59
   2  -1  12    1.70    0.42
  -3   1 -12   17.67    1.36
  -3   1 -12   15.07    1.53
  -3   1 -12   19.44    1.68
   3  -1  12   17.99    1.61
   3  -1  12   20.53    1.38
   3  -1  12   19.52    1.66
  -4   1 -12    2.72    0.64
  -4   1 -12    1.79    0.44
  -4   1 -12    2.47    0.67
   4  -1  12    1.14    0.56
   4  -1  12    1.23    0.60
   4  -1  12    1.99    0.49
  -5   1 -12    2.63    0.75
   5  -1  12    3.64    0.74
  -7   0  12    1.72    0.48
   6   0 -12    2.93    0.81
   6   0 -12    3.17    0.65
   6   0 -12    2.79    0.58
  -6   0  12    3.53    0.55
  -6   0  12    2.88    0.52
   5   0 -12   14.90    1.65
   5   0 -12   17.17    1.35
  -5   0  12   18.02    1.27
  -5   0  12   16.81    1.27
   4   0 -12    0.46    0.35
  -4   0  12   -0.63    0.27
  -4   0  12    0.58    0.35
   3   0 -12   10.64    0.98
  -3   0  12   10.17    0.90
   2   0 -12   12.60    1.14
  -2   0  12   14.62    1.09
   1   0 -12    8.61    0.93
  -1   0  12   10.16    0.86
   0   0 -12    7.81    0.88
   0   0  12    9.13    0.83
  -1   0 -12   10.09    1.10
  -1   0 -12    9.83    0.94
  -1   0 -12    9.06    0.99
   1   0  12   11.23    0.93
   1   0  12   10.36    1.08
  -2   0 -12    3.09    0.56
  -2   0 -12    4.35    0.72
  -2   0 -12    4.23    0.71
   2   0  12    4.64    0.60
   2   0  12    3.77    0.71
  -3   0 -12    1.07    0.54
  -3   0 -12    0.69    0.55
  -3   0 -12    0.79    0.38
   3   0  12    0.47    0.58
   3   0  12   -0.05    0.44
   3   0  12    0.48    0.40
  -4   0 -12   11.43    1.18
  -4   0 -12   12.70    1.35
   4   0  12   11.71    1.33
   4   0  12   12.12    1.29
   4   0  12   11.88    1.00
  -5   0 -12    1.97    0.61
   5   0  12    2.11    0.67
   7  -1 -12   -0.86    0.58
  -7   1  12    0.15    0.35
   6  -1 -12    8.88    0.99
   6  -1 -12   10.11    0.97
   6  -1 -12    7.54    1.11
  -6   1  12    6.82    0.80
  -6   1  12    9.56    0.85
   5  -1 -12    3.80    0.63
   5  -1 -12    4.60    0.81
  -5   1  12    3.32    0.50
  -5   1  12    3.49    0.57
   4  -1 -12    0.26    0.37
  -4   1  12    0.85    0.39
   3  -1 -12    0.19    0.34
  -3   1  12   -0.37    0.31
   2  -1 -12   28.82    2.10
  -2   1  12   32.23    2.05
   1  -1 -12   -0.08    0.33
  -1   1  12    0.14    0.32
   0  -1 -12   11.36    1.08
   0  -1 -12    8.03    0.95
   0   1  12   11.00    0.93
   0   1  12   10.73    1.09
  -1  -1 -12   18.63    1.57
  -1  -1 -12   15.44    1.37
   1   1  12   19.72    1.36
   1   1  12   17.90    1.60
  -2  -1 -12   -0.18    0.41
  -2  -1 -12   -0.26    0.33
  -2  -1 -12    0.09    0.49
   2   1  12   -0.42    0.39
   2   1  12   -0.36    0.29
  -3  -1 -12   10.20    1.06
  -3  -1 -12   10.17    0.98
  -3  -1 -12   11.60    1.19
   3   1  12   11.18    1.18
   3   1  12   10.88    0.94
  -4  -1 -12    1.13    0.61
  -4  -1 -12    1.08    0.41
  -4  -1 -12    1.62    0.59
   4   1  12    0.56    0.63
   4   1  12    0.88    0.55
   5   1  12    4.72    0.88
   7  -2 -12    6.21    0.87
  -7   2  12    6.24    0.74
   6  -2 -12    0.27    0.39
   6  -2 -12   -0.13    0.43
  -6   2  12   -0.33    0.32
  -6   2  12    0.49    0.35
   5  -2 -12   11.98    1.14
   5  -2 -12   10.14    1.18
  -5   2  12   10.53    1.08
   4  -2 -12    2.07    0.53
  -4   2  12    2.11    0.52
  -4   2  12    0.81    0.36
   3  -2 -12    9.66    1.01
  -3   2  12    9.30    1.00
  -3   2  12    9.52    0.86
   2  -2 -12    2.05    0.50
  -2   2  12    2.40    0.55
  -2   2  12    2.82    0.47
   1  -2 -12   -0.10    0.37
  -1   2  12    0.54    0.32
  -1   2  12    0.70    0.44
   0  -2 -12   10.01    1.08
   0  -2 -12   11.17    1.03
   0   2  12   10.93    1.09
   0   2  12   10.03    0.90
  -1  -2 -12    6.07    0.83
  -1  -2 -12    6.70    0.79
   1   2  12    5.18    0.65
   1   2  12    6.61    0.87
  -2  -2 -12   10.68    1.04
  -2  -2 -12   11.39    1.19
   2   2  12   12.92    1.24
   2   2  12   10.87    0.96
  -3  -2 -12    1.10    0.42
  -3  -2 -12    0.35    0.52
   3   2  12    0.60    0.52
   3   2  12    0.08    0.34
   4   2  12    8.87    1.17
   6  -3 -12    1.87    0.61
   6  -3 -12    3.43    0.62
  -6   3  12    2.23    0.49
   5  -3 -12    1.67    0.51
  -5   3  12    0.77    0.44
  -5   3  12    1.16    0.39
   4  -3 -12   10.89    1.14
  -4   3  12   12.07    1.18
  -4   3  12   12.60    1.04
   3  -3 -12    0.69    0.44
  -3   3  12    0.61    0.33
  -3   3  12    0.86    0.44
   2  -3 -12    9.82    1.00
  -2   3  12    8.92    0.84
  -2   3  12    8.68    1.00
   1  -3 -12   15.65    1.29
  -1   3  12   15.70    1.38
  -1   3  12   13.99    1.17
   0  -3 -12    6.98    0.84
   0   3  12    6.50    0.87
  -1  -3 -12   11.16    1.03
  -1  -3 -12    9.73    1.10
   1   3  12   10.45    1.13
   1   3  12   10.70    0.95
  -2  -3 -12   -0.06    0.38
  -2  -3 -12   -0.10    0.45
   2   3  12    0.02    0.47
   2   3  12   -0.10    0.34
  -3  -3 -12    3.82    0.63
  -3  -3 -12    3.05    0.68
  -3  -3 -12    4.06    0.80
   3   3  12    6.54    0.92
   3   3  12    3.52    0.60
   6  -4 -12   -0.28    0.42
   5  -4 -12   18.41    1.55
   4  -4 -12    0.13    0.43
  -4   4  12   -0.03    0.40
  -4   4  12   -0.07    0.35
   3  -4 -12    7.28    0.88
  -3   4  12    5.05    0.68
  -3   4  12    5.06    0.77
   2  -4 -12    5.08    0.76
  -2   4  12    4.78    0.74
   1  -4 -12    7.01    0.87
  -1   4  12    4.91    0.67
  -1   4  12    7.33    0.90
   0  -4 -12   10.26    1.09
   0   4  12   10.18    1.08
   0   4  12    7.85    0.90
  -1  -4 -12    0.12    0.42
  -1  -4 -12    0.24    0.49
  -1  -4 -12    0.00    0.43
   1   4  12   -0.24    0.43
   1   4  12   -0.06    0.35
  -2  -4 -12    8.47    1.11
  -2  -4 -12    8.62    0.95
  -2  -4 -12    5.61    0.90
   2   4  12    8.27    0.89
  -3  -4 -12    0.68    0.49
   3   4  12    0.81    0.48
  -4   5  12    4.88    0.73
   3  -5 -12    0.30    0.47
  -3   5  12   -0.27    0.40
  -3   5  12   -0.25    0.39
   2  -5 -12   12.78    1.31
  -2   5  12   14.11    1.35
   1  -5 -12   12.76    1.26
  -1   5  12   11.31    1.22
   0  -5 -12    5.07    0.81
   0   5  12    3.56    0.64
   0   5  12    5.00    0.80
  -1  -5 -12    5.95    0.88
   1   5  12    6.12    0.80
  -2  -5 -12    0.75    0.58
  -2  -5 -12    0.70    0.57
  -4   6  12    1.02    0.49
  -3   6  12   12.12    1.29
   2   7 -13    0.52    0.75
   1   7 -13    2.26    0.85
   0   7 -13    0.43    0.80
   2   6 -13    6.76    1.03
   1   6 -13    2.73    0.62
   1   6 -13    2.76    0.83
  -1  -6  13    1.20    0.51
   0   6 -13    1.91    0.85
   0   6 -13    2.36    0.60
   0  -6  13    2.68    0.57
  -1   6 -13    8.20    1.00
  -1   6 -13    7.71    1.19
   1  -6  13    6.35    0.85
  -2   6 -13    4.15    0.76
  -2   6 -13    3.45    0.93
   2  -6  13    4.27    0.70
  -3   6 -13    2.61    0.77
  -3   6 -13    4.01    0.75
   3  -6  13    2.98    0.63
  -4   6 -13    9.62    1.17
  -4   6 -13    6.71    0.94
   4  -6  13    7.18    0.90
   3   5 -13    2.03    0.55
  -3  -5  13    2.97    0.74
  -3  -5  13    2.79    0.55
   2   5 -13   -0.13    0.65
   2   5 -13    1.58    0.51
  -2  -5  13    0.94    0.44
  -2  -5  13    0.94    0.51
   1   5 -13    2.82    0.85
   1   5 -13    3.09    0.64
  -1  -5  13    3.22    0.59
   0   5 -13    5.07    0.80
   0   5 -13    4.13    0.91
   0  -5  13    5.12    0.70
  -1   5 -13   11.62    1.21
  -1   5 -13   11.74    1.40
   1  -5  13   12.14    1.09
  -2   5 -13    5.26    0.80
  -2   5 -13    3.08    0.88
   2  -5  13    3.76    0.66
  -3   5 -13   -0.02    0.43
  -3   5 -13    0.46    0.75
   3  -5  13    0.01    0.41
  -4   5 -13    0.46    0.46
   4  -5  13    0.09    0.44
   4   4 -13   18.84    1.50
   4   4 -13   15.35    1.46
  -4  -4  13   19.37    1.88
   3   4 -13    0.83    0.44
  -3  -4  13    0.69    0.41
  -3  -4  13    0.65    0.49
   2   4 -13    3.34    0.64
   2   4 -13    2.98    0.78
  -2  -4  13    2.44    0.54
   1   4 -13    4.26    0.73
   1   4 -13    4.44    0.89
  -1  -4  13    5.76    0.71
   0   4 -13    5.12    0.91
   0   4 -13    3.69    0.70
   0  -4  13    5.07    0.67
  -1   4 -13   -0.55    0.62
  -1   4 -13    1.03    0.47
   1  -4  13    0.48    0.38
  -2   4 -13    0.83    0.48
  -2   4 -13    0.57    0.69
   2  -4  13    0.16    0.42
   2  -4  13    0.20    0.47
  -3   4 -13    4.61    0.91
  -3   4 -13    5.48    0.77
   3  -4  13    5.00    0.69
   3  -4  13    4.06    0.71
  -4   4 -13   -0.51    0.34
   4  -4  13   -0.26    0.41
   4  -4  13    0.52    0.53
   5   3 -13    7.67    0.91
   5   3 -13    6.28    0.88
  -5  -3  13    6.98    1.06
   4   3 -13    2.43    0.53
   4   3 -13    1.15    0.51
  -4  -3  13    1.48    0.44
  -4  -3  13    1.36    0.57
   3   3 -13    1.40    0.47
  -3  -3  13    1.39    0.43
   2   3 -13    1.11    0.46
  -2  -3  13    0.38    0.37
   1   3 -13   29.82    2.11
   1   3 -13   28.06    2.27
  -1  -3  13   29.62    2.02
   0   3 -13    7.71    1.01
   0   3 -13   11.79    1.25
   0  -3  13   12.14    0.99
  -1   3 -13    4.16    0.79
  -1   3 -13    2.88    0.61
   1  -3  13    2.75    0.55
  -2   3 -13   23.77    1.93
  -2   3 -13   21.25    1.72
   2  -3  13   24.32    1.68
  -3   3 -13   -0.19    0.64
  -3   3 -13    0.00    0.41
   3  -3  13   -0.49    0.37
   3  -3  13    0.25    0.49
  -4   3 -13    7.19    1.12
  -4   3 -13    7.19    0.86
   4  -3  13    9.08    0.90
   4  -3  13    7.03    0.99
   4  -3  13   10.29    1.16
   5  -3  13   -0.35    0.60
   6   2 -13    2.94    0.59
  -6  -2  13    2.37    0.51
  -6  -2  13    1.86    0.64
   5   2 -13   -0.28    0.38
   5   2 -13   -0.07    0.37
  -5  -2  13    0.30    0.46
  -5  -2  13    0.60    0.40
   4   2 -13    8.83    0.86
   4   2 -13    7.68    0.90
  -4  -2  13    6.06    0.75
   3   2 -13    2.24    0.56
  -3  -2  13    3.26    0.52
   2   2 -13    8.82    0.96
  -2  -2  13    9.05    0.86
   1   2 -13    5.28    0.84
   1   2 -13    5.00    0.72
  -1  -2  13    4.50    0.61
   0   2 -13    2.72    0.72
   0   2 -13    2.10    0.54
   0  -2  13    2.22    0.46
  -1   2 -13   11.99    1.18
  -1   2 -13   12.09    1.22
   1  -2  13   12.29    1.05
  -2   2 -13   16.45    1.45
  -2   2 -13   19.05    1.63
   2  -2  13   19.81    1.42
  -3   2 -13   14.83    1.48
  -3   2 -13   15.89    1.32
   3  -2  13   17.12    1.48
   3  -2  13   16.24    1.54
   3  -2  13   15.93    1.27
  -4   2 -13   -0.11    0.64
  -4   2 -13    0.16    0.36
   4  -2  13   -0.63    0.54
   4  -2  13   -0.16    0.38
   4  -2  13   -0.54    0.50
   5  -2  13   10.41    1.26
   6   1 -13   -0.40    0.35
  -6  -1  13   -0.39    0.33
   5   1 -13    1.25    0.47
  -5  -1  13    1.82    0.44
   4   1 -13    2.02    0.52
  -4  -1  13    2.83    0.49
   3   1 -13   17.62    1.40
  -3  -1  13   16.65    1.30
   2   1 -13    2.21    0.52
  -2  -1  13    2.06    0.46
   1   1 -13    6.19    0.80
  -1  -1  13    5.94    0.69
   0   1 -13    7.79    0.92
   0   1 -13    8.24    0.98
  -1   1 -13   15.20    1.40
  -1   1 -13   13.73    1.28
   1  -1  13   16.64    1.23
  -2   1 -13    4.34    0.83
  -2   1 -13    4.54    0.68
   2  -1  13    4.68    0.65
   2  -1  13    5.06    0.83
  -3   1 -13   -0.41    0.52
  -3   1 -13   -0.02    0.37
  -3   1 -13    0.16    0.57
   3  -1  13   -0.16    0.51
   3  -1  13    0.31    0.56
   3  -1  13   -0.05    0.39
  -4   1 -13    7.02    1.01
  -4   1 -13    5.23    0.92
  -4   1 -13    6.60    0.76
   4  -1  13    6.03    0.95
   4  -1  13    5.26    0.92
  -5   1 -13   -0.52    0.67
   5  -1  13   -0.41    0.54
   6   0 -13    1.57    0.52
   6   0 -13    1.08    0.70
  -6   0  13    1.56    0.48
   5   0 -13   -0.03    0.61
   5   0 -13   -0.12    0.36
  -5   0  13   -0.13    0.34
   4   0 -13    4.42    0.67
  -4   0  13    4.95    0.63
   3   0 -13    2.80    0.57
  -3   0  13    2.68    0.49
   2   0 -13    1.56    0.47
  -2   0  13    1.27    0.40
   1   0 -13    2.18    0.51
   0   0 -13   22.65    1.71
   0   0  13   23.68    1.65
  -1   0 -13    1.29    0.59
  -1   0 -13    1.61    0.47
   1   0  13    1.16    0.43
   1   0  13    0.78    0.51
  -2   0 -13    0.56    0.54
  -2   0 -13    0.59    0.42
  -2   0 -13    0.15    0.56
   2   0  13    0.31    0.52
   2   0  13    1.12    0.45
  -3   0 -13   14.72    1.19
  -3   0 -13   16.72    1.48
  -3   0 -13   11.70    1.26
   3   0  13   11.44    1.05
   3   0  13   12.74    1.43
   3   0  13   13.51    1.34
  -4   0 -13   -0.64    0.61
   4   0  13   -0.04    0.55
   6  -1 -13    0.06    0.44
   6  -1 -13    0.04    0.51
   6  -1 -13   -0.95    0.56
  -6   1  13   -0.02    0.37
   5  -1 -13    8.81    0.97
   5  -1 -13    8.56    1.15
   4  -1 -13   -0.12    0.36
  -4   1  13   -0.29    0.37
   3  -1 -13    7.95    0.92
  -3   1  13    7.73    0.82
   2  -1 -13    0.91    0.44
  -2   1  13    0.42    0.39
   1  -1 -13    8.13    0.91
  -1   1  13    8.21    0.96
  -1   1  13    6.60    0.78
   0  -1 -13    5.43    0.75
   0   1  13    5.61    0.71
   0   1  13    4.47    0.76
  -1  -1 -13    0.10    0.48
  -1  -1 -13   -0.18    0.38
   1   1  13    0.74    0.35
   1   1  13   -0.05    0.48
  -2  -1 -13   15.49    1.32
  -2  -1 -13   17.30    1.54
   2   1  13   15.44    1.23
   2   1  13   14.47    1.46
  -3  -1 -13    0.23    0.40
  -3  -1 -13   -0.14    0.53
  -3  -1 -13   -0.36    0.54
   3   1  13    0.22    0.51
   3   1  13    0.65    0.37
   5  -2 -13    0.17    0.42
  -5   2  13    0.47    0.44
  -5   2  13    0.16    0.35
   4  -2 -13    6.58    0.88
  -4   2  13    7.01    0.87
   3  -2 -13    2.67    0.60
  -3   2  13    1.97    0.56
  -3   2  13    2.32    0.48
   2  -2 -13   12.40    1.22
  -2   2  13   14.74    1.36
   1  -2 -13   10.43    1.11
  -1   2  13   11.11    1.18
   0  -2 -13    1.46    0.52
   0   2  13    1.62    0.45
   0   2  13    1.29    0.51
  -1  -2 -13   16.58    1.53
  -1  -2 -13   16.08    1.36
   1   2  13   15.40    1.27
   1   2  13   17.54    1.56
  -2  -2 -13    4.55    0.80
  -2  -2 -13    4.00    0.69
   2   2  13    5.04    0.85
   2   2  13    4.77    0.64
  -3  -2 -13    7.91    1.09
  -3  -2 -13    8.74    0.96
   3   2  13   10.01    0.91
  -5   3  13    7.97    0.94
   4  -3 -13    2.20    0.58
  -4   3  13    2.03    0.50
  -4   3  13    2.40    0.58
   3  -3 -13   22.12    1.75
  -3   3  13   22.80    1.88
   2  -3 -13    0.46    0.43
  -2   3  13    1.24    0.51
  -2   3  13    0.49    0.37
   1  -3 -13   12.48    1.17
  -1   3  13   11.01    1.20
   0  -3 -13   12.58    1.20
   0   3  13   10.58    1.19
  -1  -3 -13    1.65    0.52
   1   3  13    0.36    0.50
   1   3  13    0.99    0.42
  -2  -3 -13    9.16    1.05
  -2  -3 -13    9.62    1.13
   2   3  13    9.24    0.96
  -3  -3 -13    0.04    0.42
   3   3  13   -0.08    0.41
  -4   4  13    4.23    0.71
  -3   4  13    0.80    0.50
  -2   4  13    4.38    0.76
   1  -4 -13    7.07    0.94
  -1   4  13    6.39    0.89
  -1   4  13    5.52    0.74
  -2  -4 -13    1.16    0.64
  -4   5  13   -0.16    0.43
   2   5 -14   14.13    1.49
   1   5 -14    0.80    0.76
   0   5 -14    0.26    0.72
  -1   5 -14    4.67    0.82
   1  -5  14    4.26    0.71
  -2   5 -14    1.93    0.60
   2  -5  14    1.60    0.54
   4   4 -14   -0.16    0.53
   2   4 -14   -0.35    0.39
  -2  -4  14    0.04    0.40
   1   4 -14    3.46    0.63
   1   4 -14    1.74    0.81
  -1  -4  14    2.49    0.53
   0   4 -14    2.72    0.84
   0   4 -14    2.32    0.61
   0  -4  14    2.97    0.58
  -1   4 -14    6.33    1.06
  -1   4 -14    4.97    0.85
   1  -4  14    7.49    0.86
  -2   4 -14   11.16    1.20
   2  -4  14   10.71    1.14
   2  -4  14   10.00    1.07
  -3   4 -14    1.21    0.52
   3  -4  14    2.82    0.60
   3  -4  14    1.10    0.59
  -4   4 -14   14.38    1.32
   4  -4  14   12.75    1.36
   4  -4  14   16.22    1.27
   5   3 -14    3.60    0.67
   4   3 -14    1.54    0.57
   3   3 -14    0.59    0.42
  -3  -3  14    0.35    0.39
   2   3 -14    7.84    0.99
  -2  -3  14   10.34    0.95
   1   3 -14    1.01    0.71
   1   3 -14    0.61    0.46
  -1  -3  14    1.62    0.47
   0   3 -14    7.72    0.95
   0   3 -14    8.80    1.18
   0  -3  14    7.55    0.84
  -1   3 -14   12.72    1.26
  -1   3 -14   14.13    1.50
   1  -3  14   14.95    1.21
  -2   3 -14    0.39    0.48
  -2   3 -14    0.08    0.69
   2  -3  14    0.16    0.42
  -3   3 -14   11.65    1.23
   3  -3  14   13.43    1.30
   3  -3  14   13.31    1.16
  -4   3 -14    1.99    0.56
   4   2 -14   -0.40    0.38
  -4  -2  14    0.24    0.38
   3   2 -14    7.39    0.89
  -3  -2  14    5.64    0.72
   2   2 -14   -0.15    0.40
  -2  -2  14    0.01    0.35
   1   2 -14   11.82    1.19
  -1  -2  14   11.18    1.03
   0   2 -14    3.81    0.84
   0   2 -14    4.26    0.73
   0  -2  14    3.65    0.60
  -1   2 -14    6.18    0.85
  -1   2 -14    6.16    1.01
   1  -2  14    6.43    0.78
  -2   2 -14   10.95    1.28
  -2   2 -14   11.62    1.17
   2  -2  14   11.29    1.06
  -3   2 -14    2.27    0.80
  -3   2 -14    2.24    0.57
   3  -2  14    2.86    0.59
   3  -2  14    2.11    0.68
   3  -2  14    2.19    0.69
   4   1 -14    3.26    0.64
  -4  -1  14    2.93    0.56
   3   1 -14   -0.03    0.39
  -3  -1  14    0.14    0.36
   2   1 -14    4.82    0.76
  -2  -1  14    6.21    0.72
   1   1 -14    5.12    0.81
  -1  -1  14    7.74    0.79
   0   1 -14    6.91    0.88
   0  -1  14    5.55    0.71
  -1   1 -14    2.62    0.61
  -1   1 -14    2.99    0.77
   1  -1  14    2.81    0.56
  -2   1 -14   -0.20    0.40
  -2   1 -14    1.77    0.68
   2  -1  14    0.73    0.57
   2  -1  14    0.80    0.46
  -3   1 -14    1.07    0.48
  -3   1 -14    1.29    0.69
   3  -1  14    0.98    0.50
   5   0 -14    2.35    0.81
   4   0 -14    2.69    0.62
  -4   0  14    2.70    0.54
   3   0 -14   10.79    1.09
  -3   0  14    9.10    0.94
   2   0 -14    5.20    0.77
  -2   0  14    4.56    0.65
   1   0 -14    1.76    0.54
  -1   0  14    1.25    0.45
   0   0 -14    4.31    0.73
   0   0  14    4.12    0.79
   0   0  14    4.89    0.67
  -1   0 -14    3.67    0.68
   1   0  14    2.91    0.60
   1   0  14    4.80    0.80
  -2   0 -14    9.88    1.17
  -2   0 -14    8.36    1.04
   2   0  14   12.01    1.26
   2   0  14   10.47    1.05
  -3   0 -14    3.18    0.64
  -3   0 -14    3.10    0.78
  -3   0 -14    3.85    0.85
   3   0  14    3.09    0.57
   3  -1 -14    0.82    0.49
  -3   1  14    1.37    0.47
   2  -1 -14   15.51    1.34
  -2   1  14   14.77    1.24
  -2   1  14   14.13    1.42
   1  -1 -14    8.26    1.02
  -1   1  14    9.39    1.10
  -1   1  14   10.26    0.99
   0  -1 -14    2.59    0.60
   0   1  14    1.15    0.57
   0   1  14    1.02    0.41
  -1  -1 -14   13.39    1.27
   1   1  14   14.19    1.40
  -2  -1 -14    1.07    0.51
  -2  -1 -14    0.85    0.64
   2   1  14    0.66    0.42
  -3  -1 -14    6.48    0.83
   3   1  14    5.74    0.73
  -4   2  14    0.16    0.47
  -3   2  14    9.32    1.11
   2  -2 -14    1.02    0.52
  -2   2  14    0.77    0.53
  -2   2  14    0.58    0.38
   1  -2 -14    4.66    0.80
  -1   2  14    4.76    0.78
  -1   2  14    4.31    0.63
   0  -2 -14    2.70    0.62
   0   2  14    1.62    0.47
  -1  -2 -14    3.99    0.70
   1   2  14    2.86    0.55
  -2  -2 -14   10.82    1.26
  -3   3  14    1.97    0.57
   2  -3  15    3.82    0.82
   0   0   0    0.00    0.00
;
_shelx_hkl_checksum              59312
loop_
_space_group_symop_operation_xyz
'x, y, z'
'-x, -y, -z'
loop_
_atom_site_label
_atom_site_type_symbol
_atom_site_fract_x
_atom_site_fract_y
_atom_site_fract_z
_atom_site_U_iso_or_equiv
_atom_site_adp_type
_atom_site_occupancy
_atom_site_site_symmetry_order
_atom_site_calc_flag
_atom_site_refinement_flags_posn
_atom_site_refinement_flags_adp
Co1 Co 0.27997(4) 0.25346(3) 0.24176(2) 0.03438(12) Uani 1 1 d . .
N3 N 0.1688(2) 0.03368(19) 0.14731(14) 0.0310(3) Uani 1 1 d . .
N31 N 0.4633(2) 0.2195(2) 0.37088(15) 0.0329(3) Uani 1 1 d . .
N1C N 0.1054(3) 0.3671(3) 0.3148(2) 0.0547(5) Uani 1 1 d . .
N2C N 0.4001(4) 0.4023(3) 0.1371(2) 0.0560(5) Uani 1 1 d . .
C1 C 0.0011(3) 0.4488(3) 0.3212(2) 0.0448(5) Uani 1 1 d . .
C1C C 0.4903(4) 0.5336(3) 0.1573(2) 0.0489(5) Uani 1 1 d . .
O1C O -0.1061(3) 0.5329(3) 0.3292(2) 0.0788(7) Uani 1 1 d . .
O2C O 0.5818(4) 0.6691(3) 0.1787(2) 0.0801(7) Uani 1 1 d . .
O21 O 0.5880(2) 0.1207(2) 0.21382(14) 0.0476(4) Uani 1 1 d . .
O2 O 0.0239(2) -0.0096(2) 0.30958(14) 0.0420(4) Uani 1 1 d . .
N4 N 0.3086(3) 0.0717(2) -0.02111(17) 0.0440(4) Uani 1 1 d . .
H4A H 0.3417 0.1752 0.0039 0.053 Uiso 1 1 calc R U
H4B H 0.3388 0.0337 -0.0891 0.053 Uiso 1 1 calc R U
N41 N 0.3368(3) 0.3110(3) 0.53313(19) 0.0573(6) Uani 1 1 d . .
H41A H 0.2478 0.3303 0.4869 0.069 Uiso 1 1 calc R U
H41B H 0.3376 0.3322 0.6093 0.069 Uiso 1 1 calc R U
N11 N 0.7341(2) 0.1226(2) 0.39274(16) 0.0394(4) Uani 1 1 d . .
H11A H 0.8201 0.0806 0.3614 0.047 Uiso 1 1 calc R U
N1 N 0.0099(4) -0.2223(2) 0.1738(2) 0.0658(7) Uani 1 1 d . .
H1A H -0.0571 -0.2865 0.2161 0.079 Uiso 1 1 calc R U
C21 C 0.5956(3) 0.1524(2) 0.32086(18) 0.0338(4) Uani 1 1 d . .
C4 C 0.2142(3) -0.0263(2) 0.04307(18) 0.0358(4) Uani 1 1 d . .
C2 C 0.0649(3) -0.0635(2) 0.21401(18) 0.0350(4) Uani 1 1 d . .
C51 C 0.6145(4) 0.2170(3) 0.5618(2) 0.0466(5) Uani 1 1 d . .
H51A H 0.6191 0.2381 0.6443 0.056 Uiso 1 1 calc R U
C41 C 0.4696(3) 0.2502(3) 0.48812(18) 0.0378(4) Uani 1 1 d . .
C61 C 0.7436(3) 0.1552(3) 0.5104(2) 0.0450(5) Uani 1 1 d . .
H61A H 0.8432 0.1339 0.5570 0.054 Uiso 1 1 calc R U
C6 C 0.0558(7) -0.2850(4) 0.0695(4) 0.1019(17) Uani 1 1 d . .
H6A H 0.0155 -0.3971 0.0445 0.122 Uiso 1 1 calc R U
C5 C 0.1557(5) -0.1933(3) 0.0016(3) 0.0694(9) Uani 1 1 d . .
H5A H 0.1865 -0.2374 -0.0713 0.083 Uiso 1 1 calc R U
loop_
_atom_site_aniso_label
_atom_site_aniso_U_11
_atom_site_aniso_U_22
_atom_site_aniso_U_33
_atom_site_aniso_U_23
_atom_site_aniso_U_13
_atom_site_aniso_U_12
Co1 0.03768(19) 0.03044(17) 0.03637(18) 0.00154(11) 0.00221(11) 0.01313(12)
N3 0.0323(8) 0.0302(7) 0.0320(8) 0.0029(6) 0.0036(6) 0.0114(6)
N31 0.0326(8) 0.0350(8) 0.0324(8) 0.0012(6) 0.0043(6) 0.0126(6)
N1C 0.0544(12) 0.0462(11) 0.0701(14) 0.0034(10) 0.0111(10) 0.0269(10)
N2C 0.0681(14) 0.0426(11) 0.0551(13) 0.0123(9) 0.0080(11) 0.0055(10)
C1 0.0463(12) 0.0361(10) 0.0581(14) 0.0109(9) 0.0166(10) 0.0166(9)
C1C 0.0561(14) 0.0476(13) 0.0438(12) 0.0135(10) 0.0106(10) 0.0090(11)
O1C 0.0771(14) 0.0672(13) 0.118(2) 0.0349(13) 0.0425(14) 0.0499(12)
O2C 0.0884(17) 0.0525(12) 0.0871(17) 0.0108(11) 0.0099(13) -0.0095(11)
O21 0.0476(9) 0.0672(11) 0.0324(8) -0.0004(7) 0.0060(6) 0.0263(8)
O2 0.0470(9) 0.0499(9) 0.0369(8) 0.0095(6) 0.0120(6) 0.0238(7)
N4 0.0509(11) 0.0474(10) 0.0348(9) 0.0039(8) 0.0115(8) 0.0128(8)
N41 0.0578(13) 0.0794(15) 0.0393(11) -0.0075(10) 0.0122(9) 0.0320(12)
N11 0.0343(9) 0.0489(10) 0.0400(9) 0.0067(8) 0.0057(7) 0.0192(8)
N1 0.0931(19) 0.0338(10) 0.0662(15) 0.0043(9) 0.0362(14) -0.0008(11)
C21 0.0317(9) 0.0360(9) 0.0349(10) 0.0033(7) 0.0055(7) 0.0109(7)
C4 0.0373(10) 0.0366(10) 0.0344(10) 0.0015(8) 0.0031(7) 0.0128(8)
C2 0.0334(9) 0.0345(9) 0.0394(10) 0.0061(8) 0.0036(8) 0.0127(7)
C51 0.0524(13) 0.0581(14) 0.0294(10) 0.0034(9) 0.0008(9) 0.0157(11)
C41 0.0394(11) 0.0392(10) 0.0346(10) 0.0001(8) 0.0059(8) 0.0111(8)
C61 0.0426(12) 0.0540(13) 0.0407(11) 0.0111(10) -0.0024(9) 0.0159(10)
C6 0.169(4) 0.0316(13) 0.090(3) -0.0162(14) 0.067(3) -0.0089(18)
C5 0.104(2) 0.0411(13) 0.0562(16) -0.0125(11) 0.0334(16) 0.0071(14)
loop_
_atom_type_symbol
_atom_type_description
_atom_type_scat_dispersion_real
_atom_type_scat_dispersion_imag
_atom_type_scat_source
C C 0.0033 0.0016 'International Tables Vol C Tables 4.2.6.8 and 6.1.1.4'
H H 0.0000 0.0000 'International Tables Vol C Tables 4.2.6.8 and 6.1.1.4'
N N 0.0061 0.0033 'International Tables Vol C Tables 4.2.6.8 and 6.1.1.4'
O O 0.0106 0.0060 'International Tables Vol C Tables 4.2.6.8 and 6.1.1.4'
Co Co 0.3494 0.9721 'International Tables Vol C Tables 4.2.6.8 and 6.1.1.4'
loop_
_geom_angle_atom_site_label_1
_geom_angle_atom_site_label_2
_geom_angle_atom_site_label_3
_geom_angle
N1C Co1 N2C 103.01(10)
N1C Co1 N3 117.08(8)
N2C Co1 N3 109.36(8)
N1C Co1 N31 108.22(9)
N2C Co1 N31 113.09(9)
N3 Co1 N31 106.28(6)
C4 N3 C2 120.94(17)
C4 N3 Co1 127.73(14)
C2 N3 Co1 110.08(13)
C41 N31 C21 119.95(18)
C41 N31 Co1 131.08(14)
C21 N31 Co1 108.96(13)
C1 N1C Co1 157.2(2)
C1C N2C Co1 131.2(2)
N1C C1 O1C 179.2(3)
N2C C1C O2C 179.4(3)
C61 N11 C21 122.37(18)
C2 N1 C6 121.6(2)
O21 C21 N11 121.59(18)
O21 C21 N31 120.19(19)
N11 C21 N31 118.22(18)
N4 C4 N3 119.39(19)
N4 C4 C5 120.2(2)
N3 C4 C5 120.3(2)
O2 C2 N1 120.5(2)
O2 C2 N3 121.23(19)
N1 C2 N3 118.25(19)
C61 C51 C41 117.6(2)
N41 C41 N31 118.2(2)
N41 C41 C51 120.8(2)
N31 C41 C51 121.00(19)
C51 C61 N11 120.8(2)
C5 C6 N1 121.7(3)
C6 C5 C4 117.2(2)
loop_
_geom_bond_atom_site_label_1
_geom_bond_atom_site_label_2
_geom_bond_distance
Co1 N1C 1.970(2)
Co1 N2C 1.990(2)
Co1 N3 2.0371(16)
Co1 N31 2.0472(17)
N3 C4 1.352(3)
N3 C2 1.362(3)
N31 C41 1.351(3)
N31 C21 1.374(2)
N1C C1 1.160(3)
N2C C1C 1.167(3)
C1 O1C 1.194(3)
C1C O2C 1.201(3)
O21 C21 1.234(3)
O2 C2 1.235(3)
N4 C4 1.315(3)
N41 C41 1.325(3)
N11 C61 1.355(3)
N11 C21 1.369(3)
N1 C2 1.355(3)
N1 C6 1.362(4)
C4 C5 1.423(3)
C51 C61 1.337(3)
C51 C41 1.430(3)
C6 C5 1.332(4)
