#------------------------------------------------------------------------------
#$Date: 2017-07-25 02:23:53 +0300 (Tue, 25 Jul 2017) $
#$Revision: 198946 $
#$URL: file:///home/coder/svn-repositories/cod/cif/4/34/59/4345921.cif $
#------------------------------------------------------------------------------
#
# This file is available in the Crystallography Open Database (COD),
# http://www.crystallography.net/
#
# All data on this site have been placed in the public domain by the
# contributors.
#
data_4345921
loop_
_publ_author_name
'Que, Chen-Jie'
'Mo, Chong-Jiao'
'Li, Zhao-Qi'
'Zhang, Guang-Lin'
'Zhu, Qin-Yu'
'Dai, Jie'
_publ_section_title
;
 Perovskite-Like Organic-Inorganic Hybrid Lead Iodide with a Large Organic
 Cation Incorporated within the Layers.
;
_journal_name_full               'Inorganic chemistry'
_journal_paper_doi               10.1021/acs.inorgchem.6b02550
_journal_year                    2017
_chemical_formula_sum            'C15 H33 I7 N2 Pb2'
_chemical_formula_weight         1544.11
_chemical_name_systematic
;
 ?
;
_space_group_crystal_system      triclinic
_space_group_IT_number           2
_space_group_name_Hall           '-P 1'
_space_group_name_H-M_alt        'P -1'
_symmetry_space_group_name_Hall  '-P 1'
_symmetry_space_group_name_H-M   'P -1'
_atom_sites_solution_hydrogens   geom
_audit_creation_method           SHELXL-2013
_cell_angle_alpha                79.986(4)
_cell_angle_beta                 85.336(4)
_cell_angle_gamma                64.538(5)
_cell_formula_units_Z            2
_cell_length_a                   9.0711(5)
_cell_length_b                   9.9856(5)
_cell_length_c                   16.0049(8)
_cell_measurement_reflns_used    4264
_cell_measurement_temperature    293(2)
_cell_measurement_theta_max      29.7
_cell_measurement_theta_min      3.0
_cell_volume                     1288.94(13)
_computing_structure_refinement  'SHELXL-2013 (Sheldrick, 2013)'
_diffrn_ambient_temperature      293(2)
_diffrn_measured_fraction_theta_full 0.973
_diffrn_measured_fraction_theta_max 0.998
_diffrn_measurement_device_type  'Xcalibur, Atlas, Gemini'
_diffrn_radiation_type           MoK\a
_diffrn_radiation_wavelength     0.71073
_diffrn_reflns_av_R_equivalents  0.0640
_diffrn_reflns_av_unetI/netI     0.0848
_diffrn_reflns_Laue_measured_fraction_full 0.973
_diffrn_reflns_Laue_measured_fraction_max 0.998
_diffrn_reflns_limit_h_max       10
_diffrn_reflns_limit_h_min       -10
_diffrn_reflns_limit_k_max       11
_diffrn_reflns_limit_k_min       -11
_diffrn_reflns_limit_l_max       19
_diffrn_reflns_limit_l_min       -19
_diffrn_reflns_number            10644
_diffrn_reflns_point_group_measured_fraction_full 0.973
_diffrn_reflns_point_group_measured_fraction_max 0.998
_diffrn_reflns_theta_full        25.242
_diffrn_reflns_theta_max         25.000
_diffrn_reflns_theta_min         2.794
_exptl_absorpt_coefficient_mu    21.435
_exptl_absorpt_correction_T_max  1.00000
_exptl_absorpt_correction_T_min  0.12480
_exptl_absorpt_correction_type   multi-scan
_exptl_absorpt_process_details   'Jacobson, R. (1998) Private communication'
_exptl_crystal_colour            'clear light yellow'
_exptl_crystal_density_diffrn    3.979
_exptl_crystal_description       block
_exptl_crystal_F_000             1344
_exptl_crystal_size_max          0.200
_exptl_crystal_size_mid          0.100
_exptl_crystal_size_min          0.100
_refine_diff_density_max         4.296
_refine_diff_density_min         -3.656
_refine_diff_density_rms         0.586
_refine_ls_extinction_coef       0.0048(3)
_refine_ls_extinction_expression Fc^*^=kFc[1+0.001xFc^2^\l^3^/sin(2\q)]^-1/4^
_refine_ls_extinction_method     SHELXL
_refine_ls_goodness_of_fit_ref   1.048
_refine_ls_hydrogen_treatment    constr
_refine_ls_matrix_type           full
_refine_ls_number_parameters     171
_refine_ls_number_reflns         4531
_refine_ls_number_restraints     18
_refine_ls_restrained_S_all      1.047
_refine_ls_R_factor_all          0.0737
_refine_ls_R_factor_gt           0.0614
_refine_ls_shift/su_max          0.020
_refine_ls_shift/su_mean         0.001
_refine_ls_structure_factor_coef Fsqd
_refine_ls_weighting_details
;
 w=1/[\s^2^(Fo^2^)+(0.0843P)^2^]
 where P=(Fo^2^+2Fc^2^)/3
;
_refine_ls_weighting_scheme      calc
_refine_ls_wR_factor_gt          0.1460
_refine_ls_wR_factor_ref         0.1603
_reflns_Friedel_coverage         0.000
_reflns_number_gt                3655
_reflns_number_total             4531
_reflns_threshold_expression     'I > 2\s(I)'
_cod_data_source_file            ic6b02550_si_002.cif
_cod_data_source_block           l
_cod_database_code               4345921
_shelx_space_group_comment
;
The symmetry employed for this shelxl refinement is uniquely defined
by the following loop, which should always be used as a source of
symmetry information in preference to the above space-group names.
They are only intended as comments.
;
_shelx_estimated_absorpt_t_min   0.099
_shelx_estimated_absorpt_t_max   0.223
_shelxl_version_number           2013-2
_shelx_res_file
;

TITL g151013a in P-1
CELL 0.71073   9.0711   9.9856  16.0049  79.986  85.336  64.538
ZERR   2.00   0.0005   0.0005   0.0008   0.004   0.004   0.005
LATT 1
SFAC C  H  N  I  Pb
UNIT 30 66 4  14  4
L.S. 30
simu 0.02 c1 c2
delu 0.02 c1 c2
simu 0.02 c3 n2
delu 0.02 c3 n2
simu 0.02 c7 n4
delu 0.02 c7 n4
simu 0.02 c6 n4
delu 0.02 c6 n4
simu 0.02 c8 c6
delu 0.02 c8 c6
simu 0.02 c8 n5
delu 0.02 c8 n5
omit -3 50
ACTA
BOND
FMAP 2
PLAN 60
SIZE 0.1000 0.1000 0.2000
CONF
WGHT    0.084300
EXTI    0.004792
FVAR       0.08314
PB1   5   -0.127888   -0.695237    0.289218    11.00000    0.03593    0.03228 =
         0.02477   -0.00369    0.00020   -0.01433
PB2   5    0.128738   -1.188988    0.298548    11.00000    0.03565    0.03246 =
         0.02550   -0.00322   -0.00061   -0.01449
I1    4   -0.501361   -0.454201    0.305832    11.00000    0.03993    0.05862 =
         0.07125    0.00099    0.00616    0.00628
I2    4   -0.002014   -0.444120    0.314641    11.00000    0.07643    0.04684 =
         0.05510   -0.01258    0.00574   -0.04210
I3    4    0.254328   -0.927186    0.275237    11.00000    0.03595    0.03609 =
         0.04497   -0.00030   -0.00049   -0.01713
I4    4   -0.241688   -0.950479    0.275949    11.00000    0.03479    0.03503 =
         0.04889   -0.00559   -0.00609   -0.01509
I5    4   -0.127053   -0.759998    0.498488    11.00000    0.11340    0.11535 =
         0.02061   -0.00068   -0.00213   -0.05745
I6    4   -0.131087   -0.602563    0.096682    11.00000    0.04868    0.04978 =
         0.02181   -0.00069   -0.00155   -0.00912
I7    4    0.153295   -1.184303    0.100596    11.00000    0.04105    0.05744 =
         0.02490   -0.00626    0.00269   -0.02906
N1    3    0.270192   -0.837689   -0.003586    11.00000    0.05550    0.04593 =
         0.16244   -0.02582    0.05971   -0.01533
AFIX  43
H1    2    0.218679   -0.861030    0.039808    11.00000   -1.20000
AFIX   0
N2    3    0.341601   -0.793479   -0.133745    11.00000    0.06575    0.06144 =
         0.09287   -0.01780    0.00366   -0.01443
AFIX  43
H2    2    0.345551   -0.780931   -0.188282    11.00000   -1.20000
AFIX   0
N3    3    0.258687   -0.586105    0.129953    11.00000    0.07478    0.04940 =
         0.03036   -0.01161    0.02547   -0.03195
AFIX 137
H3A   2    0.192925   -0.592255    0.093913    11.00000   -1.50000
H3B   2    0.223906   -0.491087    0.137675    11.00000   -1.50000
H3C   2    0.258177   -0.642699    0.179413    11.00000   -1.50000
AFIX   0
C1    1    0.401129   -0.806011   -0.003259    11.00000    0.02015    0.03219 =
         0.06605   -0.01262    0.00191   -0.00381
C2    1    0.442860   -0.783700   -0.083172    11.00000    0.02092    0.02975 =
         0.03161   -0.00684    0.00383   -0.01235
AFIX  43
H2A   2    0.532225   -0.763620   -0.101643    11.00000   -1.20000
AFIX   0
C3    1    0.236871   -0.824899   -0.087094    11.00000    0.04444    0.03946 =
         0.07947   -0.03502    0.00499   -0.02372
AFIX  43
H3    2    0.150600   -0.837301   -0.106849    11.00000   -1.20000
AFIX   0
C4    1    0.492615   -0.796027    0.071190    11.00000    0.04805
AFIX  23
H4A   2    0.487053   -0.866156    0.120189    11.00000   -1.20000
H4B   2    0.606727   -0.825943    0.055616    11.00000   -1.20000
AFIX   0
C5    1    0.423050   -0.638596    0.095563    11.00000    0.06468    0.04386 =
         0.04079    0.00016   -0.00777   -0.03867
AFIX  23
H5A   2    0.494502   -0.637568    0.137125    11.00000   -1.20000
H5B   2    0.424385   -0.568413    0.045631    11.00000   -1.20000
AFIX   0
C8    1    0.321005   -0.621102    0.495922    11.00000    0.19086
N4    3    0.485727   -0.931056    0.498061    11.00000    0.22229
C7    1    0.301935   -0.869407    0.496178    11.00000    0.19077
C6    1    0.483951   -0.789301    0.494140    11.00000    0.21615
N5    3    0.332816   -0.741700    0.502163    11.00000    0.20908

HKLF 4

REM  g151013a in P-1
REM R1 =  0.0614 for    3655 Fo > 4sig(Fo)  and  0.0737 for all    4531 data
REM    171 parameters refined using     18 restraints

END

WGHT      0.0728      0.0000

REM Highest difference peak  4.296,  deepest hole -3.656,  1-sigma level  0.586
Q1    1  -0.2360 -0.7039  0.2883  11.00000  0.05    4.30
Q2    1   0.2411 -1.1848  0.2989  11.00000  0.05    4.18
Q3    1   0.0180 -1.1910  0.2991  11.00000  0.05    4.10
Q4    1  -0.0083 -0.7096  0.2879  11.00000  0.05    4.00
Q5    1  -0.0234 -0.6002  0.0967  11.00000  0.05    3.30
Q6    1  -0.2401 -0.6039  0.0974  11.00000  0.05    3.08
Q7    1   0.3654 -0.9213  0.2738  11.00000  0.05    2.97
Q8    1  -0.2468 -0.7656  0.4973  11.00000  0.05    2.81
Q9    1  -0.1355 -0.9486  0.2752  11.00000  0.05    2.63
Q10   1   0.1265 -0.4529  0.3128  11.00000  0.05    2.59
Q11   1   0.0537 -1.1988  0.0972  11.00000  0.05    2.57
Q12   1  -0.1217 -0.4428  0.3140  11.00000  0.05    2.51
Q13   1   0.1525 -0.9410  0.2741  11.00000  0.05    2.35
Q14   1   0.5427 -0.8617  0.4885  11.00000  0.05    2.33
Q15   1  -0.1709 -0.7668  0.3572  11.00000  0.05    2.29
Q16   1  -0.0109 -0.7526  0.4972  11.00000  0.05    2.28
Q17   1   0.2771 -1.1933  0.0980  11.00000  0.05    2.24
Q18   1  -0.3609 -0.9388  0.2782  11.00000  0.05    2.22
Q19   1  -0.1044 -0.7109  0.3568  11.00000  0.05    2.17
Q20   1   0.0992 -1.1732  0.2308  11.00000  0.05    2.15
Q21   1   0.1334 -1.0984  0.2397  11.00000  0.05    2.14
Q22   1  -0.1609 -0.6794  0.5010  11.00000  0.05    2.13
Q23   1  -0.1396 -0.6725  0.2241  11.00000  0.05    2.01
Q24   1  -0.0386 -0.6974  0.5087  11.00000  0.05    1.99
Q25   1  -0.6137 -0.4414  0.3109  11.00000  0.05    1.97
Q26   1  -0.3798 -0.4371  0.3055  11.00000  0.05    1.95
Q27   1  -0.1060 -0.6139  0.2271  11.00000  0.05    1.91
Q28   1  -0.2655 -0.4293  0.3155  11.00000  0.05    1.78
Q29   1   0.2531 -0.7410  0.4947  11.00000  0.05    1.72
Q30   1   0.4781 -0.7945 -0.2888  11.00000  0.05    1.68
Q31   1   0.0856 -1.2632  0.3636  11.00000  0.05    1.64
Q32   1  -0.3806 -0.5517  0.2962  11.00000  0.05    1.63
Q33   1   0.0427 -0.8953  0.2796  11.00000  0.05    1.63
Q34   1   0.1595 -0.6385  0.2973  11.00000  0.05    1.61
Q35   1  -0.4609 -0.9046  0.2794  11.00000  0.05    1.58
Q36   1  -0.1382 -0.6128  0.1613  11.00000  0.05    1.57
Q37   1  -0.1408 -0.2644  0.2984  11.00000  0.05    1.56
Q38   1   0.0599 -0.7179  0.5124  11.00000  0.05    1.56
Q39   1   0.4542 -0.7390  0.5115  11.00000  0.05    1.54
Q40   1  -0.7225 -0.4193  0.3124  11.00000  0.05    1.53
Q41   1  -0.2868 -0.8197  0.2663  11.00000  0.05    1.49
Q42   1   0.1470 -1.2075  0.3667  11.00000  0.05    1.47
Q43   1   0.1309 -1.2736  0.3490  11.00000  0.05    1.44
Q44   1   0.4726 -0.9694  0.5042  11.00000  0.05    1.44
Q45   1   0.4553 -0.8353 -0.0864  11.00000  0.05    1.43
Q46   1  -0.4934 -0.4853  0.3622  11.00000  0.05    1.39
Q47   1   0.4005 -0.7449 -0.0774  11.00000  0.05    1.34
Q48   1  -0.2079 -0.5854  0.0275  11.00000  0.05    1.32
Q49   1   0.1606 -1.2972  0.3326  11.00000  0.05    1.31
Q50   1  -0.1627 -0.8540  0.5659  11.00000  0.05    1.29
Q51   1   0.0963 -0.6458  0.1004  11.00000  0.05    1.26
Q52   1  -0.0092 -0.3231  0.2744  11.00000  0.05    1.26
Q53   1  -0.0049 -0.5489  0.3009  11.00000  0.05    1.26
Q54   1   0.1698 -1.1206  0.1100  11.00000  0.05    1.26
Q55   1  -0.1372 -0.7578  0.5686  11.00000  0.05    1.23
Q56   1   0.2338 -1.3235  0.3216  11.00000  0.05    1.22
Q57   1   0.0912 -0.7288  0.0844  11.00000  0.05    1.22
Q58   1   0.1616 -0.6714  0.5151  11.00000  0.05    1.20
Q59   1  -0.4167 -0.7423  0.2823  11.00000  0.05    1.19
Q60   1   0.4455 -0.8008  0.0691  11.00000  0.05    1.17
;
_shelx_res_checksum              78956
_shelx_hkl_file
;
   0   0   3  471.84   21.59
   0   0   4  504.71   23.58
   0   0   5 3935.41   71.01
   0   0   5 3417.40   35.86
   0   0   6    4.03    1.30
   0   0   6    5.18    3.10
   0   0   7  515.54   14.30
   0   0   7  723.29   34.12
   0   0   8   50.25    4.43
   0   0   8   80.31   11.94
   0   0   9  229.45    9.55
   0   0   9  389.62   27.07
   0   0  10 2063.15   63.32
   0   0  10 1281.88   22.39
   0   0  11   86.02   13.30
   0   0  11   49.43    4.37
   0   0  12  102.85   14.68
   0   0  12   56.33    4.63
   0   0  13    5.29    4.23
   0   0  14  127.78   16.63
   0   0  15  456.75   32.27
   0   0 -15  459.56   22.72
   0   0  16   51.59   10.59
   0   0  17    6.59    4.47
   0   0  18   16.90    6.28
   0   0  19   20.07    7.15
   0   0  20   99.02   15.78
   0   0  21   13.19    6.11
   0  -1  20   41.34   10.23
   0  -1  19   32.48    9.13
   0  -1  18   24.74    8.10
   0  -1  17   26.64    8.01
   0  -1  16    1.38    1.80
   0  -1  15  191.84   21.04
   0   1 -15  200.76   16.62
   0  -1  14    7.02    4.26
   0   1 -14    1.89    2.05
   0  -1  13  192.25   20.77
   0   1 -13  196.94   16.31
   0  -1  12   27.34    7.69
   0  -1  11   68.24   11.99
   0  -1  10  414.85   29.10
   0  -1   9   47.14    9.51
   0  -1   8  492.28   29.90
   0  -1   7    1.74    1.00
   0  -1   6  125.62   14.11
   0  -1   5  240.80   18.49
   0  -1   4  113.10   11.88
   0  -1   3   97.10    9.75
   0  -1   2    6.81    2.28
   0  -1  -2    2.19    0.59
   0   1   3    4.39    0.65
   0  -1  -3    4.94    0.95
   0  -1  -3    4.92    0.70
   0   1   3    5.98    1.08
   0   1   3    2.87    1.28
   0  -1  -4  268.63    8.11
   0  -1  -4  266.03    5.93
   0   1   5   27.16    5.75
   0  -1  -5   22.42    1.97
   0  -1  -5   23.18    2.69
   0   1   6  129.12   13.00
   0   1   7  191.65   16.67
   0   1   8   21.69    6.07
   0   1   9  556.64   31.09
   0   1  10   26.38    4.60
   0   1  10   43.29    9.09
   0   1  11  113.70    9.19
   0   1  11  169.13   18.23
   0   1  12  130.18   16.29
   0   1  12   80.90    7.46
   0   1  13   23.53    7.38
   0   1  13   11.32    2.79
   0  -1 -13   17.04    3.85
   0   1  14  122.73    8.72
   0  -1 -14  169.05   11.71
   0  -1 -15   10.85    2.75
   0   1  15   16.12    5.92
   0  -1 -15    8.31    2.20
   0   1  15    6.88    2.10
   0  -1 -16   20.20    3.43
   0   1  16   35.34    8.72
   0   1  17   28.99    8.11
   0   1  18    4.10    3.07
   0   1  19   36.02    9.18
   0   1  20   11.67    5.24
   0   1  21    1.02    2.70
   0  -2  19  203.55   22.65
   0  -2  18    4.12    3.00
   0  -2  17    5.07    4.47
   0  -2  16   86.84   14.62
   0  -2  15   70.46   12.86
   0  -2  14  467.81   33.01
   0   2 -14  420.06   26.42
   0  -2  13    3.50    3.24
   0   2 -13    0.96    1.81
   0  -2  12    9.07    4.04
   0   2 -12    9.23    4.06
   0   2 -11  103.10   12.79
   0  -2  11   97.98   14.63
   0   2 -10  197.98   17.60
   0  -2  10  214.35   21.29
   0  -2   9  467.08   30.71
   0  -2   8   24.41    6.88
   0  -2   7  214.98   19.66
   0  -2   6   24.65    6.34
   0  -2   5  125.36   13.62
   0  -2   4   91.09   10.92
   0  -2   3   21.90    4.88
   0  -2   3   33.83    3.17
   0  -2   2  471.03   19.87
   0  -2   2  593.99   10.65
   0   2  -1   16.05    3.70
   0  -2   1   24.45    1.70
   0  -2   1   18.45    3.16
   0   2  -1   22.12    1.73
   0  -2   0   87.99    4.61
   0  -2   0   82.76    6.05
   0   2   0   88.75    2.94
   0  -2  -1   52.47    2.66
   0  -2  -1   52.87    4.40
   0   2   2    3.14    0.88
   0  -2  -2    3.11    0.69
   0  -2  -2    3.68    1.07
   0   2   2    3.92    0.98
   0  -2  -3  526.06   11.75
   0   2   3  457.78   12.47
   0  -2  -3  510.41   10.35
   0   2   3  528.55   10.99
   0   2   3  525.84   10.06
   0   2   3  556.70   12.79
   0   2   4   15.76    1.67
   0  -2  -4   15.82    2.42
   0  -2  -4   18.82    2.09
   0   2   4   18.90    3.58
   0   2   4   16.58    2.21
   0  -2  -4   14.92    2.04
   0  -2  -5   80.00    5.64
   0  -2  -5   72.63    5.28
   0  -2  -5   74.02    4.05
   0   2   5   70.10    3.54
   0   2   5   68.46    4.75
   0  -2  -6  134.26    8.14
   0  -2  -6  146.29    5.69
   0  -2  -6  153.83    8.11
   0  -2  -7   13.46    2.46
   0  -2  -7   13.27    1.80
   0  -2  -7   16.59    3.24
   0  -2  -8  117.18    5.62
   0  -2  -8  113.72    7.78
   0  -2  -9   23.70    2.63
   0  -2  -9   24.73    3.82
   0  -2 -10  180.37   10.64
   0  -2 -10  182.09    7.77
   0  -2 -11  147.69   10.03
   0  -2 -11  130.69    6.90
   0  -2 -12   36.42    3.81
   0  -2 -12   48.93    5.96
   0  -2 -13    3.83    1.34
   0   2  13    3.55    1.74
   0  -2 -13    2.52    1.28
   0  -2 -14    4.86    1.84
   0   2  14    3.02    2.54
   0  -2 -14    4.79    1.60
   0   2  14    4.43    2.28
   0   2  15  222.64   14.09
   0  -2 -15  232.90   10.25
   0   2  16  144.18   17.67
   0   2  17  117.51   15.88
   0  -2 -18    6.55    5.04
   0   2  18    2.85    2.64
   0  -2 -19    0.49    1.49
   0   2  19    1.90    3.54
   0  -2 -20  142.27   18.39
   0   2  20  154.38   18.87
   0   2  21   24.98    7.53
   0   2  22   42.36    9.99
   0  -3  19   12.02    5.73
   0  -3  18    2.33    3.80
   0  -3  17   28.84    8.84
   0  -3  16   28.08    8.69
   0  -3  15  100.56   15.60
   0  -3  14   29.97    8.39
   0  -3  13   24.58    7.73
   0  -3  12  141.63   18.02
   0   3 -11   96.38   13.37
   0  -3  11   97.57   14.71
   0   3 -10  273.75   22.45
   0  -3  10  339.68   27.14
   0  -3   9   78.65   12.69
   0   3  -9   59.64   10.40
   0   3  -8   20.92    6.08
   0  -3   8   47.44    9.67
   0   3  -7   95.85   12.58
   0   3  -7  268.68   25.81
   0  -3   7  161.36   11.32
   0  -3   7  219.68   20.39
   0  -3   6  156.87   16.52
   0  -3   6  139.17    9.48
   0  -3   5  192.08   17.17
   0  -3   5  207.36   10.24
   0  -3   4   67.84    9.43
   0  -3   4   76.89    5.40
   0  -3   3    0.22    1.27
   0  -3   3    2.85    0.87
   0   3  -3    1.59    2.59
   0   3  -2   85.10   11.81
   0  -3   2   84.70    4.15
   0  -3   2   80.97    8.26
   0   3  -2   84.97    4.63
   0   3  -1   25.08    2.14
   0  -3   1   28.59    2.19
   0   3   0  122.99    4.30
   0  -3   0  121.48    8.94
   0  -3   0  122.50    6.14
   0  -3  -1   80.46    3.09
   0  -3  -1   92.01    7.45
   0  -3  -1   87.42    4.18
   0   3   1   80.95    3.36
   0  -3  -2  263.42   12.07
   0   3   2  245.12   10.05
   0  -3  -2  281.95    9.87
   0  -3  -2  286.71    7.69
   0   3   3   70.52    4.92
   0   3   3   74.47    5.35
   0  -3  -3   77.71    4.88
   0  -3  -3   66.18    5.66
   0   3   3   71.43    5.79
   0  -3  -3   73.12    4.08
   0  -3  -4   25.76    2.64
   0   3   4   25.44    3.13
   0   3   4   24.61    2.66
   0   3   4   23.63    3.15
   0  -3  -4   25.46    3.35
   0  -3  -5    0.04    0.37
   0   3   5    1.43    0.97
   0   3   5    0.83    0.69
   0   3   5    0.67    0.41
   0   3   5    1.04    0.49
   0  -3  -5    0.69    0.79
   0   3   6    4.88    1.10
   0   3   6   10.52    3.00
   0   3   6    5.03    1.46
   0  -3  -6    7.31    1.80
   0  -3  -6    5.31    1.59
   0   3   6    5.25    1.42
   0  -3  -7  356.05   15.07
   0  -3  -7  344.80   11.65
   0   3   7  313.29   12.15
   0   3   7  338.70    9.24
   0   3   7  322.34   11.46
   0  -3  -7  338.61   13.29
   0  -3  -8   49.77    5.53
   0  -3  -8   52.47    5.92
   0  -3  -8   49.24    4.33
   0  -3  -9  117.34    9.20
   0  -3  -9  118.47    9.47
   0  -3  -9  113.62    6.61
   0  -3 -10    0.25    0.75
   0  -3 -10    0.04    0.73
   0  -3 -10   -0.39    0.27
   0  -3 -11   45.07    5.99
   0  -3 -11   40.49    3.96
   0  -3 -11   49.61    6.97
   0  -3 -12  166.22   13.79
   0  -3 -12  170.18   12.06
   0  -3 -13   71.03    5.30
   0  -3 -13   87.91    8.90
   0  -3 -13   69.80    9.51
   0  -3 -14   43.63    4.12
   0  -3 -14   31.48    6.80
   0   3  14   49.45    8.17
   0  -3 -14   49.54    6.75
   0  -3 -15   10.57    2.97
   0  -3 -15    7.07    3.69
   0  -3 -15    6.97    1.64
   0   3  15   14.60    5.00
   0  -3 -16   46.24    9.00
   0   3  16   87.24   13.30
   0   3  17   39.34    8.96
   0  -3 -17   27.60    7.36
   0  -3 -18   62.63   11.26
   0   3  18   90.94   13.85
   0  -3 -19    0.63    1.16
   0   3  19    4.67    3.79
   0  -3 -20   29.46    8.19
   0   3  20   27.18    7.53
   0   3  21   17.85    6.04
   0   3  22    0.90    2.53
   0  -4  18   24.41    7.98
   0  -4  17    3.61    2.59
   0  -4  16   11.94    4.98
   0  -4  15   21.64    7.54
   0  -4  14  138.94   18.45
   0  -4  13  160.41   19.74
   0  -4  12    3.06    3.19
   0  -4  11  134.41   17.59
   0  -4  10   51.02   10.55
   0  -4   9  680.16   38.16
   0   4  -8  200.82   19.97
   0  -4   8  250.75   14.59
   0  -4   7   53.28   10.04
   0  -4   7   49.63    5.95
   0   4  -7   37.09    8.33
   0  -4   6  388.97   15.07
   0  -4   6  377.46   25.79
   0  -4   5    5.51    3.04
   0  -4   5    9.05    2.09
   0  -4   4 1064.16   19.83
   0  -4   4 1151.24   39.52
   0  -4   3  422.68   21.78
   0  -4   3  372.81   10.39
   0   4  -2  339.66   10.09
   0  -4   2  337.64    8.98
   0  -4   2  377.90   17.97
   0   4  -2  385.79   27.37
   0  -4   1  745.23   21.16
   0   4  -1  681.39   12.82
   0   4  -1  581.72   31.03
   0  -4   1  649.40   11.49
   0  -4   0   18.28    2.59
   0   4   0   15.30    1.72
   0   4   0   16.15    2.03
   0   4   0    8.64    3.33
   0   4   1 1541.95   17.27
   0   4   1 1480.52   20.12
   0  -4  -1 1482.59   15.79
   0  -4  -1 1795.13   39.15
   0   4   1 1143.46   31.82
   0   4   1 1334.99   30.66
   0  -4  -2  200.35    3.71
   0  -4  -2  229.30   13.68
   0   4   2  200.88    9.26
   0   4   2  179.35   10.38
   0  -4  -2  204.39   10.01
   0  -4  -2  211.03    7.56
   0   4   3  519.15   18.40
   0   4   3  486.92   15.96
   0  -4  -3  552.54   15.49
   0  -4  -3  565.43   21.02
   0  -4  -3  532.76   12.22
   0   4   4  498.93   17.51
   0   4   4  475.19   14.60
   0  -4  -4  489.03   12.23
   0  -4  -4  522.65   14.60
   0  -4  -4  488.87   18.94
   0  -4  -5  102.71    6.01
   0   4   5   96.55    6.11
   0   4   5  105.37    7.71
   0   4   5  103.23    8.01
   0  -4  -5  110.72    8.74
   0   4   6 1104.48   20.18
   0  -4  -6 1087.11   21.29
   0   4   6 1118.30   20.05
   0   4   6 1159.87   25.18
   0   4   6 1216.24   26.65
   0  -4  -6 1203.35   28.25
   0  -4  -7   23.38    3.82
   0   4   7   20.68    3.57
   0   4   7   22.96    2.83
   0   4   7   25.92    3.91
   0  -4  -7   22.73    3.32
   0   4   7   25.77    3.78
   0   4   8  341.27   17.35
   0  -4  -8  314.54   13.99
   0  -4  -8  313.06   13.32
   0   4   8  290.94    9.94
   0   4   8  296.13   13.67
   0   4   8  307.72   13.17
   0  -4  -9  100.73    7.80
   0   4   9   94.43    7.47
   0   4   9   92.25    5.52
   0  -4  -9   97.24    8.10
   0  -4 -10   85.30    8.07
   0   4  10   84.29    7.23
   0  -4 -10   88.73    7.23
   0  -4 -11  455.15   16.33
   0  -4 -11  459.61   20.29
   0  -4 -12    4.86    2.26
   0   4  12    6.98    3.79
   0  -4 -12    3.43    1.38
   0   4  12    2.06    1.07
   0  -4 -13   80.94    6.63
   0  -4 -13   62.64    8.44
   0  -4 -14    2.02    1.43
   0  -4 -14    4.07    1.39
   0   4  14    5.02    3.14
   0  -4 -15   21.75    5.37
   0  -4 -15   42.01    4.31
   0   4  15   42.83    8.73
   0   4  16  202.46   19.41
   0  -4 -16   89.17   11.84
   0  -4 -17   11.70    4.52
   0   4  17    8.26    4.25
   0   4  18    7.24    3.66
   0  -4 -18    5.01    2.61
   0  -4 -19   -2.11    2.33
   0   4  19    5.58    2.91
   0   4  20    7.82    3.88
   0  -4 -20    4.32    2.78
   0  -5  17   22.29    7.47
   0  -5  16   -0.24    2.01
   0  -5  15   11.13    5.33
   0  -5  14  102.86   16.02
   0  -5  13    5.84    4.01
   0  -5  12  157.26   19.40
   0  -5  11    6.29    3.69
   0  -5  10    2.03    2.81
   0  -5   9  204.24   21.07
   0  -5   8   13.14    3.23
   0  -5   8   19.11    6.42
   0  -5   7  176.96   10.81
   0  -5   7  218.51   20.29
   0  -5   6   16.92    5.12
   0  -5   6   18.69    3.28
   0  -5   5    1.27    0.39
   0  -5   5   -0.07    0.37
   0  -5   4  120.98   12.62
   0  -5   4  102.67    6.22
   0   5  -3   59.93   11.67
   0  -5   3   39.59    3.55
   0  -5   3   55.83    7.73
   0   5  -2  125.36   15.68
   0  -5   2  123.15    5.84
   0   5  -2  122.07    6.66
   0   5  -1   94.54    5.89
   0   5  -1  112.91    5.83
   0  -5   1  122.58    8.49
   0   5   0   64.85    9.19
   0  -5   0   77.22    5.48
   0   5   0   62.51    4.69
   0   5   0   72.20    4.32
   0   5   1   27.92    5.01
   0   5   1   27.77    3.11
   0  -5  -1   30.32    2.50
   0  -5  -1   28.33    4.52
   0   5   1   30.27    2.74
   0   5   2   20.73    2.23
   0  -5  -2   21.60    3.72
   0   5   2   22.29    2.82
   0   5   2   17.90    3.66
   0  -5  -2   26.66    5.17
   0  -5  -2   21.85    1.50
   0   5   3    1.69    1.15
   0  -5  -3    0.06    0.07
   0  -5  -3    1.06    1.06
   0   5   3    0.70    0.61
   0   5   3   -0.49    1.45
   0  -5  -3   -0.02    0.81
   0  -5  -4   93.89    7.12
   0   5   4   90.60    7.45
   0  -5  -4  116.41   10.95
   0  -5  -4   89.74    5.69
   0   5   4   89.79    8.46
   0   5   4   95.14    6.39
   0  -5  -5  227.15    9.44
   0   5   5  227.86   13.23
   0   5   5  235.70   10.68
   0   5   5  218.10   10.89
   0  -5  -5  247.10   15.84
   0  -5  -6    4.89    1.48
   0   5   6    1.17    0.55
   0   5   6    4.02    1.56
   0   5   6    4.28    1.37
   0  -5  -6    2.48    1.10
   0  -5  -7    6.20    1.65
   0   5   7    6.04    2.08
   0   5   7    3.33    1.50
   0   5   7    5.76    2.03
   0  -5  -7    5.52    2.37
   0   5   7    5.13    1.67
   0   5   8   26.95    3.48
   0   5   8   26.79    4.48
   0  -5  -8   27.58    3.90
   0   5   8   33.26    3.11
   0  -5  -8   32.67    5.38
   0   5   8   30.35    4.73
   0  -5  -9   39.95    5.87
   0   5   9   33.79    5.16
   0   5   9   37.14    5.41
   0  -5  -9   33.36    4.62
   0   5   9   39.01    4.46
   0   5   9   33.65    3.80
   0  -5 -10  247.44   13.31
   0   5  10  253.48   14.25
   0   5  10  258.59   13.69
   0   5  10  240.88   10.12
   0  -5 -10  255.11   15.02
   0  -5 -11    1.35    0.80
   0   5  11    5.72    2.20
   0   5  11    5.27    2.19
   0  -5 -11    4.74    2.00
   0  -5 -12    7.75    2.73
   0  -5 -12   10.25    2.80
   0   5  12    9.23    2.99
   0   5  12    9.80    2.93
   0   5  13   45.05    7.48
   0   5  13   25.37    4.65
   0  -5 -13   25.26    5.15
   0  -5 -13   46.81    6.04
   0  -5 -14   13.28    3.12
   0  -5 -14    6.48    2.77
   0   5  14    6.24    2.36
   0   5  14   10.50    3.70
   0  -5 -15   99.43   11.52
   0   5  15  206.50   17.47
   0  -5 -16    4.90    2.82
   0   5  16    2.67    1.32
   0   5  17    2.15    2.02
   0  -5 -17   -0.10    1.00
   0   5  18   14.21    4.50
   0  -5 -18    4.35    1.77
   0  -5 -19    4.19    2.85
   0  -6  16   22.14    7.29
   0  -6  15   29.39    8.40
   0  -6  14    7.69    4.45
   0  -6  13  126.91   17.91
   0  -6  12   18.43    6.85
   0  -6  11   48.78   10.85
   0  -6  10   27.73    7.87
   0  -6   9   12.84    5.11
   0   6  -9   12.40    2.16
   0  -6   8   67.15   11.49
   0  -6   7    7.06    3.86
   0  -6   7    6.29    2.04
   0  -6   6    8.58    2.11
   0  -6   6   12.46    4.60
   0  -6   5    0.55    1.63
   0  -6   5    0.72    0.12
   0  -6   4    4.03    1.32
   0  -6   4    9.18    3.41
   0  -6   3   21.78    2.78
   0  -6   3   28.67    5.44
   0   6  -2    7.65    1.78
   0   6  -2    2.96    0.94
   0  -6   2    6.25    2.62
   0  -6   1   11.84    2.68
   0   6  -1   10.38    1.94
   0   6  -1    6.43    1.68
   0   6   0    2.29    0.86
   0  -6   0    2.30    1.01
   0   6   0    2.52    0.77
   0  -6   0    1.79    0.67
   0   6   1    4.18    1.10
   0  -6  -1    4.06    1.89
   0   6   1    3.02    1.03
   0  -6  -1    3.52    0.92
   0   6   1    4.30    2.19
   0   6   2    5.34    1.44
   0   6   2    5.24    2.24
   0  -6  -2    5.81    0.91
   0   6   2    7.12    1.43
   0  -6  -2    8.87    2.61
   0  -6  -3   15.24    3.30
   0   6   3   12.24    3.08
   0   6   3   14.66    2.58
   0   6   3   12.94    1.95
   0   6   3   13.21    3.50
   0  -6  -3   16.58    4.61
   0   6   4   10.88    2.99
   0   6   4    8.63    2.86
   0   6   4    8.04    1.99
   0  -6  -4   13.79    4.21
   0  -6  -4    8.76    1.97
   0  -6  -4    8.84    2.45
   0  -6  -5    1.16    0.78
   0   6   5    0.36    0.58
   0   6   5   -1.02    1.26
   0   6   5    1.16    0.68
   0  -6  -5    0.28    0.82
   0  -6  -5   -0.08    0.66
   0   6   6    7.52    2.49
   0  -6  -6    8.61    3.28
   0   6   6    8.72    2.37
   0  -6  -6    8.05    2.01
   0   6   7   27.75    4.00
   0   6   7   29.27    5.11
   0  -6  -7   34.23    6.55
   0  -6  -7   29.32    3.83
   0  -6  -8    1.52    1.40
   0   6   8    0.71    1.14
   0  -6  -8    2.28    1.19
   0   6   8    2.95    1.42
   0  -6  -9    4.25    1.76
   0   6   9    5.07    1.78
   0  -6  -9    5.90    2.59
   0   6   9    9.26    3.06
   0   6  10    3.21    1.78
   0  -6 -10    3.93    2.07
   0   6  10    3.82    0.82
   0   6  10    5.31    1.76
   0  -6 -10    2.98    1.27
   0   6  10    3.10    1.89
   0  -6 -11   59.41    8.51
   0   6  11   45.52    3.94
   0   6  11   39.66    6.44
   0  -6 -11   37.00    5.45
   0   6  11   40.15    4.56
   0   6  12   34.69    6.17
   0  -6 -12   40.14    6.03
   0   6  12   46.22    4.84
   0  -6 -13    3.63    2.45
   0   6  13    1.79    0.81
   0  -6 -13    3.14    1.60
   0  -6 -14   24.20    5.12
   0   6  14   24.75    4.45
   0   6  15    0.56    1.05
   0  -6 -15   -1.09    0.93
   0  -6 -16   46.06    7.97
   0  -6 -17   23.64    6.07
   0  -6 -18   10.95    4.08
   0  -6 -19    9.90    3.82
   0  -7  15    2.17    1.89
   0  -7  14   47.66   11.22
   0  -7  13    4.39    3.41
   0  -7  12   -0.31    1.26
   0  -7  11   35.03    8.96
   0  -7  10    5.27    2.23
   0  -7   9   93.66   14.22
   0  -7   8    4.70    2.60
   0  -7   7    0.84    1.12
   0  -7   6   57.87    9.84
   0  -7   5   12.09    2.47
   0  -7   5   24.28    5.84
   0  -7   4  112.97   11.80
   0  -7   4   84.15    6.19
   0  -7   3   14.69    3.81
   0  -7   2    4.94    2.81
   0  -7   2    4.84    2.15
   0   7  -2    3.37    1.26
   0  -7   1   43.84    7.21
   0  -7   1   40.82    4.76
   0   7  -1   34.96    3.92
   0  -7   0    3.29    1.56
   0   7   0    3.24    1.12
   0  -7   0    3.31    1.09
   0  -7  -1   30.72    2.74
   0  -7  -1   32.85    5.83
   0   7   1   26.62    3.18
   0   7   2    8.28    1.67
   0  -7  -2    8.14    2.67
   0  -7  -2    9.29    1.18
   0   7   3   70.21    4.97
   0  -7  -3   77.98    8.22
   0   7   3   72.04    9.67
   0  -7  -4   15.35    3.53
   0   7   4   22.65    5.34
   0   7   4   16.05    2.41
   0  -7  -5   10.26    2.28
   0  -7  -5   13.04    3.34
   0   7   5    3.17    1.51
   0  -7  -6   -0.77    1.11
   0  -7  -6    1.28    0.83
   0   7   6   -0.78    1.47
   0   7   7    2.96    2.26
   0  -7  -7    2.36    1.18
   0   7   7    1.80    1.10
   0  -7  -7    1.89    2.17
   0   7   8  125.10    9.36
   0  -7  -8  152.33   15.83
   0   7   8  130.43   11.90
   0  -7  -8  120.82    8.58
   0  -7  -9   26.19    6.49
   0   7   9   23.09    5.06
   0  -7  -9   18.31    3.48
   0   7   9   18.58    3.63
   0  -7 -10   28.68    4.59
   0   7  10   36.74    6.44
   0  -7 -10   40.71    8.04
   0   7  10   36.80    4.89
   0  -7 -11    1.19    0.95
   0   7  11    1.49    0.68
   0  -7 -12   12.83    3.29
   0   7  12   11.91    2.74
   0  -7 -13   67.55    8.20
   0  -7 -14   27.32    5.26
   0  -7 -15   16.18    4.35
   0  -7 -16    8.54    3.39
   0  -7 -17    7.05    3.30
   0  -7 -18   14.70    4.78
   0  -8  13    2.59    2.84
   0  -8  12   53.60   11.29
   0  -8  11   -3.31    2.74
   0  -8  10   79.01   13.29
   0  -8   9    2.13    1.64
   0  -8   8   35.95    8.32
   0  -8   7  138.80   15.69
   0  -8   6   15.34    4.94
   0  -8   5  219.96   17.37
   0  -8   4    1.76    2.47
   0  -8   4    3.77    2.50
   0  -8   3  188.11   17.63
   0  -8   3  192.99   13.42
   0  -8   2  215.40   12.57
   0   8  -2  181.56   10.32
   0  -8   2  220.69   18.43
   0  -8   1   72.31    6.29
   0   8  -1   59.33    5.55
   0  -8   1   79.20   10.54
   0  -8   0  348.40   11.67
   0   8   0  321.85   12.37
   0  -8   0  361.63   21.67
   0  -8  -1    9.98    1.62
   0   8   1   10.05    2.01
   0  -8  -1   15.41    4.48
   0   8   2  261.37   10.40
   0  -8  -2  261.74    6.44
   0   8   2  242.69   19.87
   0  -8  -2  293.27   18.16
   0  -8  -3  149.00   12.54
   0   8   3  135.73   14.49
   0   8   3  143.90    7.70
   0   8   4  134.79   14.13
   0  -8  -4  136.43   11.69
   0   8   4  133.35    7.44
   0  -8  -5  245.67   15.15
   0   8   5  206.77    9.39
   0   8   5  233.36   18.20
   0  -8  -6   35.80    4.69
   0   8   6   35.35    6.84
   0   8   7  181.42   15.44
   0  -8  -7  173.71   10.55
   0   8   8   24.86    5.72
   0  -8  -8   35.34    4.88
   0  -8  -9   79.30    7.51
   0   8   9   89.77   10.78
   0   8  10   74.50    9.74
   0  -8 -10   71.98    7.42
   0  -8 -11   31.57    5.09
   0   8  11   37.34    7.16
   0  -8 -12   45.40    6.42
   0  -8 -13    2.91    1.79
   0  -8 -14   28.08    5.48
   0  -8 -15    5.63    2.46
   0  -8 -16    8.81    3.42
   0  -8 -17    9.56    3.49
   0  -9  12    0.24    0.92
   0  -9  11   20.59    6.53
   0  -9  10   -0.51    0.49
   0  -9   9    0.74    2.10
   0  -9   8   19.95    5.81
   0  -9   7    2.74    2.30
   0  -9   7   -3.06    2.64
   0  -9   6   32.05    8.47
   0  -9   6   35.55    7.54
   0  -9   5    1.36    1.75
   0  -9   5    0.34    0.63
   0  -9   4    0.31    1.95
   0  -9   4    1.66    1.07
   0  -9   3    4.98    1.80
   0  -9   3    6.89    3.43
   0  -9   2    8.01    3.84
   0  -9   2    6.86    2.12
   0  -9   1   19.93    5.75
   0   9  -1   18.09    3.31
   0  -9   1   18.91    3.12
   0   9   0   14.37    2.80
   0  -9   0   19.70    5.33
   0  -9   0   16.84    2.52
   0  -9  -1    1.63    1.33
   0   9   1   -0.41    2.06
   0  -9  -1    0.81    0.60
   0   9   1    0.35    0.26
   0   9   2    0.55    0.22
   0   9   2   -1.11    2.30
   0  -9  -2   -0.14    0.34
   0   9   3    5.44    1.55
   0  -9  -3    6.43    2.82
   0   9   3    4.45    2.82
   0   9   4    0.56    0.59
   0   9   4   -2.23    2.54
   0  -9  -4    0.96    1.70
   0  -9  -5   24.26    5.05
   0   9   5   22.14    5.82
   0   9   5   19.77    3.11
   0   9   6   19.79    5.49
   0   9   6   17.23    2.92
   0   9   7   12.94    2.60
   0   9   7    7.55    3.27
   0  -9  -8    1.06    1.03
   0   9   8    0.44    1.03
   0  -9  -9    6.86    2.31
   0   9   9   10.15    3.57
   0   9  10   17.38    5.35
   0  -9 -10   16.67    3.62
   0   9  11   42.41    7.99
   0  -9 -11   34.97    5.58
   0   9  12    8.00    3.49
   0  -9 -12    9.28    2.99
   0  -9 -13    1.30    1.32
   0  -9 -14    7.11    2.65
   0  -9 -15    6.03    2.61
   0  -9 -16   14.09    4.32
   0 -10  11   12.06    4.49
   0 -10  10   19.18    6.10
   0 -10   9   10.56    4.63
   0 -10   8    1.66    2.42
   0 -10   8   -1.21    1.45
   0 -10   7   11.97    5.14
   0 -10   7    9.54    3.57
   0 -10   6    8.41    4.58
   0 -10   6    6.03    2.62
   0 -10   5   17.39    4.47
   0 -10   5   26.96    8.03
   0 -10   4    1.80    1.27
   0 -10   3    0.95    0.77
   0 -10   2    0.22    2.44
   0  10  -1    1.32    0.95
   0 -10   1   10.07    4.31
   0 -10   0   24.95    6.39
   0  10   0   12.88    2.91
   0  10   0   13.90    4.96
   0  10   1    1.01    0.87
   0  10   1   -1.24    1.46
   0  10   2    0.30    2.28
   0 -10  -2    2.23    2.09
   0  10   2    0.75    0.22
   0  10   3    1.18    0.61
   0  10   3   -0.48    2.37
   0 -10  -3    2.16    1.27
   0 -10  -4    8.68    3.31
   0  10   4    7.70    2.00
   0  10   5   14.08    2.78
   0  10   5    5.37    2.64
   0  10   6   -0.06    1.68
   0  10   6    0.23    0.39
   0  10   7    2.72    2.42
   0  10   7    1.61    1.10
   0  10   8    3.14    2.19
   0  10   8    2.44    1.00
   0 -10  -9    2.83    1.58
   0  10   9    3.95    2.70
   0  10   9    2.30    1.29
   0 -10 -10   21.50    4.42
   0  10  10   18.13    5.73
   0  10  11    2.32    2.86
   0 -10 -11    1.04    1.18
   0 -10 -12    4.72    2.05
   0  10  12    5.11    2.75
   0 -10 -13    4.69    2.30
   0 -10 -14    1.02    0.32
   0  11  -5    0.78    2.23
   0 -11   4   -9.30    4.69
   0  11  -4    0.63    1.51
   0  11  -3   10.32    5.06
   0 -11   3    7.56    4.07
   0 -11   2    3.28    2.65
   0  11  -2   -0.48    2.97
   0 -11   1    4.11    3.25
   0  11  -1    3.73    3.25
   0 -11   0    3.28    2.64
   0  11   0    6.78    4.12
   0 -11  -1    0.61    0.64
   0  11   1   -2.24    3.56
   0 -11  -2    2.69    2.10
   0  11   2    9.93    7.07
   0  11   3    4.74    3.75
   0 -11  -3    0.54    0.10
   0 -11  -4    4.68    3.11
   0  11   4    4.14    2.61
   0  11   5   -0.70    1.70
   0  11   6   -0.30    1.62
   0  11   7    2.70    2.39
   0  11   8    0.09    1.34
   0  11   9   12.32    5.06
   0  11  10    2.92    1.35
   0  11  11   14.04    5.10
   0 -11 -12   -0.81    0.93
   0  11  12    3.96    3.50
  -1  11   8    1.19    1.64
  -1  11   7    7.75    4.58
  -1  11   6    5.07    2.99
  -1  11   5   19.15    6.71
   1 -11  -5   22.13    5.65
  -1  11   4    0.20    0.96
   1 -11  -4    4.49    3.03
   1 -11  -3   12.73    4.31
  -1  11   3   10.46    4.52
  -1  11   2    2.78    2.41
   1 -11  -2    9.42    3.97
  -1  11   1    8.08    4.10
   1 -11  -1   12.86    4.87
  -1  11   0   11.76    6.05
   1 -11   0   16.41    6.05
  -1  11  -1   10.97    6.17
   1 -11   1   14.46    5.37
   1 -10 -14    1.30    1.17
   1 -10 -13    7.59    2.97
   1 -10 -12   12.16    3.51
   1 -10 -11    1.21    1.03
  -1  10  11    3.20    2.33
  -1  10  10   35.44    8.34
   1 -10 -10   29.29    5.20
  -1  10   9    2.65    3.04
  -1  10   8    6.18    3.82
  -1  10   7    9.10    4.50
  -1  10   6   -0.76    3.34
   1 -10  -5   31.84    6.73
  -1  10   5   25.86    7.53
   1 -10  -4    4.81    2.62
  -1  10   4    8.98    4.62
   1 -10  -3    0.72    0.71
  -1  10   3    0.15    0.20
   1 -10  -2    8.26    3.73
  -1  10   2    3.96    2.78
   1 -10  -1    1.60    1.96
  -1  10   1   -2.21    3.93
   1 -10   0   13.71    5.31
  -1  10   0    8.17    4.13
   1 -10   1    0.32    1.21
  -1  10  -1    1.07    1.19
  -1  10  -2    1.34    1.18
   1 -10   2   -0.36    0.18
  -1  10  -3    3.96    2.71
   1 -10   3   11.87    5.13
  -1  10  -4    0.73    2.15
   1 -10   4   -1.39    1.99
  -1  10  -5   11.77    6.06
   1 -10   5   19.51    6.77
  -1  10  -6    2.01    1.82
   1 -10   6    6.83    4.89
  -1  10  -7   -5.44    5.39
  -1  10  -8   33.26   12.89
  -1  10  -9    2.16    2.68
   1  -9 -15   -0.28    0.54
   1  -9 -14    2.01    1.69
   1  -9 -13    3.84    2.12
   1  -9 -12    0.00    0.67
   1  -9 -11    5.90    2.35
  -1   9  11    4.29    2.50
  -1   9  10    4.41    3.44
   1  -9 -10    2.87    1.47
   1  -9  -9    1.74    0.96
  -1   9   9    2.39    2.48
   1  -9  -8    6.33    2.14
  -1   9   8    5.58    2.88
  -1   9   7    0.97    0.65
  -1   9   7    2.37    1.15
   1  -9  -6   10.36    3.31
  -1   9   6    9.23    4.04
  -1   9   6    7.72    1.85
   1  -9  -5    3.19    1.80
  -1   9   5    2.59    2.51
  -1   9   5    1.56    0.74
   1  -9  -4    1.13    0.72
  -1   9   4   -0.34    1.79
  -1   9   4    0.45    0.53
  -1   9   3    1.66    2.11
  -1   9   3    5.65    1.65
   1  -9  -3    8.06    3.29
  -1   9   2   -2.26    3.17
  -1   9   2    0.76    0.33
   1  -9  -2    1.35    2.03
  -1   9   1    2.50    1.07
  -1   9   1    1.01    1.43
   1  -9  -1    4.87    2.96
  -1   9   0    4.61    1.61
   1  -9   0    4.87    3.06
  -1   9   0    6.01    3.84
  -1   9  -1   -1.84    3.16
   1  -9   1   -0.27    1.32
   1  -9   2    7.24    2.29
  -1   9  -2    8.76    4.53
   1  -9   2    9.18    3.95
   1  -9   3    1.27    0.88
  -1   9  -3   -0.15    2.87
   1  -9   3    0.56    1.57
   1  -9   4   -0.62    1.94
  -1   9  -4    0.56    1.94
   1  -9   4    2.94    2.17
  -1   9  -5    6.19    4.64
   1  -9   5   17.05    5.00
  -1   9  -6    0.47    2.04
   1  -9   6   -0.74    1.19
  -1   9  -7    6.71    3.54
   1  -9   7   13.95    4.98
  -1   9  -8   -1.10    4.05
   1  -9   8    4.41    3.01
  -1   9  -9    1.11    3.19
   1  -9   9    2.70    2.83
   1  -9  10   13.28    5.01
  -1   9 -10   20.86    8.10
   1  -9  11    1.70    1.34
  -1   9 -11   -1.26    1.38
  -1   9 -12   17.74    7.56
   1  -9  12   22.43    6.74
   1  -8 -17    2.49    1.70
   1  -8 -16   24.11    5.72
   1  -8 -15   16.32    4.44
   1  -8 -14   22.12    4.95
   1  -8 -13   16.82    5.58
   1  -8 -13   10.26    3.17
   1  -8 -12   17.83    4.07
   1  -8 -12   34.17    8.26
   1  -8 -11   27.44    4.82
   1  -8 -11   45.53    9.71
  -1   8  10   49.68    8.81
   1  -8 -10   54.58   10.54
   1  -8 -10   42.08    5.67
  -1   8   9   40.00    7.69
   1  -8  -9   51.17   10.13
   1  -8  -9   34.88    5.06
  -1   8   8   34.66    7.24
   1  -8  -8   35.28    4.89
   1  -8  -7   47.47    9.57
   1  -8  -7   40.47    5.05
  -1   8   7   34.61    7.19
   1  -8  -6   31.27    5.38
  -1   8   6   24.70    6.34
   1  -8  -6   33.81    8.11
  -1   8   6   21.89    2.96
   1  -8  -5  120.43   10.79
  -1   8   5  103.48   12.90
  -1   8   5  102.72    6.21
   1  -8  -4   34.62    6.01
  -1   8   4   33.73    7.35
   1  -8  -4   44.59    9.44
  -1   8   4   33.03    3.44
   1  -8  -3   87.37    9.82
  -1   8   3   80.79    5.38
  -1   8   3   63.47   10.16
  -1   8   2   46.60    9.14
   1  -8  -2   54.17    8.15
   1  -8  -2   47.41    2.25
  -1   8   2   46.45    4.14
   1  -8  -1    5.41    2.67
  -1   8   1    2.47    0.74
  -1   8   1    3.66    0.38
   1  -8  -1    3.31    0.96
   1  -8   0  139.69    7.69
  -1   8   0  122.24    7.36
  -1   8   0  114.56   15.01
  -1   8  -1    8.58    4.05
   1  -8   1    5.53    2.80
   1  -8   1   10.86    2.58
   1  -8   2  120.90   14.27
   1  -8   2  135.76   10.88
  -1   8  -2   99.35   14.90
   1  -8   3   19.12    4.70
  -1   8  -3    8.23    3.07
   1  -8   4    0.19    0.86
   1  -8   5   95.56   12.27
   1  -8   6   39.99    8.55
   1  -8   7   69.42   11.80
   1  -8   8   -0.08    1.03
   1  -8   9    0.50    1.55
   1  -8  10   25.24    7.69
   1  -8  11    3.92    2.94
   1  -8  12   30.32    8.30
   1  -8  13    2.86    2.15
   1  -7 -18   10.73    4.07
   1  -7 -17    1.07    1.75
   1  -7 -16    2.94    1.99
   1  -7 -15   -1.88    1.67
   1  -7 -14    1.18    1.10
   1  -7 -13   47.46    8.62
   1  -7 -13   20.29    4.39
   1  -7 -12   19.95    4.24
   1  -7 -12   23.77    6.21
   1  -7 -11   12.62    4.78
   1  -7 -11   14.08    3.32
   1  -7 -10   -0.53    0.78
   1  -7 -10    1.03    1.73
  -1   7  10    1.39    2.27
   1  -7  -9   24.87    4.05
  -1   7   9   25.70    5.73
   1  -7  -9   35.91    7.71
  -1   7   8   31.16    6.24
   1  -7  -8   28.87    7.04
   1  -7  -8   21.26    3.58
  -1   7   7   67.35    9.34
   1  -7  -7   81.94   11.65
   1  -7  -7   61.28    5.96
  -1   7   6   20.30    5.16
   1  -7  -6   19.80    3.31
   1  -7  -6   21.35    5.73
   1  -7  -6   22.12    4.17
   1  -7  -5   10.57    3.98
  -1   7   5   11.35    3.89
   1  -7  -5   14.97    3.48
   1  -7  -5   13.29    2.63
  -1   7   4   41.39    7.60
   1  -7  -4   50.41    6.58
   1  -7  -4   58.16    9.67
  -1   7   4   50.74    4.01
   1  -7  -3    9.61    3.84
   1  -7  -3    7.72    2.62
  -1   7   3    8.53    3.54
  -1   7   3    7.29    1.51
   1  -7  -2  164.26   12.96
  -1   7   2  129.22   13.95
  -1   7   2  141.35    6.60
   1  -7  -2  141.87    4.25
  -1   7   1    3.79    2.64
   1  -7  -1    3.15    0.96
   1  -7  -1    3.86    2.93
  -1   7   1    5.40    1.34
   1  -7  -1    4.92    2.30
  -1   7   0   32.55    7.27
   1  -7   0   49.37    4.95
  -1   7   0   40.50    3.78
   1  -7   0   43.79    7.34
  -1   7  -1   50.08    9.31
  -1   7  -1   51.37    4.66
   1  -7   1   59.80    6.66
   1  -7   2   12.39    3.44
   1  -7   3  148.25   13.59
   1  -7   4    0.81    0.99
   1  -7   5   82.90   11.76
   1  -7   5   55.20    4.89
   1  -7   6   10.61    2.32
   1  -7   6   12.73    4.84
   1  -7   7   25.18    6.95
   1  -7   8   75.47   12.70
   1  -7   9   17.37    6.26
   1  -7  10   44.69   10.29
   1  -7  11    6.49    3.76
   1  -7  12   28.48    8.33
   1  -7  13   47.31   10.90
   1  -7  14   10.16    5.19
   1  -6 -19   28.99    7.05
   1  -6 -18    4.74    2.87
   1  -6 -17   13.64    4.31
   1  -6 -16   47.79    8.09
   1  -6 -15    2.46    1.74
   1  -6 -14  181.82   15.07
   1  -6 -14   86.67    9.95
   1  -6 -13    0.60    0.84
   1  -6 -13    1.50    1.21
   1  -6 -12   37.96    5.77
  -1   6  12   34.85    2.13
  -1   6  11   56.99    6.17
   1  -6 -11   67.88    9.37
   1  -6 -11   65.94    7.23
   1  -6 -10    4.32    1.70
  -1   6  10    4.00    1.72
   1  -6 -10    2.11    1.33
  -1   6   9  132.36   12.19
  -1   6   9  123.22    9.21
   1  -6  -9  138.02   13.33
   1  -6  -9  129.72    9.04
   1  -6  -8    2.54    1.73
  -1   6   8    2.70    1.27
   1  -6  -8    1.93    0.98
   1  -6  -7   50.45    5.16
   1  -6  -7   51.79    8.07
  -1   6   7   44.64    5.73
  -1   6   7   56.07    7.92
   1  -6  -6   47.21    5.43
   1  -6  -6   42.35    4.51
   1  -6  -6   51.09    8.05
  -1   6   6   46.13    7.19
  -1   6   6   46.20    5.89
   1  -6  -5    4.89    1.79
  -1   6   5    3.93    1.35
   1  -6  -5    1.66    0.27
  -1   6   5    4.47    2.62
   1  -6  -5    3.45    1.22
  -1   6   4  115.43    7.90
   1  -6  -4  132.46   13.19
   1  -6  -4  123.12    9.43
  -1   6   4   98.48   10.63
   1  -6  -4  110.81    6.93
  -1   6   3    6.28    2.01
   1  -6  -3    9.14    2.74
  -1   6   3    8.39    2.08
   1  -6  -3    5.85    2.16
  -1   6   3    7.20    1.38
   1  -6  -2   44.51    6.24
  -1   6   2   25.94    5.43
   1  -6  -2   40.00    6.93
  -1   6   2   37.39    3.11
   1  -6  -2   36.37    2.24
  -1   6   2   36.01    4.05
  -1   6   1   31.11    2.84
   1  -6  -1   43.42    6.40
  -1   6   1   33.76    6.55
  -1   6   1   31.48    3.68
   1  -6  -1   41.38    7.05
   1  -6  -1   35.70    3.39
  -1   6   0    6.10    1.33
   1  -6   0    6.16    1.85
  -1   6   0    5.02    1.31
  -1   6   0    2.94    1.55
   1  -6   0    4.99    2.06
  -1   6  -1   77.69    5.24
  -1   6  -1   80.47    5.93
   1  -6   1  103.64   11.76
   1  -6   1  116.44    9.81
  -1   6  -2   11.38    2.28
   1  -6   2   20.17    4.62
   1  -6   3   27.39    6.04
   1  -6   3   19.30    2.34
   1  -6   4   29.40    6.63
   1  -6   4   24.80    2.90
   1  -6   5    4.27    2.68
   1  -6   5    2.35    1.00
   1  -6   6   59.02    5.34
   1  -6   6   67.64   11.13
   1  -6   7   13.03    2.65
   1  -6   7   18.54    5.88
   1  -6   8   23.13    6.97
   1  -6   8   16.13    3.14
   1  -6   9   22.53    6.84
   1  -6  10    4.03    2.78
   1  -6  11   59.42   11.75
   1  -6  12   20.33    7.11
   1  -6  13   12.08    5.23
   1  -6  14    9.37    5.25
   1  -6  15    0.10    0.51
   1  -5 -19   -2.51    3.09
   1  -5 -18   -0.96    0.46
   1  -5 -17   -0.97    1.95
  -1   5  16   13.72    3.72
   1  -5 -16   13.36    4.39
   1  -5 -15   23.31    5.28
  -1   5  15   24.53    4.57
   1  -5 -14    2.99    1.67
  -1   5  14    4.76    1.90
   1  -5 -14    5.41    2.36
   1  -5 -13    0.72    0.92
  -1   5  13    2.53    1.21
   1  -5 -13    1.62    1.17
   1  -5 -12   11.66    3.12
  -1   5  12    7.20    1.73
   1  -5 -12    8.73    2.98
   1  -5 -11   31.13    5.07
  -1   5  11   30.90    3.13
   1  -5 -11   34.49    5.82
  -1   5  10   55.27    5.58
   1  -5 -10   53.24    6.18
   1  -5 -10   63.88    7.92
  -1   5  10   52.49    3.18
  -1   5   9    3.29    1.50
  -1   5   9    2.74    0.52
   1  -5  -9    4.04    2.29
   1  -5  -9    2.96    1.35
   1  -5  -8    0.99    1.03
  -1   5   8    1.01    0.99
   1  -5  -8    0.61    0.49
  -1   5   7   23.72    3.81
   1  -5  -7   25.20    3.44
   1  -5  -7   24.82    4.87
  -1   5   7   27.00    5.00
  -1   5   7   25.64    4.25
  -1   5   6   60.62    6.02
  -1   5   6   66.02    7.93
  -1   5   6   62.66    6.20
   1  -5  -6   59.21    5.06
   1  -5  -6   67.78    8.02
   1  -5  -5   95.54    9.70
   1  -5  -5   92.27    7.03
  -1   5   5   86.09    7.43
  -1   5   5   81.50    6.55
   1  -5  -5   84.49    5.69
  -1   5   5   86.41    8.89
  -1   5   4    3.80    1.82
  -1   5   4    2.72    1.44
  -1   5   4    3.39    1.28
   1  -5  -4    4.13    1.30
   1  -5  -4    4.78    1.61
   1  -5  -4    3.60    1.90
   1  -5  -3   11.99    2.74
  -1   5   3   15.17    3.40
   1  -5  -3   12.80    2.10
  -1   5   3   12.22    2.21
   1  -5  -3   12.05    3.33
  -1   5   2   42.52    5.94
   1  -5  -2   49.30    7.09
  -1   5   2   48.25    3.14
   1  -5  -2   60.04    6.58
   1  -5  -2   54.14    2.82
  -1   5   2   49.86    4.32
  -1   5   1   60.01    4.59
  -1   5   1   59.90    7.46
   1  -5  -1   79.50    5.51
  -1   5   1   69.51    3.81
   1  -5  -1   74.26    8.74
   1  -5   0   43.77    6.78
  -1   5   0   39.97    3.04
  -1   5   0   41.20    3.78
   1  -5   0   43.10    5.25
   1  -5   1    2.44    1.74
  -1   5  -1    1.75    0.73
   1  -5   1    2.31    1.80
  -1   5  -1    1.70    0.64
   1  -5   2   16.04    4.33
  -1   5  -2   13.68    2.25
   1  -5   2   21.64    4.86
   1  -5   3   34.48    6.99
   1  -5   3   40.10    3.21
   1  -5   4  108.83    5.88
   1  -5   4  109.23   13.24
   1  -5   5   33.96    7.77
   1  -5   5   34.60    3.66
   1  -5   6    9.57    4.23
   1  -5   6    5.79    1.73
   1  -5   7   29.88    7.58
   1  -5   7   19.04    3.40
   1  -5   8   47.05    5.80
   1  -5   8   83.65   13.15
   1  -5   9  124.41   16.32
   1  -5  10   38.82    9.35
   1  -5  11   27.16    8.08
   1  -5  12    6.16    4.54
   1  -5  13   81.16   13.89
   1  -5  14   62.78   12.51
   1  -5  15   45.67   10.56
   1  -5  16    5.52    3.87
   1  -4 -20   26.82    7.42
   1  -4 -19    6.17    3.99
   1  -4 -18   21.69    6.30
  -1   4  18   24.61    6.41
   1  -4 -17    0.95    0.70
  -1   4  17    3.89    2.07
   1  -4 -16   35.15    7.43
  -1   4  16   56.73    8.88
   1  -4 -15   37.77    7.31
  -1   4  15   52.36    8.15
  -1   4  14    8.07    2.69
   1  -4 -14   12.51    3.13
   1  -4 -14   13.17    4.14
   1  -4 -13   45.21    5.95
  -1   4  13   40.70    5.54
  -1   4  13   36.86    6.12
   1  -4 -13   38.71    6.75
   1  -4 -12   14.47    4.02
  -1   4  12   14.41    3.52
   1  -4 -12   14.28    3.42
  -1   4  12   11.27    2.76
   1  -4 -12   14.97    4.24
  -1   4  11  131.99    9.51
  -1   4  11  113.06    9.00
   1  -4 -11  114.28   10.05
   1  -4 -11  119.64    9.54
   1  -4 -11  125.33   12.18
  -1   4  10   62.13    6.60
  -1   4  10   69.30    5.96
   1  -4 -10   73.17    7.38
   1  -4 -10   65.78    7.16
   1  -4 -10   84.93    9.75
  -1   4   9   36.86    4.21
   1  -4  -9   43.31    5.37
   1  -4  -9   45.92    7.02
  -1   4   9   44.96    3.90
   1  -4  -9   45.74    5.82
  -1   4   8   82.25    6.27
   1  -4  -8   87.89    7.07
   1  -4  -8  101.48    8.57
   1  -4  -8  101.37   10.15
  -1   4   8   87.98    4.26
   1  -4  -7   77.79    6.06
  -1   4   7   73.55    2.68
   1  -4  -7   86.25    7.92
  -1   4   7   79.88    7.92
  -1   4   7   76.31    6.05
   1  -4  -6  220.18    9.47
  -1   4   6  213.80   10.27
  -1   4   6  208.15   12.58
  -1   4   6  210.46   10.75
   1  -4  -6  244.50   13.37
   1  -4  -5   72.21    5.43
  -1   4   5   69.30    5.71
   1  -4  -5   91.14    8.18
   1  -4  -5   69.62    5.03
  -1   4   5   74.96    7.61
  -1   4   5   72.69    6.04
  -1   4   4  123.99    9.61
   1  -4  -4  121.30    6.09
   1  -4  -4  134.95    9.91
   1  -4  -4  128.52    7.57
  -1   4   4  113.56    7.80
  -1   4   4  129.51    7.17
   1  -4  -3   87.53    6.62
   1  -4  -3   83.51    4.83
  -1   4   3   78.02    6.77
   1  -4  -3   94.11    8.37
  -1   4   3   87.22    5.42
   1  -4  -2  163.82    5.34
  -1   4   2  128.33    9.03
   1  -4  -2  160.44   11.15
  -1   4   2  154.41    6.80
   1  -4  -2  159.20    6.53
   1  -4  -1  315.29   15.86
   1  -4  -1  301.60   11.95
  -1   4   1  296.27    6.77
  -1   4   1  278.43    8.88
   1  -4   0   20.64    4.19
   1  -4   0   21.54    4.38
  -1   4   0   17.62    1.69
  -1   4   0   16.45    2.07
   1  -4   1  115.57   10.91
   1  -4   1  137.16   10.87
  -1   4  -1  121.91    5.10
  -1   4  -1  117.05    5.73
   1  -4   2   48.11    6.61
   1  -4   2   33.93    6.45
   1  -4   2   42.04    2.79
   1  -4   3  195.91   16.94
   1  -4   3  217.07    7.10
   1  -4   3  225.65   14.56
   1  -4   4  149.89   15.48
   1  -4   4  121.05    6.13
   1  -4   5    7.64    1.74
  -1   4  -5    3.71    2.15
   1  -4   5   11.09    4.15
  -1   4  -6   63.30    9.92
   1  -4   6   86.16    6.68
   1  -4   7    2.39    2.62
   1  -4   7    3.85    1.58
  -1   4  -7    0.95    1.11
   1  -4   8  128.83   10.13
   1  -4   8  207.54   20.43
   1  -4   9   21.91    4.45
   1  -4   9   32.95    8.46
   1  -4  10    4.21    3.72
   1  -4  11   29.78    8.27
   1  -4  12    3.38    2.80
   1  -4  13   89.18   14.50
   1  -4  14    3.76    3.58
   1  -4  15    4.01    2.78
   1  -4  16    1.54    1.53
   1  -4  17    2.91    2.72
  -1   3  20    0.04    1.12
   1  -3 -20    4.01    3.63
  -1   3  19   -1.45    2.19
   1  -3 -19    2.94    3.13
  -1   3  18    4.63    2.94
   1  -3 -18    9.53    4.55
  -1   3  17   41.98    8.73
   1  -3 -17   47.90    9.67
  -1   3  16   67.21   10.92
   1  -3 -16   41.62    8.47
  -1   3  15   13.25    4.41
   1  -3 -15    8.10    3.33
   1  -3 -15    9.73    2.43
   1  -3 -14    0.26    0.68
  -1   3  14   -0.33    1.61
  -1   3  14    1.01    1.03
   1  -3 -14   -0.48    2.04
   1  -3 -14   -0.14    0.60
   1  -3 -13    1.94    1.10
  -1   3  13    0.74    0.50
   1  -3 -13    1.20    1.50
   1  -3 -13    1.61    1.64
  -1   3  13    2.27    1.29
   1  -3 -12  101.94   10.42
   1  -3 -12   79.71    7.03
   1  -3 -12   81.92    9.76
  -1   3  12   82.94    6.68
  -1   3  12   95.77   11.11
  -1   3  11  140.96   12.47
   1  -3 -11  132.86   11.73
  -1   3  11  126.46    8.04
   1  -3 -11  130.59    8.86
   1  -3 -11  132.60   11.67
   1  -3 -10   52.99    5.52
   1  -3 -10   53.66    6.87
   1  -3 -10   53.28    7.03
  -1   3  10   49.19    4.90
  -1   3  10   52.41    7.04
   1  -3  -9    2.15    1.13
   1  -3  -9    2.68    1.53
  -1   3   9    3.28    1.37
  -1   3   9    2.91    1.51
   1  -3  -9    3.04    1.67
  -1   3   8    3.66    1.41
  -1   3   8    4.80    1.59
  -1   3   8    2.39    0.84
   1  -3  -8    5.52    2.05
   1  -3  -8    1.20    0.91
   1  -3  -8    4.77    1.66
  -1   3   7  148.80    6.89
  -1   3   7  139.82    8.06
   1  -3  -7  140.54    8.58
  -1   3   7  140.06    7.41
   1  -3  -7  130.65    8.21
   1  -3  -7  139.21   10.39
  -1   3   6  351.95    7.67
  -1   3   6  327.73   11.25
  -1   3   6  332.35   14.39
   1  -3  -6  363.89   13.73
   1  -3  -6  374.16   16.61
   1  -3  -6  347.30   12.12
   1  -3  -5  105.42    7.32
   1  -3  -5   92.62    5.62
   1  -3  -5  112.63    8.77
  -1   3   5   95.12    7.63
  -1   3   5   90.79    2.59
  -1   3   5   95.31    6.11
   1  -3  -4   31.71    2.92
  -1   3   4   35.20    3.77
  -1   3   4   32.21    3.38
  -1   3   4   38.49    4.72
   1  -3  -4   35.60    4.80
   1  -3  -4   34.19    4.21
   1  -3  -4   33.35    3.19
   1  -3  -3   29.37    3.92
   1  -3  -3   27.31    3.12
  -1   3   3   25.02    3.28
  -1   3   3   24.20    2.66
   1  -3  -3   26.27    2.47
  -1   3   2   51.46    4.90
   1  -3  -2   53.68    5.37
   1  -3  -2   51.30    3.23
  -1   3   2   55.42    3.64
  -1   3   1  520.22   10.37
   1  -3  -1  545.33   17.60
  -1   3   1  541.62    7.51
  -1   3   0   73.82    2.83
   1  -3   0   75.05    6.77
  -1   3   0   68.71    3.69
  -1   3  -1  123.15    4.49
   1  -3   1  126.46    3.75
   1  -3   1   96.87   10.06
   1  -3   1  124.33    9.05
   1  -3   2   17.08    3.42
   1  -3   2   19.54    4.98
   1  -3   2   21.99    1.85
   1  -3   3    4.90    2.61
   1  -3   3    4.12    1.80
   1  -3   3    3.78    0.96
   1  -3   4  619.83   14.50
   1  -3   4  847.49   35.89
  -1   3  -5    2.77    1.66
   1  -3   5    2.58    0.91
   1  -3   5    3.45    2.42
   1  -3   6  170.58   10.17
  -1   3  -6  116.79   12.60
   1  -3   7   10.00    4.30
  -1   3  -7    3.11    1.93
  -1   3  -8    4.15    2.25
   1  -3   8   11.93    4.92
   1  -3   9  682.71   36.90
  -1   3  -9  259.20   21.14
  -1   3 -10    2.14    0.59
  -1   3 -10    2.53    1.37
   1  -3  10    5.91    3.91
   1  -3  11  165.18   18.44
   1  -3  12    2.19    2.38
   1  -3  13   18.11    6.52
   1  -3  14  358.94   28.59
   1  -3  15   17.88    6.28
   1  -3  16   66.43   12.87
   1  -3  17    1.59    3.87
   1  -3  18   14.51    6.01
  -1   2  22   29.63    8.07
  -1   2  21   15.83    5.77
   1  -2 -20  109.63   15.96
  -1   2  20  118.15   16.12
   1  -2 -19   18.01    6.77
  -1   2  19    7.41    3.70
  -1   2  18   27.07    7.47
   1  -2 -18   24.34    7.66
  -1   2  17   72.04   12.36
   1  -2 -16   58.22    6.42
  -1   2  16   68.98   11.99
   1  -2 -15  280.31   17.75
   1  -2 -15  248.78   13.21
   1  -2 -14    3.86    1.67
   1  -2 -14    3.78    2.02
  -1   2  14    8.02    3.94
   1  -2 -13   48.22    7.08
  -1   2  13   60.62   10.35
   1  -2 -13   35.55    4.84
   1  -2 -12   86.95    9.38
   1  -2 -12   53.34    5.72
  -1   2  12   84.24   12.01
   1  -2 -11  147.98   11.85
  -1   2  11  163.46   15.59
   1  -2 -11  129.38    8.65
  -1   2  10  274.49   19.02
   1  -2 -10  241.62   14.60
   1  -2 -10  262.77   11.86
   1  -2  -9    2.60    1.14
   1  -2  -9    4.10    1.91
  -1   2   9    3.89    2.21
  -1   2   8   69.61    7.82
  -1   2   8   67.63    4.54
   1  -2  -8   78.46    6.03
   1  -2  -8   75.48    7.52
  -1   2   7   49.56    5.60
  -1   2   7   42.15    3.44
   1  -2  -7   49.15    5.74
   1  -2  -7   42.92    5.09
   1  -2  -7   68.26    8.94
   1  -2  -7   44.50    4.35
   1  -2  -6  237.84   12.21
   1  -2  -6  224.30   14.83
  -1   2   6  237.97    8.05
  -1   2   6  223.55    8.50
   1  -2  -6  245.44    9.78
   1  -2  -6  232.96   10.81
  -1   2   6  249.69   10.10
   1  -2  -5  284.95   13.75
   1  -2  -5  351.79   13.97
  -1   2   5  302.27    9.72
   1  -2  -5  320.86   10.82
  -1   2   5  333.35    8.69
   1  -2  -5  302.30   10.75
  -1   2   5  323.41    9.60
   1  -2  -4    2.28    1.11
  -1   2   4    2.74    0.90
   1  -2  -4    2.45    0.82
   1  -2  -4    2.77    0.75
   1  -2  -4    2.22    0.84
  -1   2   4    4.84    1.81
   1  -2  -4    3.09    1.05
  -1   2   4    2.22    0.50
  -1   2   3   41.91    1.46
   1  -2  -3   46.80    4.06
   1  -2  -3   46.43    4.62
   1  -2  -3   41.32    2.93
   1  -2  -3   49.85    3.33
   1  -2  -3   39.81    2.16
  -1   2   3   42.04    3.62
   1  -2  -2   38.14    2.45
   1  -2  -2   42.45    4.31
   1  -2  -2   42.16    3.94
  -1   2   2   38.01    2.69
  -1   2   1  352.10    7.16
   1  -2  -1  375.97   12.03
   1  -2  -1  372.31    7.00
  -1   2   0  152.82    3.01
  -1   2   0  148.51    4.41
   1  -2   0  169.53    8.35
   1  -2   1    0.95    0.24
   1  -2   1    1.39    0.57
   1  -2   2   70.98    3.27
   1  -2   2   73.75    7.55
   1  -2   2   61.06    5.54
   1  -2   3   -0.30    0.70
   1  -2   3    1.73    0.50
   1  -2   4  184.10   15.54
   1  -2   4  208.25   11.15
   1  -2   5  117.30   13.44
  -1   2  -5   89.66    9.08
  -1   2  -6    4.31    1.98
   1  -2   6    5.50    2.76
  -1   2  -7   18.96    4.56
   1  -2   7   40.52    8.38
  -1   2  -8    7.08    2.93
   1  -2   8    9.31    4.10
  -1   2  -8    7.96    1.21
  -1   2  -9   91.83   11.43
  -1   2  -9  110.72    4.77
   1  -2  10   58.33   10.90
  -1   2 -10   34.42    7.17
   1  -2  11    4.31    2.96
  -1   2 -11    5.98    2.99
  -1   2 -12   22.77    5.85
   1  -2  12   21.39    6.50
   1  -2  13   23.23    7.55
  -1   2 -13   21.70    5.71
   1  -2  14   61.35   11.69
  -1   2 -14   61.77    9.72
   1  -2  15   17.65    6.18
   1  -2  16    1.29    2.57
   1  -2  17    2.08    2.15
   1  -2  18    4.36    3.61
   1  -2  19   12.99    5.51
  -1   1  22   -0.67    3.13
  -1   1  21    0.93    2.27
  -1   1  20   20.05    6.41
  -1   1  19    6.43    3.79
  -1   1  18   16.53    5.94
  -1   1  17    1.24    2.45
   1  -1 -16   -0.20    0.64
  -1   1  16    1.46    2.83
  -1   1  15  117.70   16.02
  -1   1  15   74.82    7.48
   1  -1 -15   87.51    8.32
   1  -1 -15  101.53   10.72
  -1   1  14   12.65    3.17
   1  -1 -14   19.77    4.78
   1  -1 -14   14.33    3.33
   1  -1 -13   11.26    2.72
  -1   1  13   21.00    6.61
   1  -1 -12    2.94    1.16
  -1   1  12    2.02    2.23
  -1   1  11   13.81    5.07
   1  -1 -11    4.07    1.53
   1  -1 -10  349.14   25.53
  -1   1  10  254.13   20.29
  -1   1   9   26.97    6.23
   1  -1  -9   28.83    3.85
  -1   1   8    3.76    1.98
   1  -1  -8    2.23    0.98
   1  -1  -8    3.62    2.32
  -1   1   7   13.00    3.49
   1  -1  -7    9.99    2.12
   1  -1  -7    8.76    3.55
   1  -1  -6   21.50    2.79
   1  -1  -6   19.05    4.28
  -1   1   6   28.88    4.54
  -1   1   5  469.56   14.88
   1  -1  -5  443.40   12.09
   1  -1  -4   66.80    5.10
   1  -1  -4   69.39    5.55
  -1   1   4   81.19    4.62
  -1   1   4   76.57    3.14
   1  -1  -4   75.85    4.65
   1  -1  -3    2.35    0.79
   1  -1  -3    2.41    0.50
  -1   1   3    2.43    0.76
   1  -1  -3    2.03    0.89
  -1   1   3    1.80    0.47
   1  -1  -3    2.68    0.69
  -1   1   2   43.46    1.67
   1  -1  -2   44.29    3.21
   1  -1  -2   42.00    3.69
   1  -1  -2   45.98    2.65
   1  -1  -1  110.22    4.94
   1  -1  -1  118.62    5.77
   1  -1  -1  118.66    3.10
   1  -1   0  506.38   10.96
   1  -1   0  506.15   11.31
   1  -1   1   47.76    3.54
   1  -1   2   13.56    1.95
   1  -1   3   44.56    4.04
   1  -1   4  112.13    6.87
  -1   1  -4   98.72    7.34
   1  -1   5  537.83   24.66
  -1   1  -5  388.75   16.16
   1  -1   6   72.20    9.87
  -1   1  -6   46.66    6.08
  -1   1  -7    4.19    0.97
  -1   1  -7    2.97    1.74
   1  -1   7    7.38    3.01
  -1   1  -8   30.53    2.91
   1  -1   8   39.77    8.19
   1  -1   9  170.78   17.47
  -1   1  -9   85.40    9.80
   1  -1  10  469.38   29.43
  -1   1 -10  351.28   20.53
   1  -1  11   99.00   13.91
  -1   1 -11   82.63   10.15
   1  -1  12   10.12    4.77
  -1   1 -12    7.76    3.20
  -1   1 -13    6.82    2.55
   1  -1  13    7.83    4.33
   1  -1  14  119.92   16.01
  -1   1 -14  126.59   12.88
   1  -1  15  232.24   22.47
   1  -1  16   85.22   13.60
   1  -1  17    2.07    0.99
   1  -1  18    1.22    2.10
   1  -1  19   62.93   12.22
   1  -1  20   51.10   11.05
  -1   0  21   13.38    5.58
  -1   0  20  112.91   16.68
  -1   0  19   21.53    7.10
  -1   0  18    1.87    1.63
  -1   0  17   20.19    7.23
  -1   0  16   24.32    7.66
  -1   0  15  362.33   28.76
  -1   0  14   37.91    9.17
  -1   0  14   23.77    3.25
  -1   0  13    1.16    0.77
  -1   0  13    1.75    2.23
  -1   0  12   29.38    4.11
  -1   0  12   38.02    9.02
  -1   0  11    5.19    3.32
   1   0 -11    5.40    4.01
   1   0 -10  654.25   36.62
  -1   0  10  530.40   31.23
  -1   0   9   18.61    5.24
   1   0  -9   24.36    6.91
  -1   0   8   19.13    5.35
   1   0  -8   10.76    4.25
   1   0  -7   37.97    7.26
  -1   0   7   41.98    7.21
  -1   0   6   -0.83    1.25
  -1   0   5  554.95   20.07
  -1   0   4    8.55    2.07
  -1   0   3   63.41    4.13
  -1   0   2   95.39    3.57
  -1   0   1   11.73    1.16
   1   0   1   15.80    1.41
   1   0   2   91.03    3.57
   1   0   2   93.48    3.00
   1   0   3   30.52    2.34
   1   0   4    5.90    1.22
  -1   0  -4    5.72    1.11
  -1   0  -4    4.92    1.10
  -1   0  -5  292.51   10.55
  -1   0  -5  381.88    9.62
  -1   0  -6    1.44    0.63
   1   0   6    0.36    1.25
  -1   0  -6    0.92    0.73
   1   0   7   13.39    4.09
  -1   0  -7   11.86    2.69
  -1   0  -8    1.16    0.88
   1   0   8    2.16    1.20
  -1   0  -9    3.14    1.48
   1   0   9    7.05    2.89
   1   0  10  202.24   19.32
  -1   0 -10  165.59   12.22
  -1   0 -11    0.16    1.37
   1   0  11    3.21    1.87
  -1   0 -12    1.44    0.94
   1   0  12    0.40    1.27
   1   0  13    5.69    3.29
  -1   0 -13    3.34    1.51
  -1   0 -14    4.49    1.97
   1   0  14    4.60    3.55
   1   0  15   59.06   11.15
   1   0  16    3.93    3.45
   1   0  17    3.63    3.02
   1   0  18    2.22    3.19
   1   0  19    2.13    1.51
   1   0  20    6.97    4.65
  -1  -1  20    8.13    3.83
  -1  -1  19   24.72    8.31
  -1  -1  18    4.43    2.52
  -1  -1  17    2.98    3.64
  -1  -1  16   17.43    6.04
  -1  -1  15   69.77   12.80
  -1  -1  14   90.46   14.33
  -1  -1  13    1.76    1.69
  -1  -1  12    1.80    2.76
  -1  -1  11   38.80    9.01
  -1  -1  11   27.93    2.42
   1   1 -10  164.41   19.18
  -1  -1  10  143.41    5.77
  -1  -1  10  179.53   18.69
  -1  -1   9  159.03    6.48
  -1  -1   9  138.05   15.71
  -1  -1   8    2.56    2.70
  -1  -1   7    5.31    2.32
  -1  -1   6   48.24    7.48
  -1  -1   5  282.48   16.19
  -1  -1   4  151.93   10.11
  -1  -1   3   20.13    2.97
  -1  -1   2   80.15    4.22
  -1  -1   2   73.92    4.23
   1   1  -1    5.15    0.73
  -1  -1  -2  138.59    6.12
  -1  -1  -3   43.02    3.90
  -1  -1  -3   42.69    3.05
  -1  -1  -4    1.66    0.90
   1   1   5  426.39   14.06
   1   1   6   43.09    4.64
  -1  -1  -6   41.52    2.76
   1   1   7  145.14   12.40
   1   1   7  143.51    8.74
  -1  -1  -7  134.12    4.90
  -1  -1  -8   18.72    2.13
  -1  -1  -8   14.88    2.43
   1   1   8   23.69    3.63
   1   1   8   23.37    5.70
   1   1   9   10.46    4.11
  -1  -1  -9    9.92    1.77
  -1  -1  -9    8.00    1.93
   1   1   9   13.96    2.84
  -1  -1 -10  519.82   16.96
   1   1  10  586.13   18.43
   1   1  10  613.87   32.57
  -1  -1 -10  500.12   12.98
   1   1  11   35.25    8.09
   1   1  11   25.38    3.83
  -1  -1 -11   28.18    3.34
  -1  -1 -11   30.44    4.30
  -1  -1 -12  183.55    8.65
   1   1  12  161.37    9.69
   1   1  12  183.37   18.54
  -1  -1 -12  192.79   11.14
  -1  -1 -13    5.04    1.74
   1   1  13    2.73    0.85
  -1  -1 -13    3.74    1.40
  -1  -1 -14   18.72    2.88
  -1  -1 -14   23.22    3.85
   1   1  14   19.22    6.39
  -1  -1 -15  470.07   14.39
  -1  -1 -15  517.12   18.02
   1   1  15  493.94   31.92
   1   1  16    4.90    3.61
   1   1  17  105.66   15.06
   1   1  18    1.49    2.02
   1   1  19   26.15    7.98
   1   1  20  152.58   18.88
   1   1  21    3.62    2.94
  -1  -2  20    6.70    3.69
  -1  -2  19  167.12   20.65
  -1  -2  18   12.75    6.16
  -1  -2  17    5.19    4.00
  -1  -2  16  154.97   19.77
  -1  -2  15   39.75   10.18
  -1  -2  14  429.48   32.28
  -1  -2  13    3.86    3.42
  -1  -2  12    5.93    3.84
  -1  -2  11  278.75   24.66
  -1  -2  10  100.16   14.14
  -1  -2   9  541.39   32.32
  -1  -2   8    7.00    3.41
  -1  -2   7    3.49    2.11
  -1  -2   6  181.83   15.47
  -1  -2   5  150.30   12.64
  -1  -2   4  569.41   21.49
  -1  -2   4  605.37   16.52
  -1  -2   3   68.07    4.68
  -1  -2   3   63.04    5.94
   1   2  -2    9.37    1.35
  -1  -2   2    8.84    1.77
  -1  -2   2    9.58    1.44
  -1  -2   1  114.00    4.84
   1   2  -1  121.60    6.42
  -1  -2   1  116.60    4.36
  -1  -2   0  270.58    6.06
   1   2   0  253.10    7.38
  -1  -2   0  263.24    5.63
   1   2   1  363.25    8.68
   1   2   1  372.15    5.78
  -1  -2  -1  392.25    7.31
  -1  -2  -1  381.39    5.81
  -1  -2  -2  138.53    4.59
  -1  -2  -3    3.89    0.88
   1   2   3    4.66    0.89
  -1  -2  -4   21.11    2.45
  -1  -2  -5  308.08   10.58
   1   2   5  291.93    7.16
  -1  -2  -6  199.44    9.68
   1   2   6  276.74   16.74
   1   2   7  245.66   15.52
  -1  -2  -7  184.56   10.47
   1   2   8   11.99    3.44
  -1  -2  -8    9.66    2.62
   1   2   8   12.43    3.48
  -1  -2  -9    3.99    0.98
   1   2   9    1.96    0.56
   1   2   9    4.76    2.01
   1   2  10  183.64   17.42
  -1  -2 -10  168.18    8.10
   1   2  11   60.14    7.29
  -1  -2 -11   43.46    4.23
  -1  -2 -11   40.69    2.40
  -1  -2 -12   96.94    6.66
   1   2  12  124.05   10.29
   1   2  12  125.27   14.97
  -1  -2 -12  115.70    5.40
  -1  -2 -13   13.10    1.50
  -1  -2 -13   16.53    2.79
  -1  -2 -13   17.97    2.07
   1   2  13   19.87    5.96
   1   2  13   16.52    3.65
  -1  -2 -14    0.73    0.43
  -1  -2 -14   -0.39    0.89
  -1  -2 -14    1.06    0.45
   1   2  15   92.80   14.01
   1   2  15   59.69    6.86
   1   2  16   18.68    6.33
   1   2  17   39.83    9.11
   1   2  18   11.91    4.78
  -1  -2 -18   19.92    7.21
   1   2  19    6.82    4.19
  -1  -2 -19    7.77    4.92
   1   2  20   17.48    6.18
  -1  -2 -20   33.65    9.26
   1   2  21    4.38    3.78
   1   2  22    5.41    3.53
  -1  -3  19    4.83    2.78
  -1  -3  18   13.84    6.12
  -1  -3  17    1.01    2.43
  -1  -3  16    0.44    0.59
  -1  -3  15    3.02    2.61
  -1  -3  14   26.22    8.23
  -1  -3  13   60.81   12.19
  -1  -3  12    3.59    2.70
  -1  -3  11   21.37    6.80
  -1  -3  10    5.57    3.88
  -1  -3   9  150.61   17.19
  -1  -3   8   78.37    8.62
  -1  -3   8   75.04   11.46
  -1  -3   7   23.09    4.29
  -1  -3   7   19.19    5.51
  -1  -3   6   57.67    6.26
  -1  -3   6   64.35    9.40
  -1  -3   5   62.91    8.53
   1   3  -5   56.96    2.52
  -1  -3   5   70.17    6.09
  -1  -3   4  362.02   12.32
  -1  -3   4  400.07   19.14
   1   3  -4  355.30    9.17
   1   3  -3  110.99    6.90
   1   3  -3  103.18    5.96
  -1  -3   3  107.41    8.42
   1   3  -3   81.28    8.07
  -1  -3   3  107.26    5.85
  -1  -3   2  123.91    5.57
   1   3  -2  126.75    5.87
   1   3  -2  110.55    8.05
  -1  -3   2  119.57    7.34
  -1  -3   1   87.85    4.27
  -1  -3   1   91.17    5.09
   1   3  -1   89.19    5.96
   1   3  -1   90.13    4.40
   1   3   0  120.85    4.80
  -1  -3   0  123.73    4.71
   1   3   0  122.70    5.48
  -1  -3   0  118.69    4.55
   1   3   1  522.18    9.66
   1   3   1  519.32    8.71
  -1  -3  -1  554.19    8.02
   1   3   1  557.33   13.65
  -1  -3  -2   38.68    2.82
   1   3   2   33.94    4.33
   1   3   2   32.90    1.81
   1   3   2   34.17    3.28
   1   3   3  141.77    6.81
   1   3   3  119.23    6.43
   1   3   3  132.20    3.50
  -1  -3  -3  136.14    5.63
   1   3   4   76.57    4.30
  -1  -3  -4   84.26    4.76
  -1  -3  -5  196.86    8.17
   1   3   5  192.89    7.92
   1   3   5  190.79    5.77
   1   3   6  464.49   12.02
  -1  -3  -6  484.78   14.15
   1   3   6  456.05    7.77
   1   3   7    2.77    0.58
  -1  -3  -7    3.31    1.32
   1   3   7    3.69    1.15
  -1  -3  -8   87.77    7.36
   1   3   8   99.50    9.77
  -1  -3  -9   15.49    3.41
   1   3   9   24.31    5.57
   1   3   9   18.97    5.20
  -1  -3 -10  136.11   10.86
   1   3  10  142.97   14.71
   1   3  11  374.05   21.91
   1   3  11  352.36   23.90
   1   3  12    9.72    4.62
   1   3  12    5.21    2.51
  -1  -3 -12    3.27    2.11
  -1  -3 -13   27.22    6.08
   1   3  13   38.44    6.66
  -1  -3 -14    2.28    2.25
   1   3  14    1.84    1.95
   1   3  14    3.68    2.11
   1   3  15  102.27   10.33
  -1  -3 -15   83.82   11.45
   1   3  16  156.03   17.70
  -1  -3 -16   99.10   13.20
   1   3  17   13.02    4.88
  -1  -3 -17   13.40    5.44
   1   3  18   16.71    5.82
  -1  -3 -18   15.66    6.25
  -1  -3 -19    3.09    2.67
   1   3  19    1.12    1.36
  -1  -3 -20   46.41   10.21
   1   3  20   62.28   11.67
   1   3  21   45.13   10.21
   1   3  22   10.78    4.49
  -1  -4  18   24.85    7.67
  -1  -4  17    3.65    3.28
  -1  -4  16   21.38    7.42
  -1  -4  15   39.91    9.71
  -1  -4  14  242.06   24.44
  -1  -4  13   34.80    9.34
  -1  -4  12   14.74    6.08
  -1  -4  11   20.10    6.96
  -1  -4  10   26.81    7.72
  -1  -4   9  327.61   25.53
  -1  -4   8   16.18    5.05
  -1  -4   8   12.41    3.20
  -1  -4   7   40.31    7.95
   1   4  -7   22.63    7.01
  -1  -4   7   36.80    5.23
  -1  -4   6    2.00    1.80
   1   4  -6    4.41    0.91
   1   4  -6    6.12    3.53
  -1  -4   5   27.94    3.85
   1   4  -5   24.57    6.31
  -1  -4   5   41.87    7.21
   1   4  -5   33.39    3.48
  -1  -4   4  418.13   13.21
   1   4  -4  344.01   21.99
  -1  -4   3    2.91    1.46
   1   4  -3    2.15    1.02
  -1  -4   3    4.33    1.20
   1   4  -3    3.51    2.21
  -1  -4   2   18.18    3.15
   1   4  -2   16.90    2.29
   1   4  -2   15.52    3.62
  -1  -4   2   15.76    2.11
  -1  -4   1    6.99    1.33
   1   4  -1    6.38    1.94
   1   4  -1    7.06    1.37
  -1  -4   1   12.65    2.05
   1   4   0   30.40    3.65
  -1  -4   0   30.41    2.65
   1   4   0   31.80    2.77
   1   4   1  335.32   16.09
  -1  -4  -1  360.19    7.46
   1   4   1  332.24    9.82
   1   4   1  356.04    9.02
   1   4   2    6.75    1.78
   1   4   2    6.47    1.04
  -1  -4  -2    7.56    1.43
   1   4   2    5.40    1.81
  -1  -4  -2    9.14    1.02
  -1  -4  -3    3.17    0.91
   1   4   3    4.52    1.42
   1   4   3    2.81    1.04
   1   4   3    3.09    0.61
   1   4   4    3.37    0.60
  -1  -4  -4    3.95    1.13
   1   4   4    4.17    1.25
   1   4   4    3.74    1.27
   1   4   5   62.73    5.48
  -1  -4  -5   67.39    4.83
   1   4   5   60.58    4.50
   1   4   6  274.59   11.70
   1   4   6  284.65    8.66
  -1  -4  -6  285.58   10.73
   1   4   6  281.48   11.44
   1   4   7    0.22    0.67
   1   4   7    0.09    0.11
  -1  -4  -7    0.39    0.62
   1   4   8    4.31    2.27
  -1  -4  -8    5.36    1.60
   1   4   8    5.91    1.71
   1   4   8    4.22    0.89
  -1  -4  -9    1.25    1.20
   1   4   9    1.18    0.77
   1   4   9    3.08    1.55
   1   4  10   63.46    9.57
  -1  -4 -10   51.36    6.19
   1   4  11  190.33   17.06
  -1  -4 -11  133.13   10.90
   1   4  12    0.97    1.43
  -1  -4 -12    0.32    0.92
   1   4  13    6.99    4.22
  -1  -4 -13    2.60    1.97
   1   4  14    2.37    2.16
  -1  -4 -14    0.98    1.55
   1   4  15   43.71    8.94
  -1  -4 -15   25.70    6.10
   1   4  16   79.46   12.54
  -1  -4 -16   53.40    9.01
   1   4  17    1.68    1.99
  -1  -4 -17    2.02    1.13
  -1  -4 -18    3.17    1.46
   1   4  18    5.69    3.77
   1   4  19    0.54    0.94
  -1  -4 -19    1.12    1.99
  -1  -4 -20   15.66    5.85
   1   4  20   13.42    5.31
   1   4  21   27.73    7.83
  -1  -5  17    8.45    4.79
  -1  -5  16   24.62    7.96
  -1  -5  15    2.87    2.21
  -1  -5  14   14.11    5.91
  -1  -5  13   53.14   10.98
  -1  -5  12   13.56    5.71
  -1  -5  11   60.30   11.80
  -1  -5  10    2.64    2.25
  -1  -5   9   39.41    9.02
  -1  -5   8   68.69   11.28
  -1  -5   7    4.52    1.83
   1   5  -7    5.09    1.12
  -1  -5   7    3.96    2.58
  -1  -5   6   62.25    6.24
   1   5  -6   57.74   11.95
  -1  -5   6   82.93   11.02
   1   5  -6   57.80    5.01
  -1  -5   5   16.24    2.91
   1   5  -5   19.25    6.66
  -1  -5   5   18.04    4.87
  -1  -5   4   77.09    8.80
  -1  -5   4   63.95    5.26
  -1  -5   3   84.27    8.08
   1   5  -3   59.62    5.24
  -1  -5   3   66.08    4.99
   1   5  -3   56.29    9.48
  -1  -5   2    1.59    0.78
   1   5  -2    1.68    0.79
  -1  -5   2    1.96    1.11
   1   5  -2    3.04    2.06
   1   5  -1   64.29    8.08
  -1  -5   1   71.62    5.36
  -1  -5   1   69.82    4.57
   1   5  -1   73.89    4.98
  -1  -5   0   27.43    2.77
   1   5   0   26.95    2.85
   1   5   0   29.60    4.73
   1   5   0   32.64    5.85
   1   5   1   99.49    9.81
  -1  -5  -1  112.06    4.67
   1   5   1  105.42    7.64
   1   5   1  123.15    5.93
   1   5   2   72.64    7.57
  -1  -5  -2   72.62    3.23
   1   5   2   68.55    4.39
   1   5   2   70.26    5.10
   1   5   3    1.60    0.95
   1   5   3    3.48    1.52
  -1  -5  -3    1.54    0.75
   1   5   3    2.58    0.77
  -1  -5  -3    2.36    1.21
   1   5   4   92.00    7.57
   1   5   4   83.54    3.41
   1   5   4   76.88    6.57
  -1  -5  -4   80.73    5.41
  -1  -5  -5   37.13    3.81
   1   5   5   39.01    4.35
   1   5   5   41.12    5.09
   1   5   5   33.94    1.93
  -1  -5  -6  157.70    8.21
   1   5   6  151.99    7.95
   1   5   6  147.13    4.11
   1   5   6  162.81   10.17
   1   5   6  160.49   10.04
   1   5   7   61.56    4.64
   1   5   7   62.28    6.36
   1   5   7   61.53    6.11
  -1  -5  -7   65.67    5.57
   1   5   8   16.21    3.28
   1   5   8   15.36    2.24
   1   5   8   14.10    3.40
   1   5   8   15.06    3.01
  -1  -5  -8   14.54    2.83
  -1  -5  -9   89.46    7.47
   1   5   9   98.57   10.65
   1   5   9   89.92    8.05
   1   5   9   89.34    5.11
   1   5   9   95.68    7.57
   1   5  10   46.10    5.87
   1   5  10   48.31    5.57
   1   5  10   40.17    3.26
  -1  -5 -10   42.56    5.45
   1   5  11  142.60   10.69
  -1  -5 -11  157.48   11.35
   1   5  12  101.55   12.35
  -1  -5 -12   40.00    6.11
   1   5  13   56.75    9.46
  -1  -5 -13   28.01    5.29
  -1  -5 -14   61.96    8.55
   1   5  14  140.72   15.40
   1   5  15   72.27   11.27
  -1  -5 -15   32.43    6.58
  -1  -5 -16   98.40   11.96
   1   5  16  220.17   19.92
   1   5  17   24.63    6.81
  -1  -5 -17   11.69    4.00
   1   5  18   50.31    9.85
  -1  -5 -18   26.16    6.79
   1   5  19   43.36    9.07
  -1  -5 -19   17.85    5.51
  -1  -5 -20   24.63    6.82
  -1  -6  16    3.49    2.49
  -1  -6  15   63.11   12.75
  -1  -6  14   -3.80    4.27
  -1  -6  13  124.04   17.59
  -1  -6  12   13.57    8.21
  -1  -6  11    0.12    1.07
  -1  -6  10  100.27   14.82
  -1  -6   9    0.48    0.41
   1   6  -8  147.92    6.12
  -1  -6   8  187.03   18.55
   1   6  -7    2.24    0.91
  -1  -6   7    3.26    1.59
  -1  -6   6    7.79    2.00
  -1  -6   6   12.71    4.49
   1   6  -6    8.76    2.50
   1   6  -5  126.97   18.72
  -1  -6   5  118.35    8.01
  -1  -6   5  146.46   13.45
   1   6  -4   14.20    5.38
  -1  -6   4   21.58    3.17
  -1  -6   4   26.21    5.30
   1   6  -3  188.33   20.71
  -1  -6   3  212.75    9.52
  -1  -6   3  240.78   16.48
  -1  -6   3  265.61   14.58
   1   6  -3  211.46   10.40
  -1  -6   2    6.54    2.06
   1   6  -2    4.95    3.31
   1   6  -2    6.18    1.57
  -1  -6   2    6.45    1.59
   1   6  -1   29.20    6.51
  -1  -6   1   32.90    3.82
   1   6  -1   21.80    5.77
   1   6  -1   27.59    3.48
   1   6  -1   30.39    3.40
   1   6   0   58.49    8.68
   1   6   0   64.64    4.80
  -1  -6   0   63.33    4.50
   1   6   0   59.26    8.84
   1   6   0   60.77    5.10
   1   6   1   64.70    5.26
   1   6   1   60.86    7.89
  -1  -6  -1   68.94    4.00
   1   6   1   57.41    8.06
   1   6   1   70.15    4.92
   1   6   2  142.56   11.88
  -1  -6  -2  167.53    5.32
  -1  -6  -2  169.81   11.13
   1   6   2  155.33   10.93
   1   6   2  167.92    7.49
   1   6   2  167.64    8.59
   1   6   3   72.86    5.76
   1   6   3   66.89    5.92
  -1  -6  -3   68.84    6.96
   1   6   3   65.97    7.43
   1   6   3   67.89    4.73
   1   6   4   16.27    2.84
  -1  -6  -4   16.99    2.67
   1   6   4   15.73    3.44
   1   6   4   17.05    2.34
  -1  -6  -5   13.34    2.42
   1   6   5   11.11    2.37
   1   6   5   12.58    2.93
   1   6   5   14.64    3.44
   1   6   5   12.32    1.54
   1   6   6   94.11    8.78
   1   6   6  100.10    3.49
   1   6   6   97.72    7.48
   1   6   6  111.53    9.56
  -1  -6  -6   96.67    6.79
  -1  -6  -7   53.40    5.21
   1   6   7   54.61    6.78
   1   6   7   50.91    5.05
   1   6   7   49.98    2.32
   1   6   7   57.61    5.34
   1   6   7   56.55    6.58
  -1  -6  -8  101.80    7.58
   1   6   8   95.65    3.47
   1   6   8  104.39    6.87
   1   6   8  112.03    9.19
   1   6   8  114.12    9.82
   1   6   9    3.94    1.76
   1   6   9    1.73    0.87
   1   6   9    3.44    1.80
   1   6   9    1.56    0.53
  -1  -6  -9   -0.27    0.84
   1   6  10   -0.33    0.87
   1   6  10    1.33    1.73
  -1  -6 -10    0.64    0.95
   1   6  10    1.07    1.57
   1   6  10    1.02    0.32
   1   6  11   50.95    6.34
  -1  -6 -11   53.59    6.51
   1   6  11   44.97    4.01
  -1  -6 -12   12.35    3.34
   1   6  12   25.43    5.93
   1   6  13  162.49   15.00
  -1  -6 -13   74.57    8.60
   1   6  14   10.98    3.67
  -1  -6 -14    3.76    2.20
   1   6  15    1.33    1.51
  -1  -6 -15   -0.22    1.13
  -1  -6 -16   10.06    3.79
   1   6  16   21.57    6.00
  -1  -6 -17    1.09    0.59
   1   6  17    3.93    2.99
  -1  -6 -18   16.69    5.29
  -1  -6 -19    1.19    2.21
  -1  -7  15    3.88    2.56
  -1  -7  14   -4.56    3.32
  -1  -7  13    0.12    1.36
  -1  -7  12   54.64   11.27
  -1  -7  11   -0.47    1.20
  -1  -7  10   34.16    8.38
  -1  -7   9    3.67    2.73
   1   7  -8   15.70    2.48
  -1  -7   8   25.84    6.75
  -1  -7   7  123.13   14.18
   1   7  -7   96.76    7.68
  -1  -7   6   30.94    6.71
   1   7  -6   21.79    4.29
  -1  -7   5  142.79   13.18
  -1  -7   4   20.06    4.36
  -1  -7   4   26.15    6.18
  -1  -7   4   17.67    2.94
   1   7  -4   28.36    9.46
  -1  -7   3   82.68    6.24
   1   7  -3   99.26   16.71
  -1  -7   3   97.37    8.96
  -1  -7   3   99.66   11.48
   1   7  -3   74.76    6.53
  -1  -7   2  177.88   10.53
   1   7  -2  160.38    9.12
   1   7  -2  155.10   20.26
  -1  -7   2  177.57   14.73
  -1  -7   1  135.88   12.42
   1   7  -1  119.29    7.54
  -1  -7   1  129.92    7.91
  -1  -7   0  162.29    7.49
  -1  -7   0  169.60   13.19
   1   7   0  156.21    8.22
  -1  -7  -1   68.49    8.07
   1   7   1   62.72    5.09
  -1  -7  -1   60.25    3.98
   1   7   2  155.63    7.89
  -1  -7  -2  168.89   12.37
  -1  -7  -2  152.39    5.49
   1   7   3  103.39    6.29
   1   7   3   94.54    9.83
  -1  -7  -3  110.66    9.57
   1   7   4  173.51   11.69
   1   7   4  169.30   12.45
   1   7   4  167.60    8.12
   1   7   5   94.28    8.90
  -1  -7  -5  102.80    7.32
  -1  -7  -6   98.98    7.34
   1   7   6   98.03    8.48
   1   7   6  111.57   10.50
   1   7   7  101.25    9.84
  -1  -7  -7  102.61    7.66
   1   7   7   97.23    7.97
   1   7   8   39.41    5.94
   1   7   8   37.73    4.77
  -1  -7  -8   40.90    4.98
   1   7   9  152.26   11.85
  -1  -7  -9  146.09    9.81
   1   7   9  140.69    8.75
   1   7  10   24.10    3.21
   1   7  10   22.04    4.50
   1   7  10   22.89    3.50
  -1  -7 -10   19.55    3.73
   1   7  10   20.50    1.55
   1   7  11   77.18    8.45
   1   7  11   71.59    5.90
   1   7  11   90.50    7.34
   1   7  11   62.63    3.15
  -1  -7 -11   67.78    7.48
  -1  -7 -12   39.26    5.90
   1   7  12   34.65    5.74
   1   7  12   55.30    6.40
   1   7  12   35.97    4.00
  -1  -7 -13    7.77    2.76
   1   7  13   11.07    3.00
  -1  -7 -14   60.67    8.12
   1   7  14  104.58   10.14
  -1  -7 -15    3.29    1.86
  -1  -7 -16   42.09    7.50
  -1  -7 -17   10.98    4.04
  -1  -7 -18    0.47    0.97
  -1  -8  14    3.83    1.78
  -1  -8  13   21.67    6.90
  -1  -8  12   19.76    6.52
  -1  -8  11    6.61    3.62
  -1  -8  10   18.72    6.08
  -1  -8   9   -0.19    4.79
  -1  -8   8   46.64    9.12
  -1  -8   7    7.14    3.84
  -1  -8   7    8.17    3.44
   1   8  -6   11.21    3.36
  -1  -8   6   17.49    4.63
  -1  -8   6   15.83    5.50
  -1  -8   5   18.04    4.64
  -1  -8   5   13.84    4.91
  -1  -8   4    4.52    2.95
  -1  -8   4    1.34    1.32
  -1  -8   3   38.32    7.82
  -1  -8   3   38.89    5.53
   1   8  -3   33.57    4.73
   1   8  -3   43.90   11.21
   1   8  -2    6.16    4.03
  -1  -8   2    6.69    3.09
   1   8  -2    3.56    1.51
  -1  -8   2    4.73    1.72
  -1  -8   1    9.72    3.43
   1   8  -1    9.59    2.33
   1   8  -1    8.55    5.05
  -1  -8   1    9.94    2.23
   1   8   0    5.81    3.87
   1   8   0    9.67    2.31
  -1  -8   0    7.85    2.82
  -1  -8   0    7.61    1.74
  -1  -8  -1   13.24    3.70
  -1  -8  -1    7.26    1.43
   1   8   1    9.98    2.17
   1   8   1    9.62    4.30
  -1  -8  -2   20.29    2.08
   1   8   2   21.49    5.68
   1   8   2   20.34    3.04
  -1  -8  -2   22.04    4.81
   1   8   3    5.86    1.69
  -1  -8  -3    5.39    2.35
  -1  -8  -4   -0.69    1.38
   1   8   4    1.24    0.72
   1   8   5    4.04    1.23
   1   8   5    5.97    1.65
   1   8   6   24.02    5.27
  -1  -8  -6   22.73    3.70
  -1  -8  -7   10.00    2.56
   1   8   7   11.58    3.71
   1   8   8    5.36    1.97
  -1  -8  -8    6.39    2.08
  -1  -8  -9    0.72    0.70
   1   8   9    0.72    0.34
   1   8  10    4.10    1.67
  -1  -8 -10    3.58    1.74
   1   8  10    3.40    1.41
   1   8  11   27.09    5.44
  -1  -8 -11   23.15    4.40
  -1  -8 -12    6.42    2.28
   1   8  12    7.07    2.96
  -1  -8 -13    1.58    1.26
  -1  -8 -14    3.36    1.92
  -1  -8 -15    2.53    2.03
  -1  -8 -16    7.74    3.14
  -1  -8 -17   -0.34    0.98
  -1  -9  13    4.63    4.43
  -1  -9  12    6.81    4.38
  -1  -9  12    6.42    3.66
  -1  -9  11    1.27    2.30
  -1  -9  11   -0.19    2.03
  -1  -9  10   35.00    9.24
  -1  -9  10   25.50    7.23
  -1  -9   9    1.33    1.47
  -1  -9   9    4.03    3.07
  -1  -9   8    5.43    2.69
  -1  -9   8    7.65    3.88
  -1  -9   7    7.05    3.60
  -1  -9   7    5.70    2.55
  -1  -9   6    2.62    2.37
  -1  -9   6   -0.27    1.64
  -1  -9   5   46.19    7.29
  -1  -9   5   54.75   10.40
  -1  -9   4    8.58    4.23
  -1  -9   4    7.64    2.57
  -1  -9   3    7.28    3.35
  -1  -9   3    8.19    2.65
  -1  -9   2    7.63    3.60
  -1  -9   2    6.20    2.12
   1   9  -2    6.38    2.09
   1   9  -1    0.72    0.81
  -1  -9   1    1.68    2.26
  -1  -9   1    2.24    1.19
   1   9   0   49.00    5.42
  -1  -9   0   41.76    4.12
  -1  -9   0   43.69    7.87
  -1  -9  -1   11.05    3.78
  -1  -9  -1   12.13    1.93
   1   9   1   10.67    2.39
   1   9   2    7.70    1.97
  -1  -9  -2    6.93    1.27
  -1  -9  -2    8.29    3.29
   1   9   3    9.87    2.22
  -1  -9  -3    8.90    3.30
   1   9   4   -0.87    1.31
   1   9   4    0.83    0.80
   1   9   5   55.11    9.14
   1   9   5   45.37    4.84
   1   9   6    8.86    2.17
   1   9   6    9.95    3.66
   1   9   7    5.83    2.61
  -1  -9  -7   12.54    3.03
   1   9   8   15.79    4.26
  -1  -9  -8   16.20    3.46
   1   9   9    1.87    0.82
  -1  -9  -9   -0.37    0.48
   1   9  10   58.04    8.60
  -1  -9 -10   61.63    7.14
   1   9  11    8.37    3.40
  -1  -9 -11    6.76    2.61
  -1  -9 -12   21.85    4.54
   1   9  12   25.95    5.71
  -1  -9 -13   14.82    3.94
   1   9  13   16.03    4.51
  -1  -9 -14    3.04    1.39
  -1  -9 -15   47.89    7.60
  -1  -9 -16    9.56    3.49
  -1 -10  11    2.35    1.08
  -1 -10  10    1.17    0.38
  -1 -10  10    3.53    3.05
  -1 -10   9   17.03    6.55
  -1 -10   9   16.36    5.30
  -1 -10   8   -0.23    1.73
  -1 -10   8    2.64    1.72
  -1 -10   7   17.70    5.23
  -1 -10   7   18.19    6.24
  -1 -10   6   15.88    5.99
  -1 -10   6   10.65    3.64
  -1 -10   5   13.97    5.69
  -1 -10   5   18.10    4.46
  -1 -10   4   36.67    8.60
  -1 -10   4   30.83    5.37
  -1 -10   3    0.17    1.11
  -1 -10   3    0.03    0.54
   1  10  -2   26.78    4.64
  -1 -10   2   27.41    4.15
  -1 -10   2   27.36    7.12
   1  10  -1    2.16    1.17
  -1 -10   1    3.61    1.39
  -1 -10   0   26.80    6.58
   1  10   0   23.97    3.95
  -1 -10   0   25.76    3.21
   1  10   1   15.71    3.17
  -1 -10  -1   19.33    5.61
   1  10   2    5.84    1.93
  -1 -10  -2    9.04    3.77
  -1 -10  -3   23.43    5.63
   1  10   3   11.41    4.91
   1  10   3   15.04    2.95
   1  10   4    1.37    0.37
   1  10   4   -0.25    2.33
   1  10   5   24.99    3.81
   1  10   5   31.21    7.32
   1  10   6   -0.36    0.70
   1  10   6    0.85    0.87
   1  10   7   15.48    3.07
   1  10   7   14.75    4.70
   1  10   8    2.61    0.98
   1  10   8    1.84    1.70
   1  10   9   12.04    4.39
  -1 -10  -9   16.76    3.75
  -1 -10 -10   14.37    3.68
   1  10  10   14.54    4.61
  -1 -10 -11    2.08    1.51
   1  10  11    3.29    2.26
   1  10  12    8.38    3.38
  -1 -10 -12    9.22    2.90
  -1 -10 -13    1.30    1.87
   1  10  13    2.35    2.64
  -1 -10 -14    5.57    2.57
  -1 -10 -15   -1.20    1.24
  -1 -11   6   32.47    8.89
  -1 -11   5    2.76    1.63
  -1 -11   4   67.39   12.59
  -1 -11   3    5.35    3.74
  -1 -11   2   26.70    7.66
  -1 -11   1   52.50   10.05
   1  11  -1   43.78    5.99
  -1 -11   0   27.00    7.22
   1  11   0   23.72    4.28
  -1 -11  -1   76.53   11.58
   1  11   1   67.14    6.96
   1  11   1   62.12   12.44
  -1 -11  -2    5.55    3.09
   1  11   2    4.63    3.39
   1  11   2    2.46    1.08
   1  11   3   34.84    8.99
  -1 -11  -3   52.25    9.07
   1  11   3   44.66    5.52
   1  11   4   26.59    4.23
   1  11   4   33.39    8.54
   1  11   5   46.16    5.48
   1  11   5   44.23    9.36
   1  11   6   40.10    5.16
   1  11   6   47.88    9.54
   1  11   7    9.70    3.59
   1  11   7   13.10    2.97
   1  11   8   26.86    4.27
   1  11   8   32.24    7.55
   1  11   9    7.88    3.94
   1  11   9    7.30    2.19
   1  11  10   32.64    4.97
   1  11  10   50.36    9.33
   1  11  11   10.70    4.37
  -1 -11 -11   13.65    3.78
  -1 -11 -12   13.82    3.96
   1  11  12   21.02    6.18
   1  11  13   11.72    4.49
   1  12   0   -0.35    2.51
  -1 -12   0   -0.55    1.94
  -1 -12  -1    3.10    2.16
   1  12   1    5.86    4.28
  -1 -12  -2   -1.51    1.66
   1  12   2   -2.07    4.38
   1  12   3   -2.36    2.70
   1  12   4    2.20    2.61
   1  12   5   -0.13    1.18
   1  12   6    5.22    2.71
   1  12   7   -0.53    2.04
   1  12   8   -0.92    2.26
   1  12   9    1.58    1.77
   1  12  10    2.73    2.38
   1  12  11   -0.65    0.73
   2 -11  -5    8.30    3.31
   2 -11  -4    6.75    3.34
   2 -11  -3    1.31    1.49
   2 -10 -13   -1.96    1.45
   2 -10 -12    6.79    2.70
   2 -10 -11    2.03    1.70
  -2  10   9    7.19    4.99
  -2  10   8    4.92    3.15
  -2  10   7    9.48    5.14
   2 -10  -6    0.91    1.17
  -2  10   6    6.32    4.45
   2 -10  -5    7.42    3.14
  -2  10   5   10.02    5.03
  -2  10   4    3.25    2.73
   2 -10  -4    0.75    1.07
   2 -10  -3    1.52    1.13
  -2  10   3    3.57    2.71
   2 -10  -2    3.69    2.83
  -2  10   2   -2.23    3.00
  -2  10   1   -0.32    1.57
   2 -10  -1    0.57    0.66
   2 -10   0    3.46    2.86
  -2  10   0    2.57    2.25
   2 -10   1    8.43    3.92
  -2  10  -1    6.49    3.60
  -2  10  -2    1.13    2.28
   2 -10   2    2.03    2.45
  -2  10  -3   -1.17    3.61
   2 -10   3    4.17    3.10
  -2  10  -4    2.09    3.05
  -2  10  -5    6.26    4.65
  -2  10  -6   -0.17    3.01
   2  -9 -15   13.41    3.93
   2  -9 -14    5.52    2.46
   2  -9 -13    7.42    2.67
   2  -9 -12   38.74   10.03
   2  -9 -12   18.71    4.24
   2  -9 -11    6.91    2.39
   2  -9 -11    4.96    2.76
   2  -9 -10   87.78   14.90
   2  -9 -10   49.39    6.52
   2  -9  -9   14.82    3.45
  -2   9   9   19.36    6.58
   2  -9  -9   19.46    6.89
  -2   9   8   27.66    7.86
   2  -9  -8   34.53    9.36
  -2   9   7   52.87   10.52
   2  -9  -7   63.31   12.35
   2  -9  -6    1.47    1.92
   2  -9  -6    0.74    0.97
  -2   9   6    3.72    2.97
   2  -9  -5  165.15   14.04
   2  -9  -5  184.70   20.73
  -2   9   5  133.72   17.03
   2  -9  -4   17.42    6.65
   2  -9  -4   14.75    4.22
  -2   9   4   16.00    5.67
  -2   9   3   76.14   13.07
   2  -9  -3  100.31   11.55
   2  -9  -2   75.91   10.58
  -2   9   2   56.98   11.68
  -2   9   1   -0.31    1.80
   2  -9  -1    1.43    1.69
  -2   9   0  139.85   18.82
   2  -9   0  204.67   18.92
   2  -9   1    1.34    1.77
  -2   9  -1    1.81    2.82
  -2   9  -2   89.65   15.81
   2  -9   2   98.74   13.90
  -2   9  -3   15.91    6.98
  -2   9  -4    4.11    2.01
  -2   9  -5   77.22   15.64
  -2   9  -6    0.75    1.45
  -2   9  -7   34.35   10.00
   2  -9   7   62.90   11.15
   2  -9   8    1.11    0.80
  -2   9  -8   -2.29    4.90
   2  -9   9    7.62    4.27
  -2   9  -9    1.54    1.98
  -2   9 -10   34.40   10.94
   2  -9  10   36.19    8.94
  -2   9 -11    9.56    5.61
   2  -8 -16    0.77    1.47
   2  -8 -15   16.23    4.29
   2  -8 -14    2.84    2.00
   2  -8 -13   23.03    4.73
   2  -8 -13   41.33    9.38
   2  -8 -12    3.64    1.90
   2  -8 -12    3.61    2.77
   2  -8 -11    0.17    0.72
   2  -8 -11   -0.50    2.79
   2  -8 -10   22.11    4.12
   2  -8 -10   27.08    7.40
   2  -8  -9    0.06    0.76
   2  -8  -9    0.83    1.41
  -2   8   9    3.91    3.46
   2  -8  -8   34.75    4.87
  -2   8   8   37.24    8.17
   2  -8  -8   50.97   10.43
   2  -8  -7    0.96    1.27
   2  -8  -7    0.87    0.87
  -2   8   7   -0.12    2.18
   2  -8  -7    0.24    0.47
   2  -8  -6   -1.97    2.71
   2  -8  -6    0.39    0.43
  -2   8   6    1.70    2.12
  -2   8   6    0.18    0.24
   2  -8  -5   11.03    3.32
   2  -8  -5    8.89    3.81
  -2   8   5   10.41    1.84
  -2   8   5    9.78    4.36
  -2   8   4    1.07    0.60
   2  -8  -4    0.78    0.43
  -2   8   4    0.44    1.38
   2  -8  -4    0.67    1.87
  -2   8   3   12.75    5.08
  -2   8   3   11.36    1.83
   2  -8  -3   15.61    4.31
   2  -8  -3   15.11    5.29
   2  -8  -2    0.64    0.81
   2  -8  -2    1.71    1.97
  -2   8   2    1.44    0.59
  -2   8   2    1.47    0.42
   2  -8  -1   13.65    4.24
  -2   8   1    7.54    3.74
   2  -8  -1    9.86    4.06
  -2   8   0   -0.34    1.91
   2  -8   0    1.66    1.08
   2  -8   0    1.36    0.41
  -2   8  -1    2.85    1.07
   2  -8   1    1.55    1.26
   2  -8   2    0.24    0.60
  -2   8  -2    1.86    0.35
  -2   8  -3   -6.59    3.99
   2  -8   3   -3.32    2.07
   2  -8   4   36.50    7.45
  -2   8  -4   26.60    7.83
   2  -8   5    1.57    0.74
  -2   8  -5   -2.45    3.31
  -2   8  -6    6.42    4.66
   2  -8   6   10.20    4.20
  -2   8  -7    4.04    3.37
   2  -8   7    7.85    3.62
   2  -8   8   -1.09    2.44
  -2   8  -8   -3.73    4.50
  -2   8  -9   30.68    9.51
   2  -8   9   31.55    8.60
  -2   8 -10   -1.22    1.02
   2  -8  10   -2.73    2.29
   2  -8  11    9.68    5.26
  -2   8 -11    6.22    4.70
  -2   8 -12    3.18    2.76
   2  -8  12    2.41    0.51
   2  -7 -17   10.40    3.91
   2  -7 -16    6.87    3.12
   2  -7 -15    2.58    2.27
   2  -7 -14   24.50    5.16
   2  -7 -13    3.10    1.60
   2  -7 -13   -0.75    1.95
   2  -7 -12   17.10    3.93
   2  -7 -12   17.43    5.69
   2  -7 -11    6.00    2.98
   2  -7 -11   11.76    3.00
   2  -7 -10    5.60    2.84
   2  -7 -10    4.77    1.72
   2  -7  -9   14.99    3.25
   2  -7  -9   15.29    5.09
  -2   7   8   14.36    4.76
   2  -7  -8   10.73    2.57
   2  -7  -8    8.45    3.53
   2  -7  -7   10.63    2.72
   2  -7  -7    9.22    3.82
  -2   7   7   10.15    4.41
   2  -7  -7   10.61    2.46
   2  -7  -6    0.57    0.80
   2  -7  -6    1.53    0.97
  -2   7   6    1.13    2.37
   2  -7  -6    0.79    0.65
   2  -7  -5    2.54    1.72
   2  -7  -5    1.29    0.82
  -2   7   5    3.24    2.24
  -2   7   5    2.56    0.85
  -2   7   4    3.76    2.37
   2  -7  -4    0.40    1.51
  -2   7   4    3.61    0.96
   2  -7  -4    2.69    1.52
  -2   7   3   17.14    5.44
  -2   7   3   19.73    2.21
   2  -7  -3   26.21    5.09
   2  -7  -3   20.38    5.69
  -2   7   2   -0.17    2.20
   2  -7  -2    4.34    1.67
  -2   7   2    3.41    0.95
   2  -7  -2    3.11    2.25
   2  -7  -2    3.13    0.73
  -2   7   1    2.18    0.82
   2  -7  -1    2.05    0.99
  -2   7   1    1.23    0.62
   2  -7  -1    0.88    1.50
   2  -7  -1    4.47    2.54
  -2   7   0    0.79    0.19
   2  -7   0    1.26    1.03
   2  -7   0    2.07    1.44
   2  -7   1    2.86    1.58
  -2   7  -1    1.18    0.85
   2  -7   1    0.76    0.32
   2  -7   2   18.81    4.61
  -2   7  -2   13.14    4.97
  -2   7  -3    1.41    2.36
   2  -7   3    6.41    2.81
   2  -7   4    3.34    1.96
  -2   7  -4    1.62    2.64
   2  -7   5    2.42    1.93
  -2   7  -5    2.69    1.41
   2  -7   6    9.91    4.44
  -2   7  -6    8.92    4.24
   2  -7   7   21.32    6.70
  -2   7  -7   11.00    5.22
   2  -7   8   16.41    5.86
  -2   7  -8    2.69    1.18
  -2   7  -9   -0.80    0.88
   2  -7   9    0.04    1.48
   2  -7  10   24.38    7.85
  -2   7 -10   11.24    5.90
   2  -7  11   13.63    5.22
  -2   7 -11   11.26    5.47
   2  -7  12   36.64    9.49
  -2   7 -12   32.88    9.56
   2  -7  13   17.22    6.87
   2  -6 -18   -0.61    1.50
   2  -6 -17   -1.05    1.30
   2  -6 -16    7.21    3.25
   2  -6 -15   34.33    6.47
   2  -6 -14   18.48    4.48
   2  -6 -14   39.20    7.50
   2  -6 -13    4.68    1.91
   2  -6 -13   10.40    3.84
   2  -6 -12    5.47    2.73
   2  -6 -12    4.28    1.98
   2  -6 -11   15.50    3.40
   2  -6 -11   13.77    4.20
   2  -6 -10   72.76    7.12
   2  -6 -10   81.86   10.81
   2  -6  -9   43.57    5.24
   2  -6  -9   51.35    8.43
  -2   6   8    4.49    2.67
   2  -6  -8    2.20    1.12
   2  -6  -8    2.48    1.59
   2  -6  -7    3.71    1.35
   2  -6  -7    4.69    1.64
  -2   6   7    4.82    3.09
   2  -6  -7    2.33    1.41
   2  -6  -6   15.92    2.75
   2  -6  -6   18.41    3.43
  -2   6   6   17.40    5.00
   2  -6  -6   13.74    4.17
   2  -6  -5   56.49    6.35
  -2   6   5   54.91    5.95
  -2   6   5   49.46    8.17
   2  -6  -5   50.50    4.75
   2  -6  -5   55.48    8.61
  -2   6   4   50.39    5.39
   2  -6  -4   57.06    6.63
  -2   6   4   44.26    8.01
   2  -6  -4   55.53    8.48
  -2   6   4   48.41    3.35
   2  -6  -3    4.26    2.06
  -2   6   3    6.37    1.17
   2  -6  -3    8.10    2.78
  -2   6   3    4.55    1.49
  -2   6   3    9.95    3.30
   2  -6  -2    1.14    0.77
  -2   6   2    0.09    0.27
  -2   6   2    1.44    2.13
  -2   6   2    0.61    0.58
   2  -6  -2    1.05    0.57
  -2   6   1    0.38    0.39
  -2   6   1   -1.49    2.87
   2  -6  -1   -0.51    0.65
  -2   6   1   -0.12    0.26
   2  -6  -1    0.43    0.50
   2  -6   0    6.65    1.96
  -2   6   0    6.17    1.50
  -2   6   0    4.32    2.50
   2  -6   0    9.49    3.58
   2  -6   1   32.62    6.02
  -2   6  -1   25.97    3.36
  -2   6  -1   29.13    6.38
   2  -6   1   31.61    6.46
   2  -6   2   92.68   11.36
  -2   6  -2   62.18    9.92
   2  -6   2   85.25   10.61
  -2   6  -2   71.90    5.65
   2  -6   3    0.96    1.22
  -2   6  -3    1.80    1.04
  -2   6  -3    0.42    2.15
   2  -6   3    1.26    1.69
   2  -6   4   22.77    6.33
  -2   6  -4   18.67    6.03
  -2   6  -4   18.23    3.01
   2  -6   5    0.50    1.78
   2  -6   5   -0.01    0.31
  -2   6  -5   -0.57    0.96
   2  -6   6    1.38    0.75
   2  -6   6    2.32    1.33
  -2   6  -6    2.40    2.21
   2  -6   7   87.84    6.42
  -2   6  -7   82.25   13.36
   2  -6   8    6.95    4.36
  -2   6  -8    2.03    1.68
  -2   6  -9   16.85    5.82
   2  -6   9   52.60   10.82
   2  -6  10    0.89    1.56
  -2   6 -10    2.41    2.12
   2  -6  11    1.67    2.47
  -2   6 -11    2.39    0.92
   2  -6  12   60.02   11.81
  -2   6 -12   53.84   11.08
   2  -6  13   27.36    7.95
  -2   6 -13   29.62    8.25
   2  -6  14   11.14    5.01
   2  -6  15    9.86    5.30
   2  -5 -19   -0.73    1.88
   2  -5 -18    6.38    3.10
   2  -5 -17   -1.50    2.15
   2  -5 -16   41.31    7.67
   2  -5 -15   14.03    4.11
   2  -5 -15    6.72    2.93
   2  -5 -14   19.05    4.81
   2  -5 -14   22.90    5.45
  -2   5  14   14.56    2.57
   2  -5 -13   53.88    8.12
   2  -5 -13   39.52    6.46
  -2   5  13   38.12    3.69
   2  -5 -12   12.95    4.07
  -2   5  12   13.61    1.90
   2  -5 -12   13.52    3.41
  -2   5  11  170.90    5.57
   2  -5 -11  189.56   12.47
   2  -5 -10   12.49    3.96
  -2   5  10   11.55    2.86
   2  -5 -10   11.61    2.84
   2  -5  -9  132.29    9.06
   2  -5  -9  157.66   13.32
  -2   5   9  122.91    9.51
   2  -5  -8  131.12   12.02
   2  -5  -8  121.86    8.19
  -2   5   8  115.41    9.23
   2  -5  -7  110.77    7.28
  -2   5   7  118.13   11.85
   2  -5  -7  126.99   11.71
  -2   5   7  114.50    9.23
   2  -5  -6  570.83   24.66
  -2   5   6  484.27   17.98
  -2   5   6  526.78   24.55
   2  -5  -6  495.62   14.57
   2  -5  -6  543.57   16.98
  -2   5   6  483.20   19.37
  -2   5   5    3.04    1.23
  -2   5   5    2.85    1.82
   2  -5  -5    3.26    1.55
   2  -5  -5    2.30    1.01
  -2   5   5    3.86    2.69
   2  -5  -5    5.27    2.96
  -2   5   4  445.74   15.16
   2  -5  -4  508.03   18.06
   2  -5  -4  499.71   22.80
   2  -5  -4  451.61   12.78
  -2   5   4  456.87   22.79
   2  -5  -3  152.51   10.46
  -2   5   3  139.15   12.77
   2  -5  -3  141.56    4.78
  -2   5   3  133.05    7.73
   2  -5  -3  144.30   12.19
   2  -5  -3  132.76    6.82
   2  -5  -3  135.13    2.84
  -2   5   2  327.69   11.49
  -2   5   2  352.24    7.48
  -2   5   2  305.91   19.21
   2  -5  -2  347.50   13.37
   2  -5  -2  359.02   19.54
  -2   5   1  573.99   14.56
   2  -5  -1  644.89   26.12
  -2   5   1  600.05    9.71
   2  -5  -1  556.96   21.56
  -2   5   1  570.52   26.63
  -2   5   0   12.41    2.06
  -2   5   0   13.63    1.59
   2  -5   0   17.03    4.24
   2  -5   0   16.82    4.29
  -2   5   0   12.17    3.61
  -2   5  -1  437.34   24.32
  -2   5  -1  460.23   12.74
   2  -5   1  402.51   22.91
  -2   5  -2   40.49    3.86
  -2   5  -2   34.84    7.03
   2  -5   2   52.59    8.89
   2  -5   2   54.46    7.78
  -2   5  -3  363.19   23.30
  -2   5  -3  366.62   12.03
   2  -5   4  309.84    8.69
   2  -5   4  352.62   20.04
  -2   5  -5   37.42    7.81
   2  -5   5   48.94    3.88
   2  -5   6  251.89    9.99
  -2   5  -6  196.24   18.49
   2  -5   7    1.42    2.36
   2  -5   7    0.41    0.63
   2  -5   8  234.64   12.19
   2  -5   8  369.27   27.64
   2  -5   9   56.89    6.51
   2  -5   9  103.36   14.77
   2  -5  10   57.41   11.28
   2  -5  11   87.01   13.94
   2  -5  12    4.22    2.86
   2  -5  13  112.57   16.39
  -2   5 -13  117.64   15.39
   2  -5  14    9.67    4.63
   2  -5  15   15.28    5.57
   2  -5  16   10.69    5.28
   2  -4 -19   14.36    5.17
   2  -4 -18   17.76    5.55
   2  -4 -17   28.73    6.98
  -2   4  17   27.27    5.48
   2  -4 -16   10.29    4.11
  -2   4  16    9.71    3.27
   2  -4 -15    4.92    3.02
   2  -4 -15    2.85    1.16
  -2   4  15    0.86    0.90
  -2   4  14   42.16    5.64
   2  -4 -14   62.97    8.07
   2  -4 -14   47.12    7.68
  -2   4  13   24.12    3.87
   2  -4 -13   17.83    4.34
   2  -4 -13   15.14    4.23
   2  -4 -12  166.89   13.02
  -2   4  12  149.45    8.64
   2  -4 -12  154.96   12.39
   2  -4 -11    3.54    1.54
  -2   4  11    2.68    1.10
   2  -4 -11    2.10    1.26
   2  -4 -10    0.33    1.05
  -2   4  10    0.36    0.07
   2  -4  -9   96.07    7.91
   2  -4  -9  102.99    9.57
  -2   4   9   89.03    4.24
  -2   4   9   92.05    7.69
   2  -4  -8    0.68    0.64
   2  -4  -8    1.99    1.01
  -2   4   8    1.15    0.41
  -2   4   8    4.34    1.55
   2  -4  -7  245.94   16.52
   2  -4  -7  250.70   14.68
  -2   4   7  216.65   11.74
   2  -4  -7  213.57   10.12
   2  -4  -6    7.07    2.42
  -2   4   6    7.15    2.24
   2  -4  -6    6.83    1.63
   2  -4  -6    7.31    2.72
  -2   4   6   11.35    3.70
   2  -4  -6    6.20    1.62
   2  -4  -5    1.15    1.36
  -2   4   5    0.06    0.55
  -2   4   5    1.46    0.94
   2  -4  -5    0.79    0.64
  -2   4   5    2.37    2.27
   2  -4  -5    0.43    0.63
   2  -4  -4   42.93    5.91
   2  -4  -4   36.67    4.33
  -2   4   4   31.96    3.79
  -2   4   4   34.13    4.89
   2  -4  -4   36.29    3.34
  -2   4   3    2.38    0.95
   2  -4  -3    3.04    1.47
  -2   4   3    3.64    1.67
   2  -4  -3    2.48    0.44
   2  -4  -3    3.16    0.91
  -2   4   2  127.69    6.46
   2  -4  -2  128.77   10.33
   2  -4  -2  108.12    7.76
  -2   4   2  118.08    3.74
  -2   4   2  106.43    8.97
   2  -4  -1   71.39    7.29
   2  -4  -1   75.40    7.91
  -2   4   1   69.03    4.47
  -2   4   1   70.71    2.73
  -2   4   0   94.30    5.08
   2  -4   0   92.60    9.56
   2  -4   0  105.95    9.44
  -2   4   0   95.18    3.55
   2  -4   1    0.66    0.24
   2  -4   1    0.40    0.78
  -2   4  -1    0.74    0.15
   2  -4   2   12.60    4.08
   2  -4   2   20.47    4.22
  -2   4  -2   19.04    4.26
  -2   4  -2   19.07    2.34
   2  -4   3    0.72    0.36
   2  -4   3   -0.01    0.83
   2  -4   3    0.52    1.13
  -2   4  -3   -1.09    1.73
   2  -4   4   43.05    3.20
  -2   4  -4   31.83    6.43
   2  -4   4   40.44    7.87
   2  -4   4   48.60    6.90
  -2   4  -4   35.27    6.45
   2  -4   5  219.25   14.57
   2  -4   5  240.31   20.62
   2  -4   5  214.06    8.49
   2  -4   6   10.59    4.30
   2  -4   6    6.67    1.78
   2  -4   7   82.23   12.65
   2  -4   7   58.58    5.87
   2  -4   8   10.30    4.68
   2  -4   8    8.83    2.54
   2  -4   9   30.14    7.96
   2  -4   9   15.01    3.54
   2  -4  10  269.41   23.71
   2  -4  11    2.65    2.82
  -2   4 -12   24.43    2.42
   2  -4  12   56.31   11.03
   2  -4  13    5.16    3.91
   2  -4  14    9.54    4.87
   2  -4  15   90.48   14.46
   2  -4  16   -2.10    0.98
   2  -4  17   11.22    5.24
   2  -3 -20   55.18   10.87
   2  -3 -19    0.09    1.65
  -2   3  19    1.52    2.02
  -2   3  18   10.60    3.96
   2  -3 -18   13.07    5.37
  -2   3  17   23.59    5.90
   2  -3 -17   29.06    7.44
   2  -3 -16   96.41   12.81
   2  -3 -16  130.20   10.99
  -2   3  16   92.07   11.23
   2  -3 -15   75.06    8.33
  -2   3  15   58.44    8.44
   2  -3 -15   65.14   10.05
   2  -3 -14   10.45    3.04
   2  -3 -14    5.89    3.57
  -2   3  14    4.71    2.17
  -2   3  13    6.75    2.41
   2  -3 -13    6.41    3.01
   2  -3 -13    8.63    2.74
   2  -3 -12   11.75    3.13
  -2   3  12    9.54    2.72
   2  -3 -12   13.24    3.75
  -2   3  11  137.85    9.38
   2  -3 -11  138.92   11.89
   2  -3 -11  153.34   11.16
  -2   3  10   37.15    4.26
   2  -3 -10   37.55    5.38
   2  -3 -10   40.76    5.88
   2  -3 -10   28.22    5.52
   2  -3  -9   14.36    3.27
   2  -3  -9   22.34    5.09
  -2   3   9   13.90    2.24
   2  -3  -9   13.98    3.69
   2  -3  -9   14.59    3.28
   2  -3  -8   15.73    3.96
   2  -3  -8   16.03    4.01
  -2   3   8   15.27    2.90
   2  -3  -8   18.40    3.37
   2  -3  -8   19.20    3.66
  -2   3   8   20.03    2.30
   2  -3  -7    2.16    1.13
  -2   3   7    3.52    1.43
   2  -3  -7    4.35    1.82
  -2   3   7    3.21    0.79
   2  -3  -7    2.78    1.22
   2  -3  -7    2.20    0.99
   2  -3  -6  101.94    5.41
   2  -3  -6   99.39    6.49
   2  -3  -6  112.81   10.00
  -2   3   6   99.57    3.63
   2  -3  -6   85.51    6.24
   2  -3  -6   98.71    8.11
  -2   3   6   95.31    7.17
   2  -3  -5    2.79    1.32
  -2   3   5    3.14    1.43
   2  -3  -5    1.74    0.82
   2  -3  -5    2.83    0.82
   2  -3  -5    1.26    0.78
   2  -3  -5    2.83    0.89
   2  -3  -4    1.38    1.01
   2  -3  -4    1.47    0.81
  -2   3   4    2.10    1.17
   2  -3  -4    1.37    0.65
   2  -3  -4    2.09    0.73
   2  -3  -4    1.34    0.38
   2  -3  -3  113.74    5.10
  -2   3   3  115.32    8.08
  -2   3   3  113.09    6.07
   2  -3  -3  113.42    3.35
   2  -3  -3  113.49    8.50
   2  -3  -3  121.81    9.44
   2  -3  -2    0.63    0.50
  -2   3   2    0.75    0.39
   2  -3  -2    1.02    1.11
   2  -3  -2    1.62    0.62
   2  -3  -1   33.86    4.70
  -2   3   1   29.95    2.56
  -2   3   1   30.28    1.39
  -2   3   0    1.22    0.47
   2  -3   0    1.17    0.87
  -2   3  -1    6.28    1.12
   2  -3   1    8.63    2.43
   2  -3   2  105.35    3.14
  -2   3  -2   95.40    9.03
   2  -3   2   96.72    8.22
   2  -3   3    3.76    0.77
  -2   3  -3    2.96    1.34
   2  -3   3    1.39    0.71
   2  -3   3    1.02    1.20
   2  -3   4   67.54    7.24
   2  -3   4   55.53    8.36
   2  -3   4   67.90    4.35
  -2   3  -4   52.17    7.02
  -2   3  -5    3.17    2.22
   2  -3   5    2.34    1.66
   2  -3   5    3.38    1.10
  -2   3  -5    2.96    1.41
   2  -3   5    3.33    1.47
  -2   3  -6    4.06    2.46
   2  -3   6    2.85    1.99
   2  -3   6    0.61    0.67
  -2   3  -7    6.72    3.30
   2  -3   7    5.91    2.75
  -2   3  -8    3.14    1.74
   2  -3   8    1.23    1.78
   2  -3   9  177.47   18.35
  -2   3  -9   80.84   11.39
   2  -3  10   11.81    5.03
   2  -3  11   28.68    7.87
  -2   3 -11   18.32    2.25
   2  -3  12   11.32    5.40
  -2   3 -12    4.45    1.10
   2  -3  13   19.31    6.53
   2  -3  14  178.66   19.67
   2  -3  15    3.23    3.23
   2  -3  16   43.31   10.03
   2  -3  17    4.75    3.43
   2  -3  18   25.55    7.79
  -2   2  21    2.07    2.26
   2  -2 -20   10.64    5.05
  -2   2  20    4.45    3.74
   2  -2 -19   35.48    9.14
  -2   2  19   33.59    8.14
   2  -2 -18    7.78    3.89
  -2   2  18    5.46    3.27
   2  -2 -17   16.32    5.88
  -2   2  17   11.77    4.98
   2  -2 -16   10.65    3.37
  -2   2  16    9.45    4.42
   2  -2 -15   11.55    3.38
  -2   2  15    5.93    2.73
  -2   2  14   94.89   11.52
  -2   2  14   84.49    5.50
  -2   2  13    7.35    1.59
   2  -2 -13   14.34    3.65
  -2   2  13    6.94    2.70
  -2   2  12   29.00    3.14
   2  -2 -12   40.97    7.00
   2  -2 -12   29.81    4.98
  -2   2  12   34.73    6.08
   2  -2 -11   59.35    8.44
  -2   2  11   39.93    6.16
   2  -2 -11   39.70    5.58
   2  -2 -11   60.22   10.18
   2  -2 -10   22.94    3.98
  -2   2  10   30.60    4.84
   2  -2 -10   27.84    6.50
   2  -2 -10   24.33    5.04
  -2   2   9  245.23   12.01
   2  -2  -9  227.34   12.58
   2  -2  -9  205.23   16.38
   2  -2  -9  226.66   15.31
   2  -2  -8   27.97    4.36
   2  -2  -8   23.37    4.65
   2  -2  -8   30.55    4.78
   2  -2  -8   33.97    5.67
  -2   2   8   31.46    3.70
   2  -2  -7   48.35    5.46
   2  -2  -7   41.65    5.26
  -2   2   7   47.66    3.86
   2  -2  -7   50.54    6.72
   2  -2  -7   53.98    5.73
  -2   2   6   53.74    4.93
   2  -2  -6   60.73    5.44
   2  -2  -6   61.49    5.90
  -2   2   6   54.53    3.48
   2  -2  -6   48.30    4.69
   2  -2  -6   60.13    6.92
   2  -2  -5   28.20    2.31
  -2   2   5   25.62    2.04
   2  -2  -5   25.02    2.72
   2  -2  -5   26.50    3.12
   2  -2  -5   31.51    4.82
   2  -2  -5   25.74    3.65
  -2   2   5   26.97    3.50
   2  -2  -4  210.87    7.15
   2  -2  -4  187.62    5.89
   2  -2  -4  220.22   12.13
   2  -2  -4  202.26   10.07
  -2   2   4  199.51    5.00
   2  -2  -4  201.31    7.57
  -2   2   4  202.68    9.54
   2  -2  -3  102.86    7.94
   2  -2  -3   98.41    4.50
   2  -2  -3   94.74    3.39
   2  -2  -3   97.91    6.81
  -2   2   3   94.01    6.52
   2  -2  -2   12.23    1.18
   2  -2  -2   11.27    2.25
   2  -2  -2   11.39    1.34
  -2   2   2   11.12    1.58
   2  -2  -2   15.48    2.88
   2  -2  -1   17.56    2.96
   2  -2  -1   17.73    1.52
  -2   2   1   16.61    1.64
   2  -2  -1   16.28    2.83
   2  -2   0    4.31    1.44
   2  -2   0    3.30    1.22
  -2   2   0    3.71    0.68
   2  -2   1   21.65    3.28
  -2   2  -1   20.16    1.61
   2  -2   2   62.41    2.54
  -2   2  -2   60.20    6.28
   2  -2   2   59.27    5.54
  -2   2  -3  188.12   11.20
   2  -2   3  195.67   10.45
  -2   2  -4    1.29    1.48
  -2   2  -4    0.48    0.89
   2  -2   4   -0.13    0.80
   2  -2   5  128.29    9.01
  -2   2  -5  116.59    9.49
  -2   2  -5  107.80    9.78
  -2   2  -6    3.43    2.05
   2  -2   6    3.89    2.01
   2  -2   6    2.55    1.21
  -2   2  -7    3.48    2.36
   2  -2   7    0.20    1.14
  -2   2  -8  156.49   13.68
   2  -2   8  231.01   19.95
  -2   2  -9    3.52    2.54
   2  -2   9    4.73    1.72
   2  -2  10  169.72   18.03
  -2   2 -10  142.13    6.60
  -2   2 -11   -0.09    1.74
   2  -2  11    0.73    1.86
  -2   2 -11    0.70    0.51
   2  -2  12   11.88    4.88
  -2   2 -12   11.10    3.89
  -2   2 -12   10.57    1.95
   2  -2  13  106.19   14.84
  -2   2 -13   94.40   11.96
   2  -2  14   37.46    9.19
   2  -2  15  100.46   14.60
   2  -2  16   20.71    6.81
   2  -2  17    4.68    2.16
   2  -2  18   11.88    4.76
   2  -2  19   20.93    6.94
  -2   1  21    5.98    3.96
  -2   1  20   80.73   13.46
  -2   1  19    4.54    3.51
  -2   1  18   10.36    4.59
   2  -1 -17   17.19    4.11
  -2   1  17   18.06    5.80
  -2   1  16   -1.36    2.39
   2  -1 -16    1.12    1.27
   2  -1 -15  274.34   16.34
  -2   1  15  273.60   22.36
   2  -1 -14    5.06    2.09
   2  -1 -14   13.42    4.24
  -2   1  14    7.95    3.14
   2  -1 -13    1.39    0.90
  -2   1  13    1.26    1.19
  -2   1  12   87.10   11.00
   2  -1 -12   95.80    9.03
   2  -1 -11    6.18    2.53
  -2   1  11    7.36    2.92
   2  -1 -11    7.80    3.46
   2  -1 -10  665.19   32.10
  -2   1  10  704.90   11.55
   2  -1 -10  642.16   22.01
  -2   1   9   10.75    3.03
   2  -1  -9   10.75    2.80
   2  -1  -9    9.08    3.36
  -2   1   9    9.39    1.24
  -2   1   8  111.75    8.57
   2  -1  -8   81.80    8.72
   2  -1  -8  107.97    8.32
  -2   1   7  392.12   13.95
   2  -1  -7  360.55   14.54
   2  -1  -6  198.82   10.29
  -2   1   6  185.76    8.15
   2  -1  -6  160.56    9.05
   2  -1  -5 1383.92   26.04
  -2   1   5 1498.42   19.17
   2  -1  -4    2.00    0.90
  -2   1   4    2.95    1.04
   2  -1  -4    3.06    1.55
  -2   1   4    1.87    0.57
   2  -1  -4    2.22    0.48
   2  -1  -4    1.68    0.63
   2  -1  -3  560.66    9.36
   2  -1  -3  577.43   18.03
   2  -1  -3  562.89   12.06
   2  -1  -3  569.90   15.38
  -2   1   3  608.69    9.17
   2  -1  -2  484.88   13.55
   2  -1  -2  483.84    7.92
   2  -1  -2  493.57   15.70
   2  -1  -2  489.59    8.62
   2  -1  -1  578.29   14.40
   2  -1  -1  544.67   15.49
   2  -1  -1  595.78    6.93
  -2   1   1  558.86    7.05
  -2   1   0 1787.13   10.82
   2  -1   0 1683.15   25.65
   2  -1   0 1734.32   24.62
   2  -1   1  107.98    6.16
   2  -1   1  101.36    5.96
   2  -1   2  668.72   14.86
  -2   1  -2  603.92   16.45
   2  -1   2  661.81   15.62
   2  -1   3  262.54   10.14
  -2   1  -3  251.57   10.73
  -2   1  -4  668.66   17.34
  -2   1  -4  616.24   18.30
   2  -1   4  693.32   17.12
  -2   1  -5 1070.50   22.62
  -2   1  -5 1021.26   25.07
   2  -1   6  171.79    9.38
  -2   1  -6  162.49   10.57
  -2   1  -6  172.55    9.33
   2  -1   7  306.32   18.96
  -2   1  -7  238.24   13.60
  -2   1  -8   11.06    3.31
   2  -1   8   13.22    4.23
  -2   1  -9  350.88   10.83
   2  -1   9  370.35   24.69
  -2   1 -10  415.96   12.46
   2  -1  10  430.20   28.07
  -2   1 -11  108.48   10.91
   2  -1  11  146.94   16.73
  -2   1 -11  139.59    7.71
  -2   1 -12   19.80    4.83
   2  -1  12   29.04    7.55
  -2   1 -13    1.84    1.71
   2  -1  13    4.04    3.65
   2  -1  14  157.23   17.85
  -2   1 -14  167.56   14.17
   2  -1  15  126.29   16.23
   2  -1  16   56.85   10.77
   2  -1  17    4.41    3.04
   2  -1  18    2.65    3.30
   2  -1  19   34.64    9.12
  -2   0  21    1.81    1.27
  -2   0  20   32.90    8.76
  -2   0  19    6.85    3.66
  -2   0  18   25.40    7.28
   2   0 -17   26.25    5.28
  -2   0  17   34.47    8.52
  -2   0  16   26.08    7.43
   2   0 -16   19.27    4.65
  -2   0  15   75.56   12.40
  -2   0  14    1.45    0.23
  -2   0  13  111.62   14.21
  -2   0  12    5.80    2.08
  -2   0  11  127.17   13.81
   2   0 -11  100.08   13.49
  -2   0  10   65.15    9.24
   2   0 -10   51.32    8.90
   2   0  -9   33.23    6.33
  -2   0   9   51.09    7.44
  -2   0   8  185.42   12.98
   2   0  -8  146.52   11.97
   2   0  -7    6.29    2.12
  -2   0   7    5.66    1.92
  -2   0   6  197.08   10.19
   2   0  -6  156.74    9.60
   2   0  -5   16.72    2.70
  -2   0   5   16.94    2.54
   2   0  -4   64.28    4.39
  -2   0   4   68.37    4.23
  -2   0   3   72.40    3.74
   2   0  -3   73.07    5.44
   2   0  -2    9.10    1.78
  -2   0   2    9.39    1.41
  -2   0   2   10.23    1.24
  -2   0   1   49.30    2.44
   2   0  -1   50.23    3.95
   2   0   0   28.42    1.55
  -2   0   0   27.72    1.46
   2   0   0   28.82    2.84
   2   0   1   21.17    2.55
   2   0   1   20.47    2.35
   2   0   2   15.17    1.88
   2   0   2   15.68    1.88
   2   0   3   21.38    2.03
   2   0   3   23.20    2.38
  -2   0  -4   56.74    4.31
   2   0   4   57.08    4.01
  -2   0  -4   55.12    3.83
   2   0   5   37.02    3.37
  -2   0  -5   38.09    3.76
  -2   0  -5   44.05    3.28
   2   0   6  144.93    7.21
  -2   0  -6  139.28    7.71
  -2   0  -6  159.17    6.13
  -2   0  -7   82.12    5.37
  -2   0  -7   81.81    4.41
  -2   0  -7   76.71    6.10
  -2   0  -8   91.77    4.81
  -2   0  -8   82.95    6.85
  -2   0  -8   89.73    5.92
   2   0   9   99.64   11.46
  -2   0  -9   85.35    7.34
  -2   0  -9  104.12    6.83
  -2   0  -9   91.39    4.97
  -2   0 -10   16.23    3.38
  -2   0 -10   17.41    2.16
  -2   0 -10   19.82    3.23
   2   0  10   17.72    5.28
   2   0  11  123.38   15.00
  -2   0 -11   97.61    8.59
  -2   0 -12   37.59    3.25
   2   0  12   34.32    7.96
  -2   0 -12   32.17    4.98
   2   0  13   73.38   12.04
  -2   0 -13   77.95    4.39
  -2   0 -13   74.46    7.81
   2   0  14   51.27   10.07
  -2   0 -14   52.62    6.55
   2   0  15    7.94    4.36
   2   0  16   56.08   10.66
   2   0  17   15.41    5.81
   2   0  18   18.88    6.50
   2   0  19    9.76    4.33
   2   0  20    9.01    4.10
  -2  -1  20   54.36   11.83
  -2  -1  19  116.32   16.77
  -2  -1  18   -1.77    0.76
  -2  -1  17    9.06    5.31
  -2  -1  16   80.91   13.39
  -2  -1  15  230.33   22.59
  -2  -1  14  201.06   20.53
  -2  -1  14  166.80    7.10
  -2  -1  13    7.26    1.68
  -2  -1  13    6.04    2.86
  -2  -1  12    3.47    1.62
  -2  -1  11   42.88    8.52
   2   1 -10  206.73   18.12
  -2  -1  10  263.11   20.17
   2   1  -9   71.28    9.76
  -2  -1   9  108.29   12.00
   2   1  -8    6.24    2.46
  -2  -1   8    8.84    3.16
  -2  -1   7  115.06   10.23
  -2  -1   6   25.19    4.22
  -2  -1   5  256.78   11.57
  -2  -1   5  246.17    6.35
  -2  -1   4   25.54    3.11
  -2  -1   4   27.11    3.64
   2   1  -3    3.37    0.59
  -2  -1   3    4.01    1.05
  -2  -1   3    3.33    1.12
  -2  -1   2  575.83   11.52
  -2  -1   2  558.99   10.55
  -2  -1   1   53.95    2.92
  -2  -1   1   52.94    2.88
  -2  -1   0  221.85    5.35
  -2  -1  -1    6.06    0.66
   2   1   1    6.39    0.70
   2   1   1    6.33    1.15
   2   1   2   25.27    1.81
   2   1   2   27.23    2.31
  -2  -1  -2   27.48    1.69
   2   1   3  548.96    9.59
  -2  -1  -3  563.58   10.07
  -2  -1  -3  573.78   11.07
  -2  -1  -4   68.66    4.93
   2   1   4   72.12    3.27
  -2  -1  -4   72.10    4.53
  -2  -1  -4   70.22    3.72
   2   1   5  235.16    6.20
  -2  -1  -5  244.50    9.71
  -2  -1  -5  236.83    6.80
  -2  -1  -6   42.70    4.46
  -2  -1  -6   29.31    2.47
   2   1   6   31.41    2.54
  -2  -1  -7    3.05    0.98
  -2  -1  -7    3.35    1.18
  -2  -1  -8  115.19    5.49
  -2  -1  -8  137.55    8.91
  -2  -1  -9   24.32    2.68
   2   1  10  326.01   21.06
  -2  -1 -10  273.06    9.66
   2   1  11   29.76    7.02
  -2  -1 -11   30.12    3.39
   2   1  12   23.05    6.05
  -2  -1 -12   24.26    3.15
  -2  -1 -13    3.78    1.18
   2   1  13    5.06    3.07
  -2  -1 -14    1.69    0.73
   2   1  14    2.69    2.00
   2   1  15  308.20   24.80
   2   1  16   14.88    5.14
   2   1  17   61.33   11.39
   2   1  18    1.62    2.65
   2   1  19    3.81    2.37
   2   1  20  140.94   17.92
   2   1  21   -0.40    0.79
  -2  -2  20    2.65    2.81
  -2  -2  19    8.93    3.80
  -2  -2  18    0.80    0.49
  -2  -2  17   19.76    6.57
  -2  -2  16   43.85    9.90
  -2  -2  15   42.20    9.70
  -2  -2  14   25.03    7.42
  -2  -2  13   36.16    8.69
  -2  -2  12   29.93    7.61
  -2  -2  11  103.92   13.82
  -2  -2  10   76.35   11.31
  -2  -2   9   45.28    8.21
  -2  -2   8   77.54   10.08
  -2  -2   7   55.92    7.81
  -2  -2   7   65.05    7.63
  -2  -2   6  267.80   14.10
  -2  -2   6  240.89   14.48
  -2  -2   5   79.38    5.53
  -2  -2   5   88.56    7.68
  -2  -2   5   95.43    7.51
  -2  -2   4   38.65    4.36
  -2  -2   4   37.42    3.43
  -2  -2   4   38.95    4.19
  -2  -2   3   43.74    3.41
  -2  -2   3   53.27    4.38
  -2  -2   3   51.91    4.18
  -2  -2   2   21.30    2.36
   2   2  -2   25.23    2.25
  -2  -2   2   24.72    2.53
   2   2  -1   82.67    4.02
  -2  -2   1   76.05    4.77
  -2  -2   1   88.18    4.24
  -2  -2   1   86.77    4.13
  -2  -2   0   14.21    2.21
  -2  -2   0   15.33    1.59
  -2  -2   0   14.35    1.57
  -2  -2  -1    1.99    0.85
  -2  -2  -2   47.28    2.65
   2   2   2   48.75    2.78
  -2  -2  -2   45.44    4.38
  -2  -2  -3   27.41    2.26
   2   2   3   27.30    2.37
  -2  -2  -3   28.71    3.68
  -2  -2  -4   23.19    2.40
  -2  -2  -4   17.92    3.08
   2   2   4   20.50    2.38
  -2  -2  -5    8.53    1.63
   2   2   5    7.02    0.74
  -2  -2  -5    5.90    1.92
  -2  -2  -6  155.01   10.61
  -2  -2  -6  148.11    8.07
   2   2   6  117.27    8.86
  -2  -2  -7  126.70    8.41
   2   2   7  105.37    8.59
  -2  -2  -8   54.47    6.13
   2   2   8   53.58    6.29
  -2  -2  -9  109.51    9.46
   2   2   9  123.99    9.69
  -2  -2 -10    3.86    2.59
   2   2  10    3.15    1.44
   2   2  11  187.30   12.05
   2   2  11  151.31   14.80
   2   2  12   36.37    7.81
   2   2  12   54.39    6.49
   2   2  13   61.48   10.39
   2   2  14   33.35    7.88
   2   2  15   23.65    6.78
   2   2  16   93.65   13.59
  -2  -2 -16  105.40   13.84
   2   2  17    2.27    1.82
  -2  -2 -17    4.36    4.47
   2   2  18   43.40    9.62
  -2  -2 -18   63.44   11.49
   2   2  19   -0.90    1.65
  -2  -2 -19   10.15    5.98
   2   2  20   34.37    8.83
  -2  -2 -20   53.91   11.32
   2   2  21   12.53    4.86
  -2  -3  19   72.62   13.39
  -2  -3  18   10.79    4.15
  -2  -3  17    9.45    5.20
  -2  -3  16    9.09    3.98
  -2  -3  15    2.01    2.26
  -2  -3  14  289.61   25.97
  -2  -3  13   24.80    7.25
  -2  -3  12   -1.29    2.81
  -2  -3  11   88.27   13.11
  -2  -3  10   -0.37    0.26
  -2  -3   9  724.06   34.45
  -2  -3   8   72.91   10.24
  -2  -3   8   62.77    7.84
  -2  -3   7   96.00   10.84
  -2  -3   7   96.72    9.01
  -2  -3   6  408.64   20.09
  -2  -3   6  427.88   17.20
  -2  -3   5   91.74    7.23
  -2  -3   5   87.13    8.35
  -2  -3   4 1415.75   29.49
  -2  -3   4 1498.33   25.97
  -2  -3   3   43.25    3.95
  -2  -3   3   38.40    4.13
  -2  -3   3   40.31    4.22
  -2  -3   3   35.66    3.99
  -2  -3   2  450.78   11.48
  -2  -3   2  450.02   12.24
  -2  -3   1  601.94   12.30
   2   3  -1  591.26   13.49
   2   3  -1  586.34   15.09
  -2  -3   1  631.31   12.51
   2   3   0  366.64    8.69
  -2  -3   0  391.01    9.35
   2   3   0  368.37   13.57
  -2  -3   0  386.03    8.78
  -2  -3   0  315.70   14.13
   2   3   0  379.46   10.59
   2   3   1 1624.41   22.23
   2   3   1 1610.40   16.85
  -2  -3  -1 1599.79   16.63
  -2  -3  -2   12.41    1.62
  -2  -3  -2   11.16    3.07
   2   3   2   11.82    1.34
  -2  -3  -3  605.75   11.79
  -2  -3  -4  335.37    9.40
  -2  -3  -5  502.18   12.66
  -2  -3  -6 1378.60   23.34
   2   3   7   90.36    4.23
   2   3   7  103.28   10.51
  -2  -3  -7   95.46    6.86
  -2  -3  -8  299.81   13.31
   2   3   8  283.48    7.42
   2   3   9   41.17    6.69
  -2  -3  -9   33.96    4.86
   2   3  10  347.37   19.36
  -2  -3 -10  249.71   14.43
   2   3  11  458.16   24.52
  -2  -3 -11  526.38   22.68
   2   3  12   85.30   11.50
  -2  -3 -12   86.28    9.63
   2   3  12  117.65   11.23
  -2  -3 -13   20.12    5.16
   2   3  13   25.30    6.42
   2   3  13   40.34    6.51
  -2  -3 -14    0.04    1.43
   2   3  14    2.77    1.59
   2   3  14    0.18    0.42
   2   3  15   75.97   11.92
  -2  -3 -15   54.85    9.36
   2   3  15   71.39    8.32
  -2  -3 -16  127.08   14.65
   2   3  16  144.09   16.67
  -2  -3 -17   42.74    8.78
   2   3  17   50.92    9.91
   2   3  18    2.36    3.16
  -2  -3 -18    5.24    3.44
   2   3  19    5.50    3.56
  -2  -3 -19    2.22    3.31
   2   3  20   10.72    4.57
  -2  -3 -20   23.77    7.44
   2   3  21   30.29    7.86
   2   3  22   13.61    5.40
  -2  -4  18    1.39    2.63
  -2  -4  17   20.43    7.01
  -2  -4  16    0.86    0.47
  -2  -4  15   -0.02    0.36
  -2  -4  14  147.15   18.58
  -2  -4  13   15.68    5.95
  -2  -4  12  100.01   14.59
  -2  -4  11   -0.85    2.44
  -2  -4  10   17.02    5.51
  -2  -4   9  168.92   17.00
  -2  -4   8  137.77   14.43
  -2  -4   7  132.37   10.18
  -2  -4   7  133.97   13.12
   2   4  -6   18.68    4.60
  -2  -4   6   26.09    4.20
  -2  -4   6   24.07    5.20
  -2  -4   5   24.40    4.57
  -2  -4   5   30.30    4.85
   2   4  -5   21.00    4.30
  -2  -4   5   28.90    4.03
  -2  -4   4   94.36    8.14
  -2  -4   4   96.54    6.69
   2   4  -4   92.20    6.74
   2   4  -4   83.64    8.09
   2   4  -4   86.11    4.96
  -2  -4   4   84.44    7.87
  -2  -4   3  200.44    8.85
  -2  -4   3  189.09   10.03
  -2  -4   3  184.00   10.84
   2   4  -3  197.07    9.11
   2   4  -3  170.41   10.50
   2   4  -3  191.35    8.67
   2   4  -2   37.81    3.69
   2   4  -2   33.02    4.07
  -2  -4   2   33.98    3.70
  -2  -4   2   35.72    3.46
   2   4  -2   38.26    4.40
  -2  -4   1   63.20    4.38
   2   4  -1   63.32    4.92
   2   4  -1   70.89    6.86
   2   4  -1   60.91    4.38
  -2  -4   1   64.26    4.39
   2   4   0   29.97    2.91
  -2  -4   0   29.29    2.66
   2   4   0   29.18    3.56
  -2  -4   0   29.36    2.82
   2   4   0   28.61    4.84
  -2  -4  -1   16.08    1.77
   2   4   1   14.13    1.78
   2   4   1   17.90    4.21
   2   4   1   12.92    2.30
   2   4   2   56.26    4.81
   2   4   2   48.53    3.01
  -2  -4  -2   58.55    4.05
  -2  -4  -3   29.21    2.88
   2   4   3   24.72    3.24
   2   4   3   24.49    2.05
  -2  -4  -4   20.48    2.53
   2   4   4   18.33    1.78
   2   4   5  230.01    8.97
  -2  -4  -5  283.40    9.85
  -2  -4  -6    0.77    0.70
   2   4   6    0.95    1.14
   2   4   7   13.65    2.24
  -2  -4  -7    9.68    2.15
   2   4   7   11.85    1.37
   2   4   8   88.97    5.42
  -2  -4  -8   86.78    6.94
   2   4   9    3.09    1.17
  -2  -4  -9    1.83    1.27
   2   4   9    1.79    1.92
  -2  -4 -10  319.62   15.53
   2   4  10  501.57   27.48
   2   4  11    4.79    3.06
  -2  -4 -11    3.00    1.87
  -2  -4 -12   20.76    4.47
   2   4  12   28.76    6.31
   2   4  12   31.27    6.48
  -2  -4 -13   55.33    7.99
   2   4  13   51.32    9.42
  -2  -4 -14    4.51    2.51
   2   4  14   11.90    4.81
   2   4  15  174.93   17.64
  -2  -4 -15  125.03   13.14
  -2  -4 -16    5.25    3.52
   2   4  16    6.84    4.41
  -2  -4 -17    4.88    2.70
   2   4  17    6.08    3.95
   2   4  18   23.23    6.73
  -2  -4 -18   13.55    4.81
  -2  -4 -19    0.23    0.81
   2   4  19   -0.28    1.99
  -2  -4 -20   38.95    9.14
   2   4  20   49.92   10.19
   2   4  21    3.05    2.23
   2   4  22   -1.90    3.07
  -2  -5  17    5.43    3.08
  -2  -5  16   19.95    6.87
  -2  -5  15   40.39    9.85
  -2  -5  14   63.23   12.29
  -2  -5  13  172.22   19.93
  -2  -5  12   -0.68    2.24
  -2  -5  11   25.96    7.26
  -2  -5  10   15.13    5.34
  -2  -5   9   90.25   12.59
  -2  -5   8  100.45   12.59
  -2  -5   7    0.26    0.82
   2   5  -6    6.10    3.20
  -2  -5   6    2.21    1.34
  -2  -5   6    3.53    1.76
   2   5  -5    1.77    0.32
  -2  -5   5    2.11    0.81
  -2  -5   5    1.52    0.64
  -2  -5   5    2.98    1.84
   2   5  -5    3.36    1.09
   2   5  -4   52.43    4.98
  -2  -5   4   52.14    5.09
   2   5  -4   50.75    5.17
  -2  -5   4   45.99    6.43
   2   5  -4   40.70    6.49
  -2  -5   4   58.31    6.61
   2   5  -3   19.78    4.02
  -2  -5   3   24.39    4.46
  -2  -5   3   23.50    3.73
   2   5  -3   26.43    3.52
  -2  -5   3   22.21    3.14
   2   5  -3   25.97    4.07
   2   5  -2    0.68    0.49
  -2  -5   2    0.76    0.40
   2   5  -2    0.58    0.22
  -2  -5   2    1.22    0.69
   2   5  -2    1.14    0.69
  -2  -5   1   88.59    5.61
  -2  -5   1   83.74    5.36
   2   5  -1   92.24    5.81
   2   5  -1   95.91   10.12
   2   5  -1   82.26    6.77
   2   5   0    0.21    0.11
  -2  -5   0    0.50    0.28
   2   5   0    1.43    0.80
   2   5   0    1.11    0.57
  -2  -5  -1   20.54    2.15
   2   5   1   20.76    2.58
   2   5   1   20.38    3.39
   2   5   1   19.09    2.47
   2   5   1   19.52    5.45
  -2  -5  -2   11.64    1.54
   2   5   2   11.81    2.60
   2   5   2   14.18    2.13
   2   5   2    9.81    3.85
   2   5   2   11.03    1.66
   2   5   3    3.33    1.36
   2   5   3    2.66    0.74
  -2  -5  -3    2.92    0.83
   2   5   3    2.41    1.32
   2   5   4  100.64    7.51
  -2  -5  -4   95.91    5.97
   2   5   4   99.27    7.77
   2   5   4   89.71    4.09
  -2  -5  -5    6.31    1.60
   2   5   5    4.64    1.53
   2   5   5    6.53    1.09
   2   5   5    5.20    1.52
  -2  -5  -6   39.12    4.13
   2   5   6   36.37    4.68
   2   5   6   31.12    3.46
   2   5   7   35.27    3.29
  -2  -5  -7   37.74    4.20
   2   5   8    6.81    3.81
   2   5   8    4.59    1.23
  -2  -5  -8    4.69    1.58
   2   5   8    4.46    0.96
  -2  -5  -9   10.95    2.62
   2   5   9   22.56    6.63
   2   5   9   11.75    2.31
   2   5   9   16.19    1.69
   2   5  10    8.92    2.15
  -2  -5 -10    7.29    2.19
   2   5  11  122.62   11.79
  -2  -5 -11  107.28    9.31
  -2  -5 -12   39.64    5.96
   2   5  12   42.16    7.72
  -2  -5 -13   26.10    5.11
   2   5  13   25.16    6.41
   2   5  14    4.68    3.24
  -2  -5 -14    3.62    1.65
   2   5  15    2.88    2.53
  -2  -5 -15   -0.52    1.64
   2   5  16  195.98   18.84
  -2  -5 -16  109.48   12.62
   2   5  17   22.45    6.65
  -2  -5 -17    8.19    2.93
  -2  -5 -18   21.92    6.02
   2   5  18   46.86    9.47
   2   5  19    6.14    3.55
  -2  -5 -19    2.58    0.46
   2   5  20    1.44    0.70
  -2  -5 -20    1.12    1.80
  -2  -6  16   20.64    7.75
  -2  -6  15   20.99    6.80
  -2  -6  14   29.75    8.27
  -2  -6  13    6.83    3.46
  -2  -6  12    1.27    1.52
  -2  -6  11   48.44    9.95
  -2  -6  10   71.85   11.89
  -2  -6   9   80.26   11.80
  -2  -6   8   19.39    5.49
  -2  -6   7    7.83    3.30
  -2  -6   7   10.48    3.81
  -2  -6   6   81.33   10.33
  -2  -6   6   92.95   10.59
   2   6  -6   70.25    5.17
   2   6  -5  109.52    7.59
  -2  -6   5  134.77   11.64
  -2  -6   5  116.81    8.35
  -2  -6   5  116.84   11.97
  -2  -6   4   88.78    8.45
   2   6  -4   78.81    6.89
   2   6  -4   78.58    7.48
  -2  -6   4   78.60    6.48
  -2  -6   4   81.70    9.55
   2   6  -4   68.32    9.46
  -2  -6   3   19.74    3.05
   2   6  -3   22.18    5.06
  -2  -6   3   17.64    4.14
  -2  -6   3   20.33    3.62
   2   6  -3   22.75    3.50
   2   6  -3   19.85    4.25
   2   6  -2    0.96    1.08
  -2  -6   2    2.01    0.96
  -2  -6   2    3.14    1.29
   2   6  -2    2.78    1.14
   2   6  -2    2.30    0.82
   2   6  -1   91.63   11.66
  -2  -6   1   88.51    5.98
   2   6  -1   65.68    7.18
   2   6  -1   89.77    6.19
  -2  -6   1   85.42    5.76
   2   6   0   60.04    6.11
   2   6   0   66.74    5.15
   2   6   0   69.03    9.63
  -2  -6   0   65.24    4.63
   2   6   1   20.39    3.16
  -2  -6  -1   17.80    2.15
   2   6   1   18.63    2.66
   2   6   1   19.03    4.74
   2   6   2    3.27    1.14
   2   6   2    2.96    1.41
   2   6   2    5.41    2.20
  -2  -6  -2    2.67    0.89
   2   6   2    1.35    0.76
   2   6   3  105.94    5.55
   2   6   3  109.60    6.34
   2   6   3   99.33    9.47
   2   6   3  122.44    9.34
  -2  -6  -4   84.65    6.04
   2   6   4   82.59    7.74
   2   6   4   76.54    4.21
   2   6   4   78.75    7.78
   2   6   5    0.33    0.64
   2   6   5    0.26    0.20
   2   6   5   -0.04    0.33
  -2  -6  -5    0.01    0.38
  -2  -6  -6    0.70    0.48
   2   6   6    0.26    0.79
   2   6   6    0.49    0.56
   2   6   6    0.75    0.42
  -2  -6  -7   18.42    3.16
   2   6   7   18.73    2.92
   2   6   7   17.94    1.91
   2   6   7   18.17    3.78
  -2  -6  -8  172.37    9.91
   2   6   8  176.52   10.71
   2   6   8  163.94    7.87
   2   6   8  161.10   11.42
  -2  -6  -9   81.09    7.15
   2   6   9   90.27    7.48
   2   6   9   88.56    5.26
   2   6  10   24.57    3.94
  -2  -6 -10   15.93    3.21
   2   6  10   20.39    2.35
   2   6  11    3.57    1.69
   2   6  11    2.56    0.75
   2   6  11    2.32    1.65
  -2  -6 -11    2.48    1.19
   2   6  12   41.76    7.47
  -2  -6 -12   41.96    6.13
  -2  -6 -13   75.04    8.60
   2   6  13   91.59   11.88
  -2  -6 -14   78.00    9.28
   2   6  14  110.45   13.13
  -2  -6 -15    2.44    1.06
   2   6  15   16.69    5.47
  -2  -6 -16   14.61    4.14
   2   6  16   27.06    6.89
   2   6  17   42.60    8.62
  -2  -6 -17   20.04    5.35
   2   6  18   11.99    4.52
  -2  -6 -18    2.60    1.57
  -2  -6 -19   24.02    6.35
  -2  -7  16    3.13    2.75
  -2  -7  15   16.35    5.88
  -2  -7  15   22.07    7.80
  -2  -7  14    1.55    1.29
  -2  -7  14   -0.79    1.85
  -2  -7  13   25.44    7.16
  -2  -7  13   25.55    7.77
  -2  -7  12   49.89   10.05
  -2  -7  12   47.21   10.20
  -2  -7  11    4.37    3.00
  -2  -7  11   10.92    4.66
  -2  -7  10   71.77   11.71
  -2  -7  10   73.44   11.96
  -2  -7   9   -1.34    1.65
  -2  -7   9    1.29    1.66
  -2  -7   8  163.20   16.74
  -2  -7   8  162.97   16.26
  -2  -7   7  132.48   14.73
   2   7  -7   95.98    6.09
  -2  -7   7  146.81   14.46
   2   7  -6   74.38    6.29
  -2  -7   6   98.50   11.06
  -2  -7   6   97.21   12.28
  -2  -7   5  243.55   15.86
   2   7  -5  200.60   12.07
  -2  -7   5  226.93   17.90
   2   7  -4   12.10    3.01
  -2  -7   4   16.09    4.69
   2   7  -4   15.72    3.90
  -2  -7   4   11.89    3.26
  -2  -7   3  534.49   25.41
   2   7  -3  500.39   24.43
  -2  -7   3  522.97   19.32
   2   7  -3  478.97   17.14
   2   7  -2  109.98   12.14
  -2  -7   2  136.97   12.31
  -2  -7   2  131.52    7.89
   2   7  -2  137.06   14.42
  -2  -7   2  136.93    8.77
   2   7  -2  134.12    8.54
   2   7  -1  314.02   23.98
  -2  -7   1  307.64   11.80
   2   7  -1  304.21   12.31
  -2  -7   1  321.81   18.22
  -2  -7   0  321.18   17.73
  -2  -7   0  335.98   11.23
   2   7   0  283.51   16.33
   2   7   0  351.26   12.75
  -2  -7  -1   92.81    9.28
   2   7   1   84.75    8.01
   2   7   1   85.96    6.26
  -2  -7  -1   94.12    5.36
   2   7   2  633.68   19.78
   2   7   2  648.06   28.15
  -2  -7  -2  702.59   24.52
  -2  -7  -2  694.75   13.38
   2   7   2  701.30   17.47
   2   7   3   42.77    4.56
   2   7   3   46.53    4.37
   2   7   4  344.45   11.26
   2   7   4  332.76   12.00
   2   7   4  324.68   17.30
  -2  -7  -5  202.10   10.31
   2   7   5  185.47    7.24
   2   7   5  190.16   12.36
  -2  -7  -6  142.02    8.77
   2   7   6  138.59    9.81
   2   7   6  136.15    5.55
  -2  -7  -7  422.13   15.62
   2   7   7  395.12    8.91
   2   7   7  405.18   15.78
  -2  -7  -8    0.63    0.75
   2   7   8   -1.04    0.66
   2   7   8    0.09    0.26
   2   7   8    0.01    0.76
  -2  -7  -9  190.06   11.22
   2   7   9  190.97   12.39
   2   7   9  168.88    8.73
   2   7   9  155.17    5.75
   2   7  10   35.10    5.28
   2   7  10   31.55    2.79
  -2  -7 -10   41.83    5.49
   2   7  10   36.12    5.45
   2   7  10   40.09    4.01
  -2  -7 -11   82.95    8.13
   2   7  11   88.57    8.30
   2   7  11   95.75   10.47
   2   7  11   88.16    5.55
  -2  -7 -12  111.49    9.96
   2   7  12  111.44    5.68
   2   7  12  116.58    9.52
   2   7  13   11.89    3.90
  -2  -7 -13    3.97    1.72
  -2  -7 -14   32.87    6.00
   2   7  14   71.95   10.18
   2   7  15    2.19    2.86
  -2  -7 -15    0.85    1.50
   2   7  16   50.18    8.79
  -2  -7 -16   21.90    5.42
  -2  -7 -17   21.66    5.65
  -2  -7 -18    3.74    2.31
  -2  -7 -19    3.72    2.68
  -2  -8  15    1.69    1.95
  -2  -8  14    5.01    3.35
  -2  -8  14    1.04    2.00
  -2  -8  13   30.06    8.14
  -2  -8  13   32.34    8.48
  -2  -8  12    0.88    2.02
  -2  -8  12    0.56    1.89
  -2  -8  11   29.80    7.95
  -2  -8  11   29.80    7.66
  -2  -8  10   -4.06    2.90
  -2  -8  10    0.51    0.98
  -2  -8   9    1.18    1.64
  -2  -8   9    0.76    1.16
  -2  -8   8   41.85    8.24
  -2  -8   8   41.82    9.03
  -2  -8   7   37.13    8.31
  -2  -8   7   29.59    6.32
   2   8  -6   38.14    5.14
  -2  -8   6   45.30    8.80
  -2  -8   6   53.31    8.07
  -2  -8   5    8.60    3.40
   2   8  -5   10.54    2.92
  -2  -8   5    9.10    3.06
   2   8  -4    2.81    1.23
  -2  -8   4    0.91    1.03
   2   8  -4    1.81    1.09
  -2  -8   4    1.80    1.87
  -2  -8   3   19.75    5.28
   2   8  -3   20.13    3.66
   2   8  -3   22.91    5.54
  -2  -8   3   19.05    3.74
  -2  -8   2   66.13    6.23
   2   8  -2   49.88    9.73
   2   8  -2   56.68    9.87
  -2  -8   2   62.78    9.08
   2   8  -2   64.91    6.40
   2   8  -1    9.27    4.02
  -2  -8   1   11.08    3.64
   2   8  -1   13.10    2.63
  -2  -8   1   13.73    2.54
  -2  -8   0   34.90    3.74
   2   8   0   32.03    6.84
   2   8   0   38.21    4.47
  -2  -8   0   33.39    6.18
  -2  -8  -1   15.63    2.26
   2   8   1   14.80    2.77
  -2  -8  -1   13.11    3.77
   2   8   1   14.77    4.12
   2   8   2    0.71    0.85
  -2  -8  -2   -0.33    0.48
   2   8   2   -0.20    0.55
  -2  -8  -2    0.55    0.36
   2   8   3   19.42    3.84
   2   8   3   20.36    3.11
   2   8   4    5.45    1.76
   2   8   4    7.78    2.02
   2   8   5   30.36    3.84
   2   8   5   29.57    3.76
   2   8   6   94.21    9.00
   2   8   6  105.33    6.31
  -2  -8  -6   94.23    7.58
   2   8   7    4.77    1.98
  -2  -8  -7    3.68    1.62
   2   8   7    2.11    0.88
   2   8   7    3.48    1.06
   2   8   8   -0.03    0.54
   2   8   8   -1.18    1.32
   2   8   8    0.32    0.21
  -2  -8  -8    1.04    0.88
   2   8   9   31.99    5.52
   2   8   9   29.86    2.41
  -2  -8  -9   30.27    4.59
   2   8   9   28.86    4.18
   2   8   9   37.75    4.67
  -2  -8 -10    8.33    2.48
   2   8  10    9.74    2.74
   2   8  10    7.34    1.20
   2   8  10    8.05    2.12
   2   8  10    9.58    2.91
  -2  -8 -11  115.11    9.74
   2   8  11  122.08   10.68
   2   8  11  114.41    7.54
   2   8  12    4.55    2.19
  -2  -8 -12    2.50    1.85
   2   8  12    5.69    2.48
  -2  -8 -13    1.46    1.19
   2   8  13    3.65    2.06
  -2  -8 -14   17.75    4.41
  -2  -8 -15   -0.73    0.75
  -2  -8 -16   59.71    8.85
  -2  -8 -17    1.35    1.16
  -2  -8 -18   -0.91    1.68
  -2  -9  14   10.87    5.12
  -2  -9  13    6.11    3.89
  -2  -9  13    1.61    1.24
  -2  -9  12   31.33    8.75
  -2  -9  12   38.69    9.17
  -2  -9  11    3.07    2.48
  -2  -9  11    3.02    1.57
  -2  -9  10   32.15    8.52
  -2  -9  10   33.99    7.92
  -2  -9   9    0.83    1.54
  -2  -9   9    2.21    1.39
  -2  -9   8    6.24    3.66
  -2  -9   8    5.49    2.53
  -2  -9   7   29.94    7.74
  -2  -9   7   27.12    6.13
  -2  -9   6   -0.88    1.29
  -2  -9   6    1.05    0.80
  -2  -9   5   25.78    5.28
  -2  -9   5   27.88    7.28
  -2  -9   4    0.52    1.52
  -2  -9   4   -0.28    0.97
  -2  -9   3    3.24    2.30
   2   9  -3    2.37    1.51
  -2  -9   3    1.20    0.69
  -2  -9   2    8.61    3.98
   2   9  -2    9.00    2.49
  -2  -9   2    8.45    2.25
  -2  -9   1    2.80    1.32
   2   9  -1    2.76    3.35
   2   9  -1    2.29    1.20
  -2  -9   1    2.73    1.15
   2   9   0    8.91    4.41
   2   9   0    8.75    2.30
  -2  -9   0    7.63    1.84
  -2  -9   0   10.31    3.74
  -2  -9  -1    1.67    1.42
   2   9   1    1.00    0.95
   2   9   1    2.34    1.29
  -2  -9  -1    2.90    1.04
   2   9   2    2.62    2.59
   2   9   2    2.11    1.10
  -2  -9  -2    1.14    0.64
  -2  -9  -2    1.42    0.91
   2   9   3    4.72    2.54
   2   9   3    3.29    1.49
   2   9   4    3.02    1.35
   2   9   4    2.14    1.55
   2   9   5    6.44    2.39
   2   9   5    7.56    2.04
   2   9   6    1.15    0.86
   2   9   6    1.39    0.99
   2   9   7    0.39    1.42
  -2  -9  -7    3.94    1.82
   2   9   8    3.32    0.94
  -2  -9  -8    4.56    1.90
   2   9   9   -1.09    1.58
  -2  -9  -9    0.79    1.28
   2   9  10   19.05    4.49
  -2  -9 -10   20.23    4.08
  -2  -9 -11    0.84    0.72
   2   9  11   -0.79    0.12
  -2  -9 -12   13.86    3.77
   2   9  12   13.55    3.63
  -2  -9 -13    8.44    2.91
   2   9  13    6.91    2.94
  -2  -9 -14    3.02    1.65
   2   9  14    3.88    2.43
  -2  -9 -15   18.93    4.75
  -2  -9 -16    1.20    0.53
  -2  -9 -17   18.96    5.21
  -2 -10  11   -2.38    2.45
  -2 -10  11   -0.87    2.55
  -2 -10  10    4.49    2.44
  -2 -10  10   11.90    5.28
  -2 -10   9    7.07    4.57
  -2 -10   9   -0.42    2.08
  -2 -10   8   16.73    6.22
  -2 -10   8   15.50    4.90
  -2 -10   7   -2.37    2.30
  -2 -10   7    2.05    1.49
  -2 -10   6    1.64    2.31
  -2 -10   6    3.55    2.18
  -2 -10   5   16.39    6.09
  -2 -10   5   10.80    3.32
  -2 -10   4    4.05    1.74
  -2 -10   4   17.00    5.93
  -2 -10   3   25.01    6.77
  -2 -10   3   17.63    3.68
   2  10  -3   17.20    3.80
  -2 -10   2   -0.79    2.00
   2  10  -2    0.48    0.80
  -2 -10   2    1.78    1.23
  -2 -10   1    1.72    1.85
  -2 -10   1   -0.52    0.84
   2  10  -1    0.04    0.50
  -2 -10   0   11.53    4.17
   2  10   0   13.82    3.20
  -2 -10   0   12.39    2.30
  -2 -10  -1    1.01    1.98
   2  10   1    1.17    0.80
  -2 -10  -1   -0.46    0.44
   2  10   2    5.76    1.90
   2  10   3   -0.08    0.33
   2  10   4   14.63    3.04
   2  10   5    9.84    2.48
   2  10   6    5.52    1.83
   2  10   6    3.58    1.10
   2  10   7   -0.22    0.58
   2  10   7   -0.88    1.68
   2  10   8    5.63    1.69
   2  10   8    5.63    2.63
   2  10   9   30.49    6.56
  -2 -10  -9   25.73    4.75
   2  10  10   21.90    5.26
  -2 -10 -10   19.43    4.13
   2  10  11   13.99    4.29
  -2 -10 -11    7.69    2.69
  -2 -10 -12    2.89    1.80
   2  10  12    2.64    2.13
  -2 -10 -13    9.88    3.27
   2  10  13    9.25    3.39
  -2 -10 -14   12.61    3.76
   2  10  14   13.86    4.49
  -2 -10 -15   22.63    5.43
  -2 -11  10    3.38    2.47
  -2 -11   9   23.67    6.42
  -2 -11   8    0.48    1.06
  -2 -11   7   18.62    7.07
  -2 -11   7   13.42    4.25
  -2 -11   6   38.48    6.76
  -2 -11   6   41.33   10.10
  -2 -11   5   16.20    6.13
  -2 -11   5   15.79    4.12
  -2 -11   4   80.31   13.31
  -2 -11   4   71.24    8.12
  -2 -11   3    2.42    2.85
  -2 -11   2   68.00   11.71
   2  11  -2   54.87    7.08
  -2 -11   1   61.21   10.81
   2  11  -1   55.16    6.85
   2  11   0   50.30    6.35
  -2 -11   0   58.64   10.34
  -2 -11  -1  102.96   13.32
   2  11   1   95.08    8.56
   2  11   2    9.85    2.68
   2  11   3   67.21    6.90
   2  11   4   25.68    4.26
   2  11   5   69.45    7.10
   2  11   5   71.22   11.77
   2  11   6   56.44    6.33
   2  11   6   68.84   10.95
   2  11   7   20.49    4.05
   2  11   7   19.18    5.45
   2  11   8   38.92    5.39
   2  11   8   43.27    8.27
   2  11   9    9.54    2.70
   2  11   9    4.91    2.17
   2  11  10   33.11    5.17
   2  11  10   45.44    8.45
  -2 -11 -11   15.86    4.09
   2  11  11   19.64    5.39
  -2 -11 -12   12.58    3.79
   2  11  12   16.03    5.01
   2  11  13    7.88    3.70
  -2 -11 -13    9.83    3.30
   2  11  14    1.20    2.00
  -2 -12   2    1.00    1.98
   2  12  -1    2.95    1.71
  -2 -12   1    5.51    3.72
  -2 -12   0    2.73    2.33
   2  12   0    0.15    0.80
   2  12   1    3.97    1.48
   2  12   2    0.00    0.42
   2  12   3    1.05    1.48
   2  12   3    2.00    1.08
   2  12   4    1.25    0.88
   2  12   4    0.34    0.69
   2  12   5    0.73    0.96
   2  12   5    1.17    0.84
   2  12   6    7.12    2.29
   2  12   6    3.14    2.01
   2  12   7    5.97    2.15
   2  12   7    4.59    3.12
   2  12   8    6.92    2.30
   2  12   8    8.77    3.46
   2  12   9   -0.44    0.86
   2  12   9   -0.27    0.90
   2  12  10   14.82    5.15
   2  12  10    5.60    2.25
   2  12  11   -0.01    1.13
   2  12  11    1.63    0.81
   2  12  12    5.15    2.15
   2  12  12   13.85    4.73
   2  12  13    9.58    4.12
   3 -10 -10   -0.76    1.62
   3 -10  -9    2.88    1.69
   3 -10  -8   -1.66    3.98
   3 -10  -7    7.20    4.72
   3 -10  -6    0.42    1.42
   3 -10  -6    1.10    1.63
   3 -10  -5    2.62    2.36
   3 -10  -4    1.90    1.83
   3 -10  -3   -0.42    0.99
   3 -10  -2    0.07    0.72
   3 -10  -1   -1.92    2.26
   3 -10   0    2.18    2.29
   3  -9 -13    2.39    1.78
   3  -9 -12    6.94    2.48
   3  -9 -12    8.53    4.40
   3  -9 -11   -2.45    2.57
   3  -9 -11    3.93    1.92
   3  -9 -10   33.12    9.33
   3  -9 -10   26.68    4.80
   3  -9  -9    8.07    4.06
   3  -9  -8   12.49    5.37
  -3   9   7   16.73    6.18
   3  -9  -7   15.86    4.19
   3  -9  -7   11.54    5.07
  -3   9   6   -1.53    2.38
   3  -9  -6    1.03    1.25
   3  -9  -6    1.76    2.06
   3  -9  -5   66.05    9.01
  -3   9   5   56.44   11.97
   3  -9  -5   64.80   12.42
   3  -9  -4   -1.41    1.78
   3  -9  -4   -1.48    1.56
   3  -9  -3   26.41    6.14
  -3   9   3   30.05    9.28
   3  -9  -3   28.74    8.19
  -3   9   2   13.08    6.42
   3  -9  -2   20.73    5.63
   3  -9  -2   14.60    5.59
   3  -9  -1    0.94    1.81
   3  -9  -1    2.65    2.74
  -3   9   1    4.18    4.58
  -3   9   0   40.33   10.73
   3  -9   0   64.34   10.77
   3  -9   1    3.51    2.25
  -3   9  -1   -1.86    1.97
  -3   9  -2   29.26    9.41
  -3   9  -3    3.47    4.90
  -3   9  -4    3.20    2.57
  -3   9  -5   27.63    9.26
  -3   9  -6    3.32    2.48
  -3   9  -7   13.84    6.73
  -3   9  -8   -3.78    3.62
  -3   9  -9    7.68    5.17
   3  -8 -16    0.25    0.80
   3  -8 -15   -0.60    0.83
   3  -8 -14    3.00    1.53
   3  -8 -13    1.89    1.34
   3  -8 -13   -0.24    0.75
   3  -8 -12    5.81    2.21
   3  -8 -12    8.01    4.48
   3  -8 -11   -0.88    2.02
   3  -8 -11    5.59    2.32
   3  -8 -10    1.40    1.21
   3  -8 -10   -0.06    1.53
   3  -8  -9   21.27    3.95
   3  -8  -9   27.27    7.49
   3  -8  -8    1.32    1.17
   3  -8  -8   -2.27    2.21
   3  -8  -7   27.57    5.17
  -3   8   7   23.23    7.30
   3  -8  -7   25.94    7.46
  -3   8   6   10.16    5.03
   3  -8  -6    4.05    3.27
   3  -8  -6    7.27    2.76
   3  -8  -5   15.96    4.18
  -3   8   5   20.10    7.29
   3  -8  -5   20.37    6.34
  -3   8   4   41.12    9.57
   3  -8  -4   39.35    6.67
   3  -8  -4   38.38    8.78
   3  -8  -3    5.97    2.67
   3  -8  -3    0.92    1.19
   3  -8  -2   58.83    8.98
  -3   8   2   47.63   10.55
   3  -8  -2   40.91    8.97
   3  -8  -1    0.77    1.35
   3  -8  -1   -0.23    0.32
  -3   8   0   32.39    8.72
   3  -8   0   32.50    7.76
   3  -8   1   19.63    6.04
  -3   8  -1   25.33    8.15
  -3   8  -2   21.21    7.40
  -3   8  -3   33.09    9.44
   3  -8   4    2.38    1.95
  -3   8  -4    4.41    2.84
   3  -8   5   37.60    8.41
  -3   8  -5   29.14    9.13
   3  -8   6    6.89    3.52
  -3   8  -6    6.05    4.80
   3  -8   7   32.08    8.40
  -3   8  -7   18.44    7.49
   3  -8   8   13.19    5.54
  -3   8  -8    2.76    2.17
   3  -8   9   20.75    7.40
  -3   8  -9   14.33    6.18
   3  -8  10   14.21    6.21
  -3   8 -10   22.80    8.48
   3  -8  11   -0.45    3.78
  -3   8 -11    0.56    3.36
   3  -7 -17   11.24    3.85
   3  -7 -16   20.81    5.10
   3  -7 -15    1.71    1.55
   3  -7 -14   42.72    6.78
   3  -7 -13    6.23    2.40
   3  -7 -13    6.29    3.58
   3  -7 -12   18.65    4.10
   3  -7 -12   21.60    6.26
   3  -7 -11   17.90    3.82
   3  -7 -11   18.98    6.08
   3  -7 -10    5.63    2.11
   3  -7 -10    6.01    3.45
   3  -7  -9   56.37    6.10
   3  -7  -9   69.10   11.31
   3  -7  -8   15.09    5.20
   3  -7  -8   15.88    3.19
   3  -7  -7   16.48    3.65
   3  -7  -7   16.01    3.04
   3  -7  -7   13.85    4.72
  -3   7   6   15.16    2.01
   3  -7  -6   17.11    3.88
  -3   7   6   22.33    6.67
   3  -7  -6   19.54    5.59
   3  -7  -5    7.10    2.60
  -3   7   5    5.53    1.12
   3  -7  -5    7.84    3.49
  -3   7   5   10.02    4.44
  -3   7   4   47.16    2.94
   3  -7  -4   54.38    7.57
  -3   7   4   54.26   10.21
   3  -7  -4   51.39    9.21
  -3   7   3   17.98    1.62
  -3   7   3   28.54    7.65
   3  -7  -3   24.93    5.21
   3  -7  -3   24.47    6.27
   3  -7  -2    9.30    3.57
  -3   7   2    6.47    3.75
   3  -7  -2    4.41    2.32
   3  -7  -2    7.75    1.57
   3  -7  -1   20.35    3.63
  -3   7   1   20.22    6.26
   3  -7  -1   17.37    5.13
   3  -7   0    1.60    0.80
  -3   7   0    4.89    3.05
   3  -7   0    2.58    1.56
   3  -7   1   46.35    8.11
  -3   7  -1   37.83    9.11
   3  -7   1   37.31    7.70
   3  -7   2    9.86    3.31
  -3   7  -2   18.50    6.00
   3  -7   2   13.86    4.49
   3  -7   3   -4.74    2.80
  -3   7  -3   -1.54    3.98
   3  -7   3    4.75    2.66
   3  -7   4   10.25    4.32
  -3   7  -4    9.90    4.05
   3  -7   5   -0.18    2.32
  -3   7  -5   -4.13    3.97
   3  -7   6   42.82    9.57
  -3   7  -6   15.79    5.98
   3  -7   7    8.56    4.48
  -3   7  -7    3.26    0.91
   3  -7   8    6.98    4.09
  -3   7  -8   -1.72    4.64
   3  -7   9   16.39    6.09
  -3   7  -9    6.86    2.12
   3  -7  10    2.83    2.64
  -3   7 -10    4.97    3.10
   3  -7  11   25.86    8.28
  -3   7 -11   16.60    6.74
   3  -7  12   13.37    5.92
   3  -7  13    2.24    2.99
   3  -6 -18   -0.78    1.72
   3  -6 -17   -0.01    1.25
   3  -6 -16    3.73    2.37
   3  -6 -15    6.49    2.64
   3  -6 -14    0.46    0.17
   3  -6 -14    3.72    3.04
   3  -6 -13   -0.79    1.02
   3  -6 -13   -0.42    1.06
   3  -6 -12    7.34    2.55
   3  -6 -12   12.12    4.47
   3  -6 -11    1.20    0.91
   3  -6 -11    2.12    2.34
   3  -6 -10   15.10    3.29
   3  -6 -10   19.82    5.69
   3  -6  -9    0.91    1.03
   3  -6  -9    3.66    2.66
   3  -6  -8    1.00    0.85
   3  -6  -8    0.33    1.24
   3  -6  -7   15.01    2.77
   3  -6  -7   18.59    3.51
   3  -6  -7   17.20    4.83
   3  -6  -6    0.69    0.91
  -3   6   6    2.99    2.66
   3  -6  -6    0.81    1.01
   3  -6  -6    1.57    1.17
   3  -6  -5   21.42    4.09
  -3   6   5   22.42    6.36
  -3   6   5   22.08    4.11
   3  -6  -5   24.18    5.90
   3  -6  -5   25.21    3.56
  -3   6   4    2.48    1.39
   3  -6  -4    1.99    1.37
  -3   6   4    2.14    0.58
  -3   6   4    5.42    3.44
   3  -6  -4    2.37    1.31
  -3   6   3    0.46    0.89
   3  -6  -3    0.90    0.38
  -3   6   3    0.93    0.35
   3  -6  -3    2.94    1.37
   3  -6  -3    1.77    0.42
  -3   6   3    4.54    3.93
   3  -6  -3    0.38    0.49
   3  -6  -2   30.93    2.26
  -3   6   2   37.74    8.40
  -3   6   2   26.01    3.71
   3  -6  -2   29.45    4.42
   3  -6  -2   34.13    6.91
  -3   6   1    0.23    0.44
   3  -6  -1    2.10    1.42
  -3   6   1    1.11    2.80
   3  -6  -1   -0.28    0.49
   3  -6   0    9.59    3.45
  -3   6   0    6.04    3.54
  -3   6   0   10.27    2.22
   3  -6   0   10.87    3.59
   3  -6   1    0.69    0.82
  -3   6  -1   -0.93    1.64
  -3   6  -1    0.82    0.62
   3  -6   2    2.83    2.09
  -3   6  -2    0.35    0.47
  -3   6  -2    2.18    0.68
   3  -6   2    1.55    0.94
  -3   6  -3   22.69    3.24
   3  -6   3   39.92    8.28
  -3   6  -3   23.71    6.82
   3  -6   3   26.57    6.16
   3  -6   4    4.97    3.75
  -3   6  -4    7.39    4.02
  -3   6  -4    3.02    1.25
   3  -6   4    4.49    2.07
   3  -6   5   13.50    5.23
  -3   6  -5    8.93    4.65
   3  -6   6   10.61    4.99
  -3   6  -6    2.50    1.92
   3  -6   7    4.39    2.94
  -3   6  -7    6.27    3.63
   3  -6   8   56.84   11.17
  -3   6  -8   18.53    7.02
   3  -6   9    9.95    5.07
  -3   6  -9    0.06    1.49
   3  -6  10   21.29    6.83
  -3   6 -10    6.60    3.61
   3  -6  11   18.64    6.61
  -3   6 -11   18.74    6.58
   3  -6  12    2.82    2.97
  -3   6 -12   -7.47    4.11
   3  -6  13   43.48   10.05
   3  -6  14    2.43    2.66
   3  -5 -18    6.68    2.99
   3  -5 -17   -1.86    2.12
   3  -5 -16   11.03    3.83
   3  -5 -15   30.17    6.68
   3  -5 -15   22.73    5.38
   3  -5 -14   40.69    7.76
   3  -5 -14   24.01    5.23
   3  -5 -13   20.04    5.31
   3  -5 -13   12.91    3.68
   3  -5 -12   18.44    5.10
   3  -5 -12   13.78    3.46
   3  -5 -11   25.19    5.90
   3  -5 -11   22.65    4.19
   3  -5 -10   25.44    5.83
   3  -5 -10   26.03    4.22
   3  -5  -9   80.55   10.39
   3  -5  -9   70.76    6.54
   3  -5  -8   26.48    5.77
   3  -5  -8   19.67    3.27
   3  -5  -7   59.51    5.35
   3  -5  -7   66.50    5.94
   3  -5  -7   68.59    9.24
   3  -5  -6   35.65    3.86
   3  -5  -6   38.23    4.68
   3  -5  -6   42.17    7.13
   3  -5  -5   23.10    5.14
   3  -5  -5   23.97    3.05
   3  -5  -5   24.73    3.98
  -3   5   5   25.53    6.35
   3  -5  -4  150.53    7.40
   3  -5  -4  160.34   13.62
   3  -5  -4  143.81    3.95
   3  -5  -4  142.99    8.30
  -3   5   4  131.24   13.68
  -3   5   4  144.13    9.21
   3  -5  -4  167.15   10.99
  -3   5   3    7.52    0.96
   3  -5  -3    8.83    1.08
  -3   5   3    7.45    1.85
   3  -5  -3    6.74    2.16
  -3   5   3    6.61    3.55
   3  -5  -3    6.24    2.67
   3  -5  -2   91.82    9.22
  -3   5   2  105.34    6.81
   3  -5  -2  124.51   11.94
  -3   5   2  114.05   12.80
   3  -5  -1   37.04    6.52
  -3   5   1   30.78    3.45
  -3   5   1   32.35    7.02
   3  -5  -1   28.01    5.54
   3  -5   0    1.03    0.92
  -3   5   0   -0.24    0.98
  -3   5   0    1.77    0.62
   3  -5   0    1.05    0.75
  -3   5  -1  123.32    6.62
   3  -5   1  117.88   13.22
  -3   5  -1  125.79   13.90
   3  -5   1  149.36   13.09
  -3   5  -2    0.17    0.40
   3  -5   2   -0.33    1.25
  -3   5  -2    1.59    1.86
   3  -5   2    1.54    1.70
  -3   5  -3  100.87    6.17
   3  -5   3  115.10   14.27
  -3   5  -3   89.58   12.14
   3  -5   3  106.46   11.21
   3  -5   4    6.43    3.29
  -3   5  -4    5.44    1.48
   3  -5   4    2.57    1.57
   3  -5   5    1.71    2.24
   3  -5   5    0.62    0.43
  -3   5  -5   -0.93    1.23
   3  -5   5    2.16    1.31
   3  -5   6   78.07    4.77
   3  -5   6   85.61   12.95
  -3   5  -6   52.74    9.75
   3  -5   6   75.41    9.60
   3  -5   7   10.38    1.95
  -3   5  -7    5.65    2.48
   3  -5   8   81.34   12.99
  -3   5  -8   36.96    8.37
   3  -5   9    1.79    2.51
  -3   5  -9   -3.09    2.44
   3  -5  10    1.33    2.40
  -3   5 -10   -1.34    2.34
   3  -5  11   30.52    8.27
  -3   5 -11   18.91    6.35
   3  -5  12   16.40    5.99
  -3   5 -12   23.18    6.80
   3  -5  13   25.81    7.90
   3  -5  14    5.12    3.35
   3  -5  15   -0.62    2.98
   3  -4 -19    0.51    2.05
   3  -4 -18   -0.16    1.16
   3  -4 -17   11.05    3.95
   3  -4 -16   26.40    6.37
   3  -4 -15    0.88    0.89
  -3   4  15   -0.14    0.77
   3  -4 -15    1.59    1.70
   3  -4 -14   -0.01    0.92
   3  -4 -14    0.57    1.02
  -3   4  14    0.74    0.51
   3  -4 -13    6.05    2.69
  -3   4  13    4.82    1.53
   3  -4 -13    8.10    3.03
   3  -4 -12   19.04    4.70
  -3   4  12   19.91    2.84
   3  -4 -12   28.40    5.31
  -3   4  11  100.03    5.54
   3  -4 -11  105.22    9.62
   3  -4 -11  114.77   11.61
   3  -4 -10    4.18    2.40
   3  -4 -10    6.00    2.05
   3  -4 -10    8.19    3.34
  -3   4  10    5.38    1.15
   3  -4  -9    0.26    1.55
   3  -4  -9    0.69    0.55
   3  -4  -9    1.58    1.20
   3  -4  -8   39.21    4.62
   3  -4  -8   34.46    4.86
   3  -4  -8   39.19    6.29
   3  -4  -7   18.68    4.33
   3  -4  -7   20.06    2.85
   3  -4  -7   17.38    2.78
   3  -4  -7   15.23    2.67
   3  -4  -6  274.33   11.09
   3  -4  -6  254.13   10.01
   3  -4  -6  257.48    8.54
   3  -4  -6  274.09   16.60
   3  -4  -5    4.50    2.29
   3  -4  -5    2.80    1.04
   3  -4  -5    3.30    1.36
   3  -4  -5    3.27    0.79
   3  -4  -4   21.08    4.44
   3  -4  -4   23.58    2.69
   3  -4  -4   23.47    1.88
  -3   4   4   20.17    5.11
   3  -4  -3   72.15    4.51
   3  -4  -3   70.02    3.28
  -3   4   3   67.82    9.09
  -3   4   3   69.11    5.48
   3  -4  -3   80.18    8.69
   3  -4  -2    0.41    0.84
  -3   4   2    0.24    0.50
  -3   4   1  366.77   21.11
   3  -4  -1  380.34   18.85
  -3   4   1  358.04   10.67
  -3   4   0    2.27    0.78
  -3   4   0    3.32    2.66
   3  -4   0    1.72    1.21
  -3   4  -1   67.22    4.29
  -3   4  -1   64.41    9.16
   3  -4   1   78.69    8.52
  -3   4  -2   35.48    6.88
   3  -4   2   38.60    6.05
  -3   4  -2   33.75    3.05
  -3   4  -3   14.20    4.29
   3  -4   3   17.98    5.01
   3  -4   3   15.86    3.83
  -3   4  -3   15.37    2.12
   3  -4   4  310.11   21.54
  -3   4  -4  266.54   19.42
   3  -4   4  299.54    6.68
   3  -4   4  285.11   16.83
   3  -4   5   24.09    2.39
   3  -4   5   18.08    5.48
  -3   4  -5   19.00    4.90
   3  -4   5   23.40    4.89
   3  -4   6   59.42   10.49
  -3   4  -6   55.23    8.98
   3  -4   6   74.75    5.09
   3  -4   6   74.34    8.73
   3  -4   7    4.98    2.30
   3  -4   7    5.77    1.70
  -3   4  -7    2.82    2.03
   3  -4   7   10.60    3.22
   3  -4   8   37.59    8.36
   3  -4   8   36.75    4.78
  -3   4  -8   25.05    6.08
   3  -4   9  191.59   19.84
   3  -4   9  159.56   11.00
   3  -4  10   37.87    9.15
  -3   4 -10   22.28    6.11
  -3   4 -11   45.75    8.40
   3  -4  11   52.01   10.43
   3  -4  12    4.95    4.20
  -3   4 -12   -1.44    2.96
   3  -4  13   43.36   10.01
  -3   4 -13   43.84    8.32
   3  -4  14   74.52   12.79
   3  -4  15   35.78    9.08
   3  -4  16   22.47    6.94
   3  -3 -19    3.22    2.90
   3  -3 -18   49.98    9.68
   3  -3 -17    9.72    4.27
  -3   3  17    1.89    1.56
  -3   3  16   36.81    6.17
   3  -3 -16   38.52    8.15
  -3   3  15   59.15    7.37
   3  -3 -15   58.49    9.56
   3  -3 -14    0.45    0.94
  -3   3  14    1.78    1.26
   3  -3 -14    3.62    2.82
  -3   3  13   81.04    7.43
   3  -3 -13   91.19   10.02
   3  -3 -13   83.15   10.13
   3  -3 -12    0.30    0.67
  -3   3  12    0.93    1.02
  -3   3  11   89.24    6.42
   3  -3 -11  104.51   12.41
   3  -3 -11   96.30    9.71
   3  -3 -11   92.45    9.75
   3  -3 -10   78.73    9.68
   3  -3 -10   93.23    8.90
  -3   3  10   88.15    5.78
   3  -3 -10   95.59    9.60
   3  -3  -9    4.01    1.57
   3  -3  -9    3.90    2.29
   3  -3  -9    1.85    0.88
  -3   3   9    3.09    0.98
  -3   3   8  130.44    5.73
   3  -3  -8  149.35    9.43
   3  -3  -8  118.04    8.73
   3  -3  -8  145.34   11.33
   3  -3  -7    6.98    1.70
   3  -3  -7    7.82    2.58
  -3   3   7   10.87    2.72
  -3   3   7   10.34    1.49
   3  -3  -7   10.67    2.24
   3  -3  -6  112.03    6.10
   3  -3  -6  114.52    6.07
  -3   3   6  116.33    8.99
   3  -3  -6  109.37    6.73
   3  -3  -6  118.47    9.80
   3  -3  -5   84.02    5.27
   3  -3  -5  102.15    8.98
   3  -3  -5   84.39    4.42
   3  -3  -5   93.28    6.02
  -3   3   5   81.17    7.52
   3  -3  -5   84.15    9.07
  -3   3   4   11.36    2.82
   3  -3  -4   11.70    3.01
   3  -3  -4   10.08    1.67
   3  -3  -4    9.33    1.31
   3  -3  -4   10.31    2.93
   3  -3  -3  115.19    5.11
   3  -3  -3  128.08   10.59
   3  -3  -3  117.76    9.56
  -3   3   3  113.01    9.13
   3  -3  -3  117.37    4.48
   3  -3  -2   17.70    1.90
   3  -3  -2   18.87    3.81
   3  -3  -2   18.64    1.85
   3  -3  -2   18.96    3.98
  -3   3   2   17.50    2.32
  -3   3   1  116.75    5.33
   3  -3  -1  126.68   10.04
   3  -3  -1  120.96    9.51
  -3   3   0   43.84    3.02
   3  -3   0   44.81    5.90
   3  -3   1    4.76    2.13
  -3   3  -1    5.15    1.00
  -3   3  -1    6.75    3.00
  -3   3  -2   75.57    3.91
  -3   3  -2   74.92    8.85
   3  -3   2   84.25    7.99
   3  -3   3   27.99    1.53
   3  -3   3   33.12    4.99
  -3   3  -3   30.26    5.72
  -3   3  -4   46.54    7.06
   3  -3   4   64.05    3.53
  -3   3  -4   55.10    7.88
   3  -3   4   55.38    6.71
  -3   3  -5   23.00    5.28
   3  -3   5   36.39    3.48
  -3   3  -5   26.69    5.47
   3  -3   5   30.74    5.09
   3  -3   6    6.27    1.70
   3  -3   6    4.52    2.37
  -3   3  -6    5.42    0.96
   3  -3   6    5.62    2.19
   3  -3   7   35.04    7.44
  -3   3  -7   27.90    5.72
   3  -3   7   38.75    5.89
   3  -3   8   16.17    5.77
  -3   3  -8   14.97    3.95
   3  -3   9   21.29    6.36
  -3   3  -9   14.61    4.07
   3  -3  10   10.08    4.26
  -3   3 -10    8.06    2.92
   3  -3  11    1.43    1.58
  -3   3 -11    2.54    1.62
   3  -3  12   21.36    6.52
  -3   3 -12   19.77    2.82
  -3   3 -12   19.85    4.84
   3  -3  13   25.22    7.19
  -3   3 -13   33.55    6.24
   3  -3  14   11.21    4.83
   3  -3  15    5.69    4.13
   3  -3  16    3.71    3.30
   3  -3  17    7.16    3.70
  -3   2  19    4.64    2.83
   3  -2 -19   10.75    5.43
  -3   2  18    6.48    3.25
   3  -2 -18   15.06    5.88
   3  -2 -17   11.44    4.84
  -3   2  17    9.51    4.40
   3  -2 -16    7.76    3.18
   3  -2 -16   10.63    4.85
  -3   2  16    2.85    1.78
   3  -2 -15   42.16    8.77
  -3   2  15   19.06    4.88
   3  -2 -15   37.66    6.57
   3  -2 -14   17.89    4.57
  -3   2  14   16.35    4.10
   3  -2 -13   13.36    4.09
  -3   2  13   12.70    3.47
   3  -2 -12   19.96    4.69
  -3   2  12   16.25    3.57
   3  -2 -12   11.01    4.05
   3  -2 -11   28.54    6.34
  -3   2  11   29.05    4.32
   3  -2 -11   33.63    6.35
   3  -2 -11   28.40    5.44
   3  -2 -10   69.01    8.08
   3  -2 -10   49.68    7.31
   3  -2 -10   71.81    8.55
  -3   2  10   60.96    5.69
   3  -2  -9   45.84    6.22
   3  -2  -9   67.37    7.64
   3  -2  -9   66.23    7.62
  -3   2   9   56.04    4.91
   3  -2  -8   10.48    2.39
   3  -2  -8   20.83    4.18
   3  -2  -8   13.27    3.11
  -3   2   8   12.35    2.07
   3  -2  -8   15.93    4.40
  -3   2   7   24.84    2.64
   3  -2  -7   24.95    3.50
   3  -2  -7   27.39    4.06
   3  -2  -7   26.48    5.29
   3  -2  -7   28.10    4.74
  -3   2   6   77.22    6.91
  -3   2   6   76.35    4.25
   3  -2  -6   84.85    6.31
   3  -2  -6   79.17    5.42
   3  -2  -6   87.46    4.10
   3  -2  -6   95.06    9.75
   3  -2  -6   91.15    8.14
   3  -2  -5  133.90    5.87
  -3   2   5  132.64    8.98
   3  -2  -5  125.75    5.87
   3  -2  -5  140.74   11.49
   3  -2  -5  129.95    6.85
   3  -2  -5  139.87    9.74
   3  -2  -4  121.75    5.74
   3  -2  -4  118.26    5.00
   3  -2  -4  123.46   10.31
   3  -2  -4  127.44    9.10
  -3   2   4  112.77    8.34
   3  -2  -3   15.94    1.73
   3  -2  -3   18.74    1.93
   3  -2  -3   14.97    3.42
   3  -2  -3   24.20    3.90
   3  -2  -2   49.32    5.93
   3  -2  -2   47.48    2.63
  -3   2   2   43.50    2.51
   3  -2  -2   46.83    5.39
   3  -2  -2   42.89    2.83
   3  -2  -1  152.01    9.97
  -3   2   1  147.66    5.38
   3  -2  -1  159.06    9.70
  -3   2   0  166.69    4.78
   3  -2   0  168.96   10.26
   3  -2   0  184.50   10.52
  -3   2  -1  114.41    3.70
   3  -2   1  127.78    8.75
   3  -2   1  128.61    8.77
  -3   2  -1  117.78   10.09
   3  -2   2    8.58    2.35
  -3   2  -2    6.50    2.72
  -3   2  -3   42.01    6.01
   3  -2   3   41.87    5.22
  -3   2  -4  160.16   11.70
  -3   2  -4  141.93   10.98
   3  -2   4  156.71   10.00
  -3   2  -5  132.77   10.73
   3  -2   5  139.88    9.66
  -3   2  -5  128.32   10.84
  -3   2  -6  102.82    9.50
   3  -2   6   94.92    8.27
  -3   2  -6   94.48    9.71
  -3   2  -7    2.13    1.54
  -3   2  -7    1.69    0.82
   3  -2   7    2.71    1.46
  -3   2  -8   15.26    4.15
   3  -2   8   17.39    3.59
   3  -2   8   21.51    5.58
  -3   2  -8   16.30    3.78
  -3   2  -9  117.73   10.47
  -3   2  -9   93.46   10.82
  -3   2 -10   46.74    6.62
  -3   2 -10   45.19    7.75
  -3   2 -11   68.29    5.37
   3  -2  11   57.39   10.57
  -3   2 -11   77.67    8.45
   3  -2  12    2.96    2.66
  -3   2 -12   -1.04    1.85
  -3   2 -12    0.64    0.55
   3  -2  13    3.54    2.08
  -3   2 -13    2.71    0.99
  -3   2 -13    4.43    1.51
   3  -2  14  122.89   16.10
   3  -2  15   35.06    8.93
   3  -2  16   58.31   11.29
   3  -2  17    1.79    2.08
   3  -2  18    3.51    3.37
  -3   1  21    1.40    1.71
  -3   1  20   41.81    8.95
  -3   1  19    9.70    4.41
  -3   1  18    2.15    1.41
   3  -1 -17   20.46    4.90
  -3   1  17   12.24    4.54
   3  -1 -16    8.29    2.50
  -3   1  16    2.57    2.06
   3  -1 -15  129.00   12.18
  -3   1  15   76.38   10.61
   3  -1 -14   11.91    3.43
  -3   1  14    6.94    3.05
   3  -1 -13   10.44    3.49
  -3   1  13    5.74    2.20
  -3   1  12   23.29    4.73
   3  -1 -12   25.89    5.15
   3  -1 -11   14.14    4.05
   3  -1 -11   13.97    3.69
  -3   1  11   18.04    4.00
  -3   1  10  187.04   11.71
   3  -1 -10  165.33   12.37
   3  -1  -9    7.71    2.62
   3  -1  -9   10.83    2.86
  -3   1   9   13.32    2.90
  -3   1   8   28.27    3.65
   3  -1  -8   20.51    3.69
   3  -1  -8   31.82    5.01
  -3   1   7   35.80    3.66
   3  -1  -7   27.61    3.88
   3  -1  -7   37.95    5.30
   3  -1  -6   58.11    4.93
  -3   1   6   61.01    4.35
   3  -1  -6   66.84    6.89
  -3   1   5  289.85    8.58
   3  -1  -5  295.40    6.20
   3  -1  -5  263.54    9.20
   3  -1  -5  299.32   13.98
   3  -1  -4    3.25    1.46
  -3   1   4    4.69    1.64
  -3   1   4    3.69    0.91
   3  -1  -4    3.92    1.94
   3  -1  -4    3.11    0.85
   3  -1  -3   47.43    3.13
  -3   1   3   51.10    4.00
   3  -1  -3   50.33    6.20
   3  -1  -3   46.86    3.36
   3  -1  -3   50.35    5.31
   3  -1  -2   36.66    2.65
  -3   1   2   35.47    2.48
   3  -1  -2   38.09    2.31
   3  -1  -2   38.76    5.03
   3  -1  -2   42.10    4.73
   3  -1  -1  141.37    3.21
   3  -1  -1  134.86    5.14
  -3   1   1  131.73    3.49
   3  -1  -1  134.50    8.93
   3  -1  -1  134.31    8.17
   3  -1   0  291.42   12.41
   3  -1   0  286.76   11.59
   3  -1   1   -0.11    0.53
   3  -1   1    0.19    0.12
   3  -1   1   -0.21    0.65
   3  -1   2   41.31    4.23
   3  -1   2   40.79    4.33
   3  -1   3    7.53    2.04
   3  -1   3    5.92    1.51
  -3   1  -3    6.00    2.33
  -3   1  -4   96.49    8.01
   3  -1   4  108.10    7.29
  -3   1  -4   97.66    7.83
  -3   1  -5  133.92    9.54
   3  -1   5  142.29    8.63
  -3   1  -5  147.83    9.81
  -3   1  -6    2.65    1.30
  -3   1  -6    2.83    1.59
   3  -1   6    0.71    0.36
  -3   1  -7   15.63    3.62
  -3   1  -7   12.93    2.92
   3  -1   7   13.80    2.80
  -3   1  -8    0.23    0.75
  -3   1  -8    2.04    1.56
   3  -1   8    0.19    0.53
  -3   1  -9   38.90    4.90
  -3   1  -9   36.10    5.80
   3  -1  10   32.77    7.21
  -3   1 -10   18.98    4.28
  -3   1 -10   28.90    3.56
  -3   1 -10   26.21    4.03
  -3   1 -11   -0.78    1.25
   3  -1  11    0.90    0.94
  -3   1 -11    0.72    0.57
  -3   1 -11    0.47    0.44
  -3   1 -12    0.40    0.65
   3  -1  12    1.88    2.24
  -3   1 -12    2.61    1.10
  -3   1 -12    3.29    1.49
  -3   1 -13    5.52    2.34
   3  -1  13   -0.32    2.03
  -3   1 -13    3.79    1.45
  -3   1 -13    6.14    1.71
   3  -1  14    9.48    3.77
   3  -1  15    4.15    2.62
   3  -1  16    0.68    1.94
   3  -1  17   -1.15    2.53
   3  -1  18    1.83    2.08
   3  -1  19    4.46    2.30
  -3   0  21    8.95    4.80
  -3   0  20   23.30    6.99
  -3   0  19    3.09    2.50
  -3   0  18    0.95    1.52
   3   0 -17    0.31    1.29
  -3   0  17   -0.01    1.32
   3   0 -16   18.23    4.69
  -3   0  16   16.01    5.44
   3   0 -15  104.21   11.26
  -3   0  15   71.37   11.01
   3   0 -14   12.74    3.77
  -3   0  14    6.50    2.77
   3   0 -13   -0.47    0.28
  -3   0  13   -0.74    1.89
   3   0 -12    3.76    2.02
  -3   0  12    0.06    1.04
   3   0 -11   30.00    5.49
  -3   0  11   31.68    5.78
   3   0 -10  175.65   13.86
   3   0 -10  212.87   14.35
   3   0  -9   13.18    3.46
   3   0  -9   19.60    4.17
  -3   0   9   14.41    3.26
   3   0  -8    3.35    1.51
   3   0  -8    7.58    2.35
  -3   0   8    3.98    1.55
   3   0  -7    8.41    2.24
   3   0  -7    8.55    2.82
  -3   0   7    9.05    2.15
   3   0  -6   48.99    4.89
  -3   0   6   56.30    4.70
   3   0  -6   63.95    6.81
  -3   0   5  557.89   13.47
   3   0  -5  522.26   13.95
   3   0  -5  545.36   19.06
  -3   0   4   10.25    2.16
   3   0  -4    8.68    2.45
   3   0  -4   10.12    1.69
  -3   0   4   11.02    1.71
   3   0  -3   31.60    2.70
  -3   0   3   34.86    3.34
  -3   0   3   34.82    2.84
   3   0  -3   35.33    4.43
   3   0  -2   16.86    1.89
  -3   0   2   20.06    2.07
   3   0  -2   18.14    3.01
   3   0  -1   14.92    2.55
  -3   0   1   13.47    1.40
   3   0  -1   14.94    1.74
   3   0  -1   13.56    1.62
   3   0   0  767.55   10.00
   3   0   0  758.03   17.83
   3   0   1    0.08    0.08
   3   0   1   -0.32    0.25
   3   0   2   93.01    6.02
   3   0   2   87.59    5.67
   3   0   3   13.17    2.25
   3   0   3   13.84    2.13
  -3   0  -3   15.00    2.65
   3   0   4    6.88    1.54
  -3   0  -4    6.43    1.72
   3   0   4    6.68    1.38
  -3   0  -5  633.00   18.00
   3   0   5  674.63   16.21
   3   0   6   17.66    2.63
  -3   0  -6   17.96    3.19
   3   0   7   73.15    5.65
  -3   0  -7   66.51    6.14
  -3   0  -8    6.47    1.99
  -3   0  -8    4.02    1.38
   3   0   8    4.56    1.38
  -3   0  -9   34.80    4.82
  -3   0  -9   35.26    4.03
  -3   0 -10  396.07   14.04
  -3   0 -10  340.44   15.46
  -3   0 -11   18.35    3.67
   3   0  11   28.77    6.69
  -3   0 -11   24.51    3.70
  -3   0 -12   56.08    6.54
  -3   0 -12   55.65    5.78
   3   0  12   53.95    9.78
  -3   0 -13    0.81    0.91
   3   0  13    1.37    1.65
   3   0  14   21.66    6.86
  -3   0 -14   33.43    5.18
   3   0  15  200.84   20.24
   3   0  16   21.38    6.68
   3   0  17   29.02    7.82
   3   0  18    3.38    2.27
   3   0  19   23.82    7.22
  -3  -1  20   29.46    8.24
  -3  -1  19   84.39   13.94
  -3  -1  18    4.00    3.50
  -3  -1  17    8.57    4.45
  -3  -1  16   66.20   11.83
  -3  -1  15   90.53   13.20
  -3  -1  14   86.62    5.39
  -3  -1  14  119.24   14.75
  -3  -1  13    1.24    0.58
  -3  -1  13   -0.77    1.48
  -3  -1  12   14.12    1.90
  -3  -1  12   18.33    5.01
  -3  -1  11   81.65   10.27
  -3  -1  11   65.24    3.67
  -3  -1  10  157.05    4.98
  -3  -1  10  200.65   15.05
  -3  -1   9  205.38   14.16
   3   1  -9  153.78   12.30
   3   1  -8    7.12    2.34
  -3  -1   8    8.86    2.70
  -3  -1   7   25.38    4.03
   3   1  -7   20.65    3.71
  -3  -1   6   78.30    6.38
  -3  -1   6   89.12    8.16
   3   1  -6   66.31    6.12
  -3  -1   5  334.42   11.66
  -3  -1   5  350.59   14.48
  -3  -1   4  222.85   10.07
  -3  -1   4  217.33    8.50
   3   1  -4  210.43    4.54
  -3  -1   3   54.28    3.88
  -3  -1   3   56.85    4.34
  -3  -1   2   16.54    1.97
  -3  -1   2   16.31    1.99
   3   1  -2   20.06    2.41
  -3  -1   1   34.38    2.58
  -3  -1   1   38.80    2.91
   3   1  -1   38.78    2.89
   3   1  -1   34.77    3.99
  -3  -1   0  382.97    7.92
   3   1   0  414.86   13.11
   3   1   0  400.66    8.42
   3   1   1  119.41    3.04
   3   1   1  116.67    6.53
   3   1   1  110.15    4.23
  -3  -1  -2  102.06    3.04
   3   1   2   98.94    3.47
   3   1   2   99.65    5.69
   3   1   3    2.66    0.99
  -3  -1  -3    4.80    1.32
  -3  -1  -3    3.29    0.68
  -3  -1  -4    2.00    0.64
   3   1   4    2.12    0.74
  -3  -1  -4    2.39    0.93
  -3  -1  -5  287.10    9.93
   3   1   5  290.51    7.16
   3   1   5  289.79    8.79
  -3  -1  -5  277.08   10.18
  -3  -1  -6   34.00    3.99
  -3  -1  -6   35.23    4.07
   3   1   6   38.33    3.29
  -3  -1  -6   35.58    3.66
  -3  -1  -7   79.73    6.29
  -3  -1  -7   82.02    5.65
   3   1   7   80.03    4.84
  -3  -1  -8    3.40    1.19
  -3  -1  -8    1.97    1.14
   3   1   8    2.88    0.96
  -3  -1  -9    0.77    0.96
  -3  -1  -9   -0.06    0.54
  -3  -1 -10  120.74    8.69
  -3  -1 -10  111.27    7.09
  -3  -1 -11    5.06    1.63
  -3  -1 -11    5.07    1.61
   3   1  12   33.22    7.30
  -3  -1 -12   28.39    3.66
  -3  -1 -13    4.11    1.48
   3   1  13    3.55    2.33
  -3  -1 -14    1.63    0.93
   3   1  14    1.55    1.64
   3   1  15   43.37    9.26
   3   1  16   -3.91    2.79
   3   1  17    5.53    3.81
   3   1  18    0.22    1.24
   3   1  19    0.99    0.99
  -3  -1 -19    7.56    4.51
   3   1  20   20.92    6.93
  -3  -1 -20   23.85    8.18
  -3  -2  19   14.89    6.19
  -3  -2  18    2.81    3.53
  -3  -2  17   10.96    5.41
  -3  -2  16    7.19    4.14
  -3  -2  15    7.28    4.57
  -3  -2  14   50.76   10.08
  -3  -2  14   37.07    5.16
  -3  -2  13    0.09    0.79
  -3  -2  13    0.49    1.83
  -3  -2  12    1.03    0.66
  -3  -2  12    0.98    1.34
  -3  -2  11   12.46    2.65
  -3  -2  11   15.78    5.27
  -3  -2  10   27.61    3.66
  -3  -2  10   32.40    6.59
  -3  -2   9  153.18    8.05
  -3  -2   9  175.80   14.25
   3   2  -8    0.06    0.48
  -3  -2   8    2.83    1.85
  -3  -2   8    2.15    0.96
  -3  -2   7    2.20    0.88
  -3  -2   7    1.11    0.79
  -3  -2   6   60.63    6.58
  -3  -2   6   54.02    5.85
  -3  -2   5  142.56    8.58
  -3  -2   5  144.66    9.21
  -3  -2   4  370.59   12.30
  -3  -2   4  389.27   13.42
  -3  -2   3   15.23    2.26
   3   2  -3   15.98    1.75
  -3  -2   3   16.00    2.39
  -3  -2   2   27.35    2.83
  -3  -2   2   31.25    2.99
  -3  -2   1   85.94    4.57
  -3  -2   1   79.25    4.40
  -3  -2   0  316.47    8.51
  -3  -2   0  301.82    8.10
   3   2   1  457.17    8.14
   3   2   2   26.31    2.05
  -3  -2  -2   26.46    1.99
  -3  -2  -3   62.08    3.28
   3   2   3   67.86    3.70
  -3  -2  -3   64.70    5.56
   3   2   3   67.99    4.41
  -3  -2  -4   52.75    3.44
  -3  -2  -4   55.36    5.33
   3   2   4   52.87    3.78
   3   2   4   50.84    3.51
  -3  -2  -5  369.19   10.50
  -3  -2  -5  374.12   14.25
   3   2   5  360.45    8.67
  -3  -2  -6  350.75   11.71
   3   2   6  320.14    7.55
  -3  -2  -6  321.15   13.54
  -3  -2  -7   34.14    4.58
  -3  -2  -7   40.55    4.50
   3   2   7   37.33    2.57
  -3  -2  -8   36.26    4.93
  -3  -2  -8   39.73    4.97
   3   2   8   29.31    2.31
  -3  -2  -9   11.21    2.89
  -3  -2  -9    9.46    2.72
  -3  -2 -10  254.08   15.11
  -3  -2 -11  157.54   12.86
  -3  -2 -12   48.65    7.70
   3   2  13    5.00    2.76
  -3  -2 -13    8.55    3.87
   3   2  14    0.17    1.63
  -3  -2 -14    3.66    3.46
   3   2  15   89.31   13.57
  -3  -2 -15  148.60   15.64
  -3  -2 -16   77.89   11.84
   3   2  16   44.95    9.61
   3   2  17   44.77    9.54
  -3  -2 -17   49.80    9.75
  -3  -2 -18    5.64    4.20
   3   2  18   -0.48    1.24
   3   2  19    3.78    3.56
  -3  -2 -19    1.34    1.97
   3   2  20   65.76   12.15
  -3  -2 -20   76.64   13.26
   3   2  21   12.08    5.74
  -3  -3  19   93.38   15.51
  -3  -3  18    5.72    4.26
  -3  -3  17    6.04    3.74
  -3  -3  16   24.72    7.51
  -3  -3  15    0.07    0.26
  -3  -3  15    0.07    0.66
  -3  -3  14  169.02   18.85
  -3  -3  14  131.02   11.40
  -3  -3  13    1.02    0.72
  -3  -3  13    0.33    2.42
  -3  -3  12    1.21    0.14
  -3  -3  12    1.62    0.94
  -3  -3  11   11.06    3.08
  -3  -3  11   12.59    4.36
  -3  -3  10   -0.17    0.41
  -3  -3  10    0.19    0.25
  -3  -3   9  303.94   19.89
  -3  -3   9  251.06   13.30
  -3  -3   8    8.53    1.55
  -3  -3   8    7.68    2.91
  -3  -3   8    5.26    1.75
  -3  -3   7    8.07    2.12
  -3  -3   7    9.49    2.78
  -3  -3   7   10.39    3.20
  -3  -3   6   13.99    2.55
  -3  -3   6   25.27    4.15
  -3  -3   6   16.52    3.53
  -3  -3   5   -0.26    0.32
  -3  -3   5    0.20    0.72
  -3  -3   4  505.36   15.52
  -3  -3   4  507.61   15.78
   3   3  -3   31.71    3.13
  -3  -3   3   28.12    3.37
  -3  -3   3   24.99    3.29
  -3  -3   3   28.25    3.35
  -3  -3   2    9.40    1.76
   3   3  -2    9.41    1.67
  -3  -3   2    9.36    1.78
  -3  -3   2    6.79    1.87
   3   3  -1   16.72    2.23
  -3  -3   1   12.49    2.53
  -3  -3   1   17.04    2.21
  -3  -3   1   16.58    2.19
  -3  -3   0    1.26    0.64
  -3  -3   0    1.80    0.64
  -3  -3   0    1.69    0.98
   3   3   1  495.51   10.44
  -3  -3  -1  458.21   16.03
   3   3   2   35.85    2.82
  -3  -3  -2   28.16    4.14
   3   3   2   30.52    2.62
  -3  -3  -2   33.85    2.73
  -3  -3  -3    1.88    0.71
   3   3   3    1.24    0.56
  -3  -3  -3    2.64    1.46
  -3  -3  -4   18.28    2.15
  -3  -3  -4   20.19    3.70
   3   3   4   21.75    2.52
   3   3   5   10.19    1.97
  -3  -3  -5    6.26    2.25
  -3  -3  -5    4.83    1.24
  -3  -3  -6  341.58   11.28
  -3  -3  -6  352.84   17.02
   3   3   6  325.80   11.92
   3   3   6  333.39    7.35
  -3  -3  -7   18.56    2.90
  -3  -3  -7   18.34    3.96
   3   3   7   20.19    1.44
   3   3   7   14.93    3.59
   3   3   8    9.87    0.96
  -3  -3  -8   11.19    2.48
   3   3   8   12.33    3.36
   3   3   9   11.32    3.33
  -3  -3  -9   15.24    3.10
  -3  -3 -10    3.77    1.36
   3   3  10    3.45    1.55
  -3  -3 -11  153.90   11.91
  -3  -3 -12   10.44    3.04
  -3  -3 -13   18.36    4.74
   3   3  13   10.91    3.92
   3   3  14   -0.92    2.31
  -3  -3 -14    3.19    2.24
   3   3  15    1.70    2.41
  -3  -3 -15    5.33    2.86
   3   3  16   29.39    7.47
  -3  -3 -16   35.65    7.47
   3   3  17    6.20    3.71
  -3  -3 -17    6.33    3.92
   3   3  18   10.35    4.35
  -3  -3 -18   12.36    4.68
   3   3  19   -0.21    0.87
  -3  -3 -19    3.88    2.91
   3   3  20    3.29    2.87
  -3  -3 -20    3.54    3.85
   3   3  21    6.79    3.79
  -3  -4  18   21.14    7.60
  -3  -4  17    1.83    2.77
  -3  -4  16   13.91    6.06
  -3  -4  15    1.54    1.78
  -3  -4  15    2.80    3.98
  -3  -4  14   27.76    6.01
  -3  -4  14   33.46    8.69
  -3  -4  13   22.97    5.24
  -3  -4  13   34.66    8.56
  -3  -4  12    0.55    0.98
  -3  -4  12   -0.70    1.49
  -3  -4  11   15.93    4.25
  -3  -4  11   18.93    5.60
  -3  -4  10    0.41    0.69
  -3  -4  10    0.68    0.86
  -3  -4   9   78.23   10.55
  -3  -4   9   63.76    7.81
  -3  -4   8   49.13    7.72
  -3  -4   8   48.52    6.50
  -3  -4   7   -0.08    0.67
  -3  -4   7    0.40    0.58
  -3  -4   6   34.23    3.99
  -3  -4   6   25.94    4.30
  -3  -4   6   26.15    4.20
  -3  -4   6   20.48    4.24
  -3  -4   5    9.80    2.43
  -3  -4   5   15.56    2.82
  -3  -4   5   10.43    2.41
  -3  -4   5   11.13    2.78
  -3  -4   4  163.89    9.69
  -3  -4   4  151.91    9.59
  -3  -4   4  175.62   10.08
  -3  -4   4  168.05    9.25
  -3  -4   3   54.56    5.52
  -3  -4   3   62.60    5.40
  -3  -4   3   61.27    5.20
  -3  -4   3   51.92    5.64
   3   4  -2    5.27    1.49
  -3  -4   2    4.34    1.28
  -3  -4   2    3.16    1.45
  -3  -4   2    5.33    1.43
   3   4  -2    6.06    1.58
   3   4  -1   31.12    3.53
  -3  -4   1   28.58    3.05
  -3  -4   1   19.88    3.82
   3   4  -1   29.37    3.19
  -3  -4   1   28.23    3.15
   3   4   0   47.30    3.70
   3   4   0   47.34    4.41
  -3  -4   0   57.86    7.60
   3   4   0   44.06    5.17
  -3  -4   0   51.96    3.90
  -3  -4   0   43.71    3.75
   3   4   1  266.80    8.76
   3   4   1  234.84    7.84
  -3  -4  -1  212.61   13.39
   3   4   1  243.35    9.89
  -3  -4  -1  260.50    8.21
   3   4   1  235.34   12.83
   3   4   2   40.68    3.41
  -3  -4  -2   39.87    6.01
   3   4   2   39.95    3.09
  -3  -4  -3   22.59    2.54
   3   4   3   20.96    2.51
   3   4   3   20.75    2.20
  -3  -4  -3   19.89    4.40
  -3  -4  -4   28.22    5.44
  -3  -4  -4   37.89    3.41
   3   4   4   35.68    3.47
  -3  -4  -5   89.78    5.54
   3   4   5   94.59    6.08
  -3  -4  -6  283.20   10.54
   3   4   6  294.67   11.57
   3   4   7   15.02    2.80
  -3  -4  -7   13.67    2.42
   3   4   8   56.73    8.44
  -3  -4  -8   50.73    5.16
  -3  -4  -9   22.25    3.69
   3   4   9   29.73    6.21
   3   4   9   22.72    2.20
   3   4  10  116.63   12.36
  -3  -4 -10   75.37    7.42
  -3  -4 -11  251.70   14.58
   3   4  11  331.67   20.65
  -3  -4 -12    1.51    0.91
  -3  -4 -13   59.82    8.04
   3   4  13   54.30    8.61
   3   4  14   11.40    4.14
  -3  -4 -14    9.92    3.53
  -3  -4 -15   45.58    7.96
   3   4  15   52.15    9.77
  -3  -4 -16  125.20   13.78
   3   4  16  123.23   15.52
   3   4  17    2.05    2.74
  -3  -4 -17    1.13    2.09
   3   4  18   40.75    8.91
  -3  -4 -18   37.40    8.08
   3   4  19    1.62    1.93
  -3  -4 -19    3.78    2.84
   3   4  20   31.52    8.10
  -3  -4 -20   39.62    9.01
   3   4  21   71.55   12.24
   3   4  22    0.85    1.33
  -3  -5  17    5.54    4.24
  -3  -5  16    2.48    2.95
  -3  -5  15   75.00   10.84
  -3  -5  15   82.66   13.97
  -3  -5  14   16.65    5.15
  -3  -5  14   25.99    7.68
  -3  -5  13   74.38   10.48
  -3  -5  13   97.05   14.58
  -3  -5  12   -0.31    1.80
  -3  -5  12    0.94    1.57
  -3  -5  11    3.72    2.55
  -3  -5  11    5.80    2.99
  -3  -5  10  141.49   15.48
  -3  -5  10  110.70   11.98
  -3  -5   9   50.67    8.65
  -3  -5   9   49.55    7.67
  -3  -5   8  186.74   15.59
  -3  -5   8  129.30   11.96
  -3  -5   7    7.68    2.84
  -3  -5   7    8.92    3.12
  -3  -5   6    2.76    1.47
  -3  -5   6    3.95    1.64
  -3  -5   5  169.53   10.27
   3   5  -5  168.77   10.42
  -3  -5   5  167.59   11.61
   3   5  -5  132.79   10.97
  -3  -5   5  146.72   11.19
  -3  -5   4  140.38    9.63
  -3  -5   4  124.92    9.97
  -3  -5   4  150.92    9.11
   3   5  -4  142.22    9.07
   3   5  -4  122.22    9.75
  -3  -5   3  182.39   11.57
   3   5  -3  162.22   10.33
   3   5  -3  180.41    9.65
  -3  -5   3  182.27    9.37
  -3  -5   3  176.41    9.78
  -3  -5   2   65.52    6.73
  -3  -5   2   59.57    5.10
  -3  -5   2   61.19    5.17
   3   5  -2   55.90    5.48
   3   5  -2   60.07    5.88
  -3  -5   1    3.27    1.25
   3   5  -1    2.22    1.14
  -3  -5   1    1.90    0.89
   3   5  -1    2.43    1.35
   3   5  -1    1.93    0.84
   3   5   0   94.56    5.90
   3   5   0  103.15    9.30
  -3  -5   0  111.86    5.99
   3   5   0   99.93    7.20
  -3  -5  -1  261.32    8.73
   3   5   1  242.63   15.48
   3   5   1  234.81    8.52
   3   5   1  252.89   11.39
   3   5   2   59.55    8.17
   3   5   2   58.40    5.58
   3   5   2   57.33    4.02
   3   5   3  113.25    7.81
   3   5   3  113.77    5.41
  -3  -5  -3  124.38    6.71
   3   5   4    1.07    0.51
  -3  -5  -4    2.37    0.93
  -3  -5  -5   19.57    2.76
   3   5   5   16.68    2.05
  -3  -5  -6  233.80   10.06
   3   5   6  256.43   11.33
  -3  -5  -7    2.60    1.30
   3   5   7    2.77    1.55
   3   5   7    2.57    0.86
   3   5   8  104.27    4.72
   3   5   8  108.86    8.37
  -3  -5  -8  104.08    7.48
   3   5   9    9.22    1.87
  -3  -5  -9    9.48    2.27
   3   5   9    7.57    0.85
   3   5  10    1.44    0.70
  -3  -5 -10    0.30    0.71
  -3  -5 -11  108.77    9.35
   3   5  11  116.70    6.26
  -3  -5 -12    2.74    1.63
  -3  -5 -13   50.43    7.13
  -3  -5 -14   13.77    3.59
   3   5  14   15.25    4.39
  -3  -5 -15   -0.67    2.07
   3   5  15    0.45    1.36
   3   5  16   27.33    7.17
  -3  -5 -16   28.83    6.25
   3   5  17    3.67    2.69
  -3  -5 -17   -0.29    0.54
   3   5  18   13.53    5.02
  -3  -5 -18   13.96    4.95
  -3  -5 -19   10.81    4.01
   3   5  19   11.32    5.08
   3   5  20    3.16    2.86
  -3  -5 -20    0.56    2.03
   3   5  21    2.51    0.65
  -3  -6  16    2.51    3.13
  -3  -6  15    2.08    2.30
  -3  -6  15    0.43    1.86
  -3  -6  14    1.35    2.46
  -3  -6  14   -0.91    2.50
  -3  -6  13    9.59    4.19
  -3  -6  13    8.06    3.65
  -3  -6  12   30.12    7.21
  -3  -6  12   39.55    8.93
  -3  -6  11    7.74    3.63
  -3  -6  11   16.07    5.28
  -3  -6  10   20.11    5.42
  -3  -6  10   15.26    4.88
  -3  -6   9   16.72    4.91
  -3  -6   9   11.52    3.91
  -3  -6   8   59.67    8.94
  -3  -6   8   56.00    8.69
  -3  -6   7   73.82    9.41
  -3  -6   7   68.30    9.30
  -3  -6   6   81.27    9.68
  -3  -6   6   98.23    9.97
  -3  -6   5   50.90    7.29
  -3  -6   5   56.03    6.95
   3   6  -5   49.84    6.02
  -3  -6   4   78.43    7.51
   3   6  -4   66.73    7.88
   3   6  -4   72.11    6.75
   3   6  -4   72.42    6.15
  -3  -6   4   68.12    8.18
  -3  -6   3  190.44   10.63
  -3  -6   3  202.27   10.30
  -3  -6   3  174.49   12.79
   3   6  -3  167.22   11.72
   3   6  -3  193.20   11.14
   3   6  -3  193.35   10.53
  -3  -6   2   59.46    7.22
  -3  -6   2   62.63    5.64
   3   6  -2   65.60    7.18
   3   6  -2   59.68    6.49
  -3  -6   2   63.21    5.53
   3   6  -2   69.24    5.99
   3   6  -1  244.44   10.76
   3   6  -1  215.99   11.24
   3   6  -1  241.56   15.14
  -3  -6   1  226.36    9.81
  -3  -6   1  234.97   10.16
   3   6   0   84.93    7.45
   3   6   0   88.81    6.22
  -3  -6   0   88.81    5.67
   3   6   0   79.86    6.26
   3   6   0   87.18    9.97
   3   6   1  201.36   11.53
  -3  -6  -1  201.52    7.97
   3   6   1  209.86    9.46
   3   6   1  188.41    8.68
   3   6   1  209.21   16.70
   3   6   2  266.11   13.19
  -3  -6  -2  282.57    9.11
   3   6   2  259.65   10.47
   3   6   2  250.00    9.22
   3   6   2  257.91   19.86
   3   6   3   26.39    2.77
   3   6   3   34.68    4.73
   3   6   3   28.18    7.14
   3   6   3   28.98    3.43
  -3  -6  -4  318.55   11.83
   3   6   4  301.20   14.29
   3   6   4  286.64    8.82
   3   6   4  267.42   22.49
  -3  -6  -5   35.20    4.03
   3   6   5   29.19    4.53
   3   6   5   32.29    2.91
   3   6   5   37.01    5.04
   3   6   6  216.17   12.52
  -3  -6  -6  221.78   10.34
   3   6   6  199.25    7.27
   3   6   6  195.81   10.70
   3   6   7  146.00    6.40
  -3  -6  -7  185.45    9.74
   3   6   7  163.93    8.71
  -3  -6  -8    4.41    1.63
   3   6   8    3.01    0.94
  -3  -6  -9  177.55   10.49
   3   6   9  183.64    9.96
   3   6   9  177.12    6.77
   3   6  10    2.85    0.67
  -3  -6 -10    2.77    1.34
   3   6  10    1.86    0.85
  -3  -6 -11  138.25   10.40
   3   6  11  151.59    8.60
   3   6  12   61.84    5.48
  -3  -6 -12   66.70    7.65
   3   6  13    1.50    1.53
  -3  -6 -13    0.28    0.29
  -3  -6 -14   63.52    8.37
   3   6  14   66.86    9.98
   3   6  15   -0.39    2.38
  -3  -6 -15   -0.12    1.22
  -3  -6 -16   59.18    8.90
   3   6  16   67.60   11.14
  -3  -6 -17   13.31    4.25
   3   6  17   18.76    5.80
  -3  -6 -18   -0.22    1.82
   3   6  18    6.50    3.67
  -3  -6 -19    9.89    3.06
   3   6  19   23.90    6.81
  -3  -7  15   14.64    5.02
  -3  -7  15   17.57    6.42
  -3  -7  14   -0.22    0.64
  -3  -7  14    1.52    0.98
  -3  -7  13   64.67   11.17
  -3  -7  13   72.33   12.71
  -3  -7  12    1.42    1.32
  -3  -7  12   -1.80    1.84
  -3  -7  11    5.65    3.39
  -3  -7  11   10.78    4.57
  -3  -7  10   18.50    5.77
  -3  -7  10   15.76    5.15
  -3  -7   9    1.20    1.52
  -3  -7   9   -0.38    1.56
  -3  -7   8  129.64   13.78
  -3  -7   8  104.01   12.80
  -3  -7   7    3.33    2.05
  -3  -7   7    3.15    2.56
  -3  -7   6   15.39    4.71
  -3  -7   6   14.23    3.95
  -3  -7   5   12.17    4.07
  -3  -7   5   11.36    3.29
   3   7  -5   16.07    3.69
   3   7  -5   13.03    2.64
  -3  -7   4    0.26    0.85
   3   7  -4    0.50    0.28
   3   7  -4    1.28    1.27
  -3  -7   4    1.27    1.21
  -3  -7   3  140.97    9.57
  -3  -7   3  127.98   11.99
   3   7  -3  142.02    9.63
   3   7  -3  132.07   10.51
   3   7  -3  108.91   10.64
   3   7  -2    4.61    1.90
  -3  -7   2    5.57    2.57
   3   7  -2    6.34    1.88
   3   7  -2    6.13    2.56
  -3  -7   2    4.69    1.70
   3   7  -1    5.36    2.07
  -3  -7   1    5.28    2.29
   3   7  -1    5.88    2.57
   3   7  -1    4.23    1.43
  -3  -7   1    5.82    1.73
   3   7   0   16.46    2.88
   3   7   0   15.67    4.83
  -3  -7   0   18.46    2.73
   3   7   0   15.47    3.24
   3   7   1    0.09    0.55
  -3  -7  -1    1.30    0.70
   3   7   1    2.38    1.88
   3   7   1    2.91    1.31
  -3  -7  -2  109.46    5.96
   3   7   2  106.24    7.10
   3   7   2  101.51    6.83
   3   7   2  114.34   15.00
   3   7   2  107.51   11.68
   3   7   3    0.16    0.39
   3   7   3    0.12    0.30
   3   7   3    0.11    1.05
   3   7   4    1.49    0.86
   3   7   4    1.79    0.88
   3   7   4    0.32    0.48
  -3  -7  -5   20.15    3.28
   3   7   5   20.95    2.48
   3   7   5   23.10    4.38
   3   7   6    9.36    1.62
  -3  -7  -6   11.16    2.48
   3   7   6   10.29    2.59
  -3  -7  -7   72.30    6.49
   3   7   7   55.79    3.98
   3   7   7   65.96    6.24
  -3  -7  -8   -0.69    0.91
   3   7   8    0.58    0.40
   3   7   8    1.01    0.79
   3   7   9    6.51    1.67
  -3  -7  -9    7.99    2.24
   3   7   9    6.40    1.38
   3   7   9    6.32    2.00
  -3  -7 -10   19.51    3.65
   3   7  10   17.59    3.44
   3   7  10   16.43    2.25
  -3  -7 -11   17.66    3.71
   3   7  11   17.06    3.33
   3   7  11   17.01    2.01
  -3  -7 -12   30.00    5.17
   3   7  12   37.19    4.93
  -3  -7 -13   -1.30    1.33
   3   7  13   -0.19    1.58
   3   7  13    1.50    1.64
   3   7  14    4.60    2.27
  -3  -7 -14    4.56    2.01
   3   7  15    4.18    2.33
  -3  -7 -15    5.62    2.27
   3   7  16   15.67    5.22
  -3  -7 -16    8.60    3.20
   3   7  17   17.50    5.27
  -3  -7 -17    9.92    3.77
  -3  -7 -18    0.13    0.97
  -3  -7 -19    1.80    1.46
  -3  -8  14   -2.04    3.10
  -3  -8  14    4.72    3.12
  -3  -8  13    4.07    2.80
  -3  -8  13    3.84    1.44
  -3  -8  12   14.68    5.09
  -3  -8  12   16.21    5.72
  -3  -8  11   -2.66    2.28
  -3  -8  11    1.17    1.43
  -3  -8  10   34.29    8.09
  -3  -8  10   37.25    8.11
  -3  -8   9    9.85    4.12
  -3  -8   9    5.42    2.10
  -3  -8   8    7.33    3.43
  -3  -8   8    4.63    2.28
  -3  -8   7   21.20    6.11
  -3  -8   7   20.44    5.19
  -3  -8   6    0.66    1.51
  -3  -8   6   -0.60    0.84
  -3  -8   5   47.64    6.82
   3   8  -5   38.95    5.75
  -3  -8   5   43.49    8.09
   3   8  -5   34.72    4.87
  -3  -8   4   30.21    6.47
   3   8  -4   26.12    4.60
  -3  -8   4   30.54    5.03
   3   8  -4   21.52    4.33
  -3  -8   3    8.53    3.32
   3   8  -3    5.14    1.78
   3   8  -3    5.94    2.38
  -3  -8   3    7.81    2.25
   3   8  -2   14.79    3.09
  -3  -8   2   13.59    4.20
   3   8  -2   14.22    4.08
  -3  -8   2   11.77    2.69
   3   8  -1    1.64    1.22
   3   8  -1    0.09    0.42
  -3  -8   1    0.08    0.18
  -3  -8   1    0.07    1.30
   3   8   0   47.12    5.30
  -3  -8   0   44.71    7.12
  -3  -8   0   45.10    4.48
   3   8   0   39.01    5.84
   3   8   1   56.55    5.55
  -3  -8  -1   51.50    4.45
   3   8   1   44.84    5.85
   3   8   2    7.24    1.89
  -3  -8  -2    7.17    1.63
   3   8   2    4.71    1.65
   3   8   3   14.92    2.85
   3   8   3   16.41    2.87
   3   8   4    2.81    1.05
   3   8   4    3.41    1.17
   3   8   5   40.27    3.92
   3   8   5   39.49    4.65
   3   8   5   34.16    5.74
   3   8   6   49.71    6.45
   3   8   6   46.20    3.94
  -3  -8  -6   50.92    5.64
   3   8   7   17.70    2.33
   3   8   7   23.16    4.14
  -3  -8  -7   19.78    3.48
  -3  -8  -8   17.47    3.40
   3   8   8   15.02    2.11
   3   8   8   18.44    3.45
   3   8   9   18.16    3.86
  -3  -8  -9   18.83    3.66
   3   8   9   15.57    2.12
   3   8   9   19.16    3.21
  -3  -8 -10   48.25    6.09
   3   8  10   38.37    3.43
   3   8  10   48.48    6.41
   3   8  10   47.70    4.64
  -3  -8 -11   48.63    6.38
   3   8  11   37.78    3.57
   3   8  11   50.51    6.47
   3   8  11   49.41    4.34
  -3  -8 -12   27.05    4.92
   3   8  12   39.09    5.66
   3   8  13   13.34    3.85
  -3  -8 -13   12.28    3.55
   3   8  13   13.64    3.33
   3   8  14   31.68    6.60
  -3  -8 -14   26.34    5.27
   3   8  14   30.81    5.02
  -3  -8 -15   26.91    5.66
  -3  -8 -16   29.62    6.24
  -3  -8 -17   22.58    5.70
  -3  -8 -18    1.76    1.24
  -3  -9  14   22.88    7.15
  -3  -9  13   -2.88    2.54
  -3  -9  12   12.13    4.51
  -3  -9  12   27.14    7.50
  -3  -9  11    5.59    3.11
  -3  -9  11    6.22    3.27
  -3  -9  10    5.41    3.20
  -3  -9  10    5.84    3.45
  -3  -9   9   29.68    7.74
  -3  -9   9   39.42    8.09
  -3  -9   8    8.50    4.09
  -3  -9   8    2.05    2.07
  -3  -9   7   37.26    7.11
  -3  -9   7   38.93    8.77
  -3  -9   6    6.58    3.12
  -3  -9   6    7.85    2.94
  -3  -9   5   14.50    5.17
  -3  -9   5   19.03    4.29
  -3  -9   4   35.57    7.62
  -3  -9   4   39.35    5.86
   3   9  -4   37.59    5.74
  -3  -9   3    8.00    3.46
   3   9  -3    4.64    1.92
  -3  -9   3   10.59    2.70
  -3  -9   2   47.08    5.54
  -3  -9   2   40.63    7.66
   3   9  -2   37.63    5.29
  -3  -9   1    0.43    1.87
   3   9  -1    3.40    1.34
  -3  -9   1    1.08    1.05
   3   9   0   18.15    4.79
  -3  -9   0   16.94    4.60
  -3  -9   0   24.63    3.40
   3   9   0   27.81    4.30
   3   9   1   11.63    3.39
  -3  -9  -1   15.80    2.58
   3   9   1   13.72    2.91
  -3  -9  -2   38.45    3.81
   3   9   2   36.20    4.69
   3   9   2   35.28    5.68
   3   9   3    8.42    2.58
   3   9   3   11.24    2.53
   3   9   4   13.32    2.80
   3   9   4   17.95    3.51
   3   9   5   15.51    3.03
   3   9   5   14.63    2.87
   3   9   6   -0.03    0.32
   3   9   6    0.36    0.41
   3   9   7   40.22    4.01
  -3  -9  -7   36.56    5.24
   3   9   8    0.01    0.39
  -3  -9  -8    1.65    1.06
  -3  -9  -9   26.83    4.61
   3   9   9   29.91    5.62
   3   9  10    0.61    1.43
  -3  -9 -10    3.40    1.79
  -3  -9 -11    5.35    2.31
   3   9  11    5.11    2.23
  -3  -9 -12   16.47    4.00
   3   9  12   26.43    4.99
  -3  -9 -13    1.83    1.49
   3   9  13    4.69    2.14
  -3  -9 -14    8.55    2.87
   3   9  14   20.66    4.52
  -3  -9 -15    0.52    0.42
  -3  -9 -16    2.03    1.74
  -3  -9 -17    2.27    2.15
  -3 -10  12    2.53    2.48
  -3 -10  11   21.61    7.42
  -3 -10  11   21.11    6.58
  -3 -10  10    6.32    3.80
  -3 -10  10    8.29    3.61
  -3 -10   9   20.09    6.70
  -3 -10   9   16.73    5.23
  -3 -10   8    2.72    2.36
  -3 -10   8    4.07    3.94
  -3 -10   7   24.42    7.33
  -3 -10   7   17.05    4.51
  -3 -10   6   53.44   10.54
  -3 -10   6   45.70    7.45
  -3 -10   5   44.39    9.38
  -3 -10   5   50.18    7.33
  -3 -10   4   41.95    6.18
   3  10  -4   46.36    6.69
  -3 -10   4   45.17    9.32
   3  10  -3   10.76    2.94
  -3 -10   3   17.91    6.04
  -3 -10   3   12.50    3.16
  -3 -10   2   71.00   11.03
  -3 -10   2   61.83    6.52
   3  10  -2   61.86    7.28
   3  10  -1   48.17    6.14
  -3 -10   1   60.19    9.92
  -3 -10   1   51.41    5.53
  -3 -10   0  129.26    8.18
   3  10   0  116.34    9.34
  -3 -10  -1   61.12    5.28
   3  10   1   54.75    6.21
   3  10   2   42.13    5.36
   3  10   3   86.48    7.69
   3  10   4   24.63    4.06
   3  10   5  140.20    9.76
   3  10   6   24.98    4.11
   3  10   7   41.17    5.41
   3  10   8   50.57    6.02
   3  10   8   62.84    9.20
   3  10   9    0.70    1.21
  -3 -10  -9    5.41    2.30
  -3 -10 -10   99.09    9.53
   3  10  10   92.76   10.72
   3  10  11    2.25    2.01
  -3 -10 -11    2.26    1.24
  -3 -10 -12   32.10    5.71
   3  10  12   42.75    7.06
  -3 -10 -13   13.28    3.79
   3  10  13   14.48    3.86
  -3 -10 -14    0.08    1.20
   3  10  14    2.01    2.00
  -3 -10 -15   38.63    6.92
  -3 -11  10    4.74    2.46
  -3 -11   9   10.08    5.39
  -3 -11   9    9.88    4.09
  -3 -11   8    9.03    5.18
  -3 -11   8    1.99    1.81
  -3 -11   7    9.77    4.96
  -3 -11   7    5.39    3.01
  -3 -11   6   -0.65    1.01
  -3 -11   6    1.36    1.27
  -3 -11   5   15.67    5.58
  -3 -11   5   13.81    3.90
  -3 -11   4    8.50    4.04
  -3 -11   4    9.86    3.03
  -3 -11   3    2.64    2.71
   3  11  -3    3.50    2.01
  -3 -11   3    4.34    1.92
   3  11  -2    6.92    2.75
  -3 -11   2    3.92    3.05
  -3 -11   2    3.66    1.49
   3  11  -1    1.96    1.34
  -3 -11   1   -0.21    1.22
  -3 -11   1   -0.12    0.50
   3  11   0    2.65    1.56
  -3 -11   0    2.96    1.13
   3  11   1    8.59    2.57
   3  11   2   -1.01    1.09
   3  11   3    0.01    0.60
   3  11   4    3.43    1.42
   3  11   5    0.93    1.17
   3  11   6    4.71    1.94
   3  11   7    1.69    1.42
   3  11   7    1.63    0.50
   3  11   8   -0.88    1.09
   3  11   8    1.69    1.33
   3  11   9    4.44    1.89
   3  11   9    6.54    2.64
   3  11  10    1.84    0.50
   3  11  10    4.49    3.13
   3  11  11    1.58    0.98
  -3 -11 -11    8.56    2.97
  -3 -11 -12    4.93    2.28
   3  11  12    3.94    2.50
   3  11  13   -1.81    1.44
  -3 -11 -13    1.00    0.99
   3  11  14    1.55    1.43
  -3 -12   4   13.03    5.38
  -3 -12   3    6.65    3.65
  -3 -12   2    0.55    1.06
   3  12  -2    1.81    1.37
   3  12  -1    0.64    0.40
   3  12   0    2.06    1.67
   3  12   1    9.45    2.91
   3  12   2    2.87    1.68
   3  12   3   -0.24    0.42
   3  12   4    4.42    2.11
   3  12   5    2.20    1.55
   3  12   6    6.99    2.39
   3  12   6    5.20    3.08
   3  12   7    2.89    1.60
   3  12   7   -0.04    1.23
   3  12   8    2.61    1.29
   3  12   8    2.90    2.77
   3  12   9    3.51    1.77
   3  12   9    2.22    2.00
   3  12  10    4.24    1.86
   3  12  10    3.29    2.80
   3  12  11    9.68    3.01
   3  12  11   11.65    3.66
   3  12  12    0.10    0.70
   3  12  12    4.49    1.92
   3  12  13   10.70    4.15
   3  13  -1    2.46    1.79
   3  13   0    1.37    1.21
   3  13   1    7.93    2.79
   3  13   2    1.09    1.25
   3  13   3    3.55    1.50
   3  13   4    0.21    0.94
   3  13   5    1.61    1.19
   3  13   6    8.18    2.71
   3  13   7    3.03    1.66
   3  13   8    3.58    1.80
   3  13   9   -1.35    1.34
   3  13  10    1.85    1.27
   3  13  11    2.89    1.96
   4 -10  -6    4.59    2.49
   4 -10  -5   51.53    8.66
   4 -10  -4    2.27    1.70
   4  -9 -11   -0.32    0.97
   4  -9 -10   13.43    6.65
   4  -9  -9    1.97    2.14
   4  -9  -8    4.87    3.49
   4  -9  -7    3.14    2.14
   4  -9  -7   -1.86    1.77
   4  -9  -6    3.47    2.34
   4  -9  -6    1.27    2.02
   4  -9  -5    1.92    1.29
   4  -9  -5    3.86    3.10
   4  -9  -4    0.76    1.07
   4  -9  -4    2.95    2.65
  -4   9   3   13.52    7.24
   4  -9  -3    1.93    1.87
   4  -9  -3    3.25    5.18
   4  -9  -2   -0.46    1.23
   4  -9  -2   -1.46    3.38
   4  -9  -1    1.36    1.15
   4  -9  -1   -0.67    2.19
   4  -9   0    0.73    1.83
  -4   9   0   -4.57    4.74
   4  -9   0   -2.88    2.52
   4  -9   1   -2.55    2.66
  -4   9  -1    9.31    6.50
  -4   9  -2    9.05    7.34
  -4   9  -3   -0.97    1.86
  -4   9  -4    4.07    4.72
   4  -8 -12   -1.04    1.62
   4  -8 -11    1.07    1.76
   4  -8 -10    4.93    2.93
   4  -8  -9    5.49    2.67
   4  -8  -8    9.20    2.94
   4  -8  -8   11.40    5.27
   4  -8  -7    2.91    1.85
   4  -8  -7    0.81    2.16
   4  -8  -6   -0.06    0.64
   4  -8  -6   -1.55    2.05
   4  -8  -5    1.90    1.21
   4  -8  -5    7.80    4.21
   4  -8  -4    2.51    2.10
  -4   8   4    2.64    3.06
   4  -8  -4   -1.32    2.38
  -4   8   3    8.50    5.36
   4  -8  -3   13.14    4.15
   4  -8  -3    9.86    4.61
   4  -8  -2    0.53    1.26
  -4   8   2    2.69    2.99
   4  -8  -2    3.55    2.11
   4  -8  -1    1.11    2.13
  -4   8   1    4.52    4.13
   4  -8  -1   -1.05    2.85
  -4   8   0    2.20    3.69
   4  -8   0    3.16    1.75
  -4   8  -1   -0.02    0.18
   4  -8   1    0.01    0.97
  -4   8  -2    6.18    4.74
   4  -8   2    7.70    3.91
  -4   8  -3    1.01    2.66
  -4   8  -4    9.92    6.40
  -4   8  -5   15.81    6.55
  -4   8  -6    7.71    6.79
  -4   8  -7    8.37    6.30
  -4   8  -8   -0.56    1.38
  -4   8  -9    1.85    4.52
   4  -7 -15    2.85    1.83
   4  -7 -14    9.64    3.16
   4  -7 -13    2.51    1.48
   4  -7 -13   -3.28    2.67
   4  -7 -12    2.75    1.54
   4  -7 -12    3.97    1.07
   4  -7 -11   10.73    2.92
   4  -7 -11   16.60    6.09
   4  -7 -10    7.77    2.42
   4  -7 -10    6.67    3.77
   4  -7  -9   13.67    2.95
   4  -7  -9   21.35    6.70
   4  -7  -8    0.82    0.79
   4  -7  -8   -0.29    0.33
   4  -7  -8   -0.93    1.50
   4  -7  -7    3.03    1.67
   4  -7  -7    0.54    1.40
   4  -7  -6   16.89    3.91
   4  -7  -6   15.10    5.30
   4  -7  -5    3.08    1.62
   4  -7  -5    3.70    3.11
   4  -7  -4   13.33    3.92
  -4   7   4   16.07    7.04
   4  -7  -4    8.92    3.79
   4  -7  -3    2.90    1.36
  -4   7   3    6.88    4.47
   4  -7  -3    2.97    0.87
  -4   7   2    3.60    3.49
   4  -7  -2   -1.57    2.31
  -4   7   1    5.00    3.76
   4  -7  -1   -0.76    1.69
  -4   7   0    4.44    3.98
   4  -7   0    0.59    1.48
  -4   7  -1    0.64    2.88
   4  -7   1    0.67    0.98
   4  -7   2   15.14    5.10
  -4   7  -2   19.61    7.52
   4  -7   2   17.42    5.43
   4  -7   3    0.71    1.21
   4  -7   3    1.47    1.83
   4  -7   4    3.45    2.68
  -4   7  -4    3.32    4.45
   4  -7   4    1.00    1.55
   4  -7   5    4.57    3.28
  -4   7  -5    4.06    2.67
   4  -7   6    5.36    3.51
  -4   7  -6   -4.68    3.67
   4  -7   7   17.04    6.08
  -4   7  -7   15.74    7.11
   4  -7   8   15.55    5.86
  -4   7  -8   -1.05    3.15
   4  -7   9    8.20    4.14
  -4   7  -9    9.19    5.38
   4  -7  10    0.96    1.61
  -4   7 -10   -8.43    4.96
   4  -7  11    7.33    3.58
   4  -7  12    3.32    2.83
   4  -6 -17    5.04    2.82
   4  -6 -16   10.15    3.82
   4  -6 -15    0.24    0.80
   4  -6 -14   41.72    9.01
   4  -6 -14   25.30    5.19
   4  -6 -13   14.58    5.44
   4  -6 -13    9.65    3.05
   4  -6 -12   30.24    7.46
   4  -6 -12   16.52    3.67
   4  -6 -11   45.71    6.00
   4  -6 -11   56.53   10.30
   4  -6 -10   -0.15    0.51
   4  -6 -10    0.81    1.13
   4  -6  -9   92.79    7.63
   4  -6  -9  140.75   15.79
   4  -6  -8   14.85    2.87
   4  -6  -8   16.09    3.28
   4  -6  -8   17.78    5.64
   4  -6  -7   90.81    6.84
   4  -6  -7   99.50   12.89
   4  -6  -7   99.61    8.38
   4  -6  -6  127.96   14.41
   4  -6  -6  132.80   10.12
   4  -6  -6  118.34    7.58
   4  -6  -5   12.04    3.23
   4  -6  -5   10.87    3.93
   4  -6  -4  290.19   16.55
   4  -6  -4  258.05   19.97
   4  -6  -3    5.76    2.21
  -4   6   3    9.73    5.74
  -4   6   3    5.91    2.12
   4  -6  -3    6.63    3.21
   4  -6  -2  157.14   13.24
  -4   6   2  189.26   19.78
  -4   6   2  170.50   10.15
   4  -6  -2  208.79   17.69
   4  -6  -1   80.33   10.65
  -4   6   1   93.46   14.18
   4  -6  -1  114.67   13.06
   4  -6   0   37.01    7.65
  -4   6   0   49.86   10.76
   4  -6   0   37.14    7.36
   4  -6   1  256.18   20.91
  -4   6  -1  227.29   22.60
   4  -6   1  241.55   18.87
   4  -6   2    1.17    1.09
  -4   6  -2   -0.78    0.78
  -4   6  -3  157.66   19.56
   4  -6   3  189.88   16.65
   4  -6   4   45.30    9.72
  -4   6  -4   21.81    7.45
   4  -6   4   37.23    7.37
   4  -6   5   66.52   11.54
  -4   6  -5   38.96    9.66
   4  -6   5   44.27    8.04
  -4   6  -6   63.29   12.70
   4  -6   6  111.98   12.82
   4  -6   7   23.54    7.27
  -4   6  -7    5.79    4.18
  -4   6  -8   59.06   12.24
   4  -6   8  127.58   16.93
   4  -6   9    4.83    3.89
  -4   6  -9    0.66    2.68
   4  -6  10   32.56    8.67
  -4   6 -10   26.90    8.11
   4  -6  11   37.67    9.37
  -4   6 -11   37.62   10.21
   4  -6  12   15.60    6.36
   4  -6  13   33.62    8.91
   4  -5 -18    0.81    1.72
   4  -5 -17   11.99    4.23
   4  -5 -16    0.97    0.80
   4  -5 -15    0.09    0.81
   4  -5 -15    3.00    2.44
   4  -5 -14   34.95    6.24
   4  -5 -14   60.06   10.03
   4  -5 -13    0.28    1.55
   4  -5 -13    1.76    1.26
   4  -5 -12   45.62    6.37
   4  -5 -12   55.07    9.51
   4  -5 -11    1.51    2.27
   4  -5 -11    0.54    0.68
   4  -5 -10    2.12    1.88
   4  -5 -10   -0.11    0.51
   4  -5  -9   50.46    5.44
   4  -5  -9   58.75    9.41
   4  -5  -8   16.44    4.78
   4  -5  -8   11.73    2.45
   4  -5  -8   10.31    2.31
   4  -5  -7   61.87    5.92
   4  -5  -7   52.38    4.92
   4  -5  -7   56.67    8.92
   4  -5  -6    7.58    1.70
   4  -5  -6    7.88    3.43
   4  -5  -6    6.36    1.24
   4  -5  -6    8.25    2.19
   4  -5  -5    1.35    2.01
   4  -5  -5   -0.25    1.03
   4  -5  -5    0.15    0.41
   4  -5  -5    0.50    0.30
   4  -5  -4   25.98    5.88
   4  -5  -4   22.15    2.04
  -4   5   4   20.89    1.28
  -4   5   4   20.72    1.62
   4  -5  -3    6.69    1.17
  -4   5   3   12.20    4.66
   4  -5  -3    7.01    3.10
   4  -5  -2   13.77    1.82
  -4   5   2   18.37    5.96
  -4   5   2   13.39    2.46
   4  -5  -2   13.47    3.97
  -4   5   1   18.73    6.32
  -4   5   1   11.95    2.27
   4  -5  -1   13.74    3.96
  -4   5   0   26.84    3.27
   4  -5   0   28.39    5.74
  -4   5   0   27.57    7.19
   4  -5   0   30.17    6.08
   4  -5   1    4.45    2.20
  -4   5  -1    5.26    3.35
  -4   5  -1    3.45    1.18
   4  -5   1    4.91    2.33
  -4   5  -2    0.05    0.22
   4  -5   2    0.37    0.85
   4  -5   3    0.64    1.49
   4  -5   3    2.26    1.04
   4  -5   4    3.93    2.31
  -4   5  -4    5.27    3.59
   4  -5   4    2.89    1.77
  -4   5  -4    2.96    1.03
  -4   5  -5   63.67    5.15
  -4   5  -5   67.47   11.73
   4  -5   5   67.91   11.59
   4  -5   5   64.53    9.08
   4  -5   6    0.44    1.36
  -4   5  -6    0.28    1.31
   4  -5   6   -1.07    1.90
   4  -5   7   10.01    3.89
  -4   5  -7    3.99    1.53
   4  -5   7    8.33    3.25
   4  -5   8   11.05    4.73
  -4   5  -8    3.93    3.01
   4  -5   9    0.84    1.80
  -4   5  -9   -1.21    2.73
   4  -5  10   82.62   13.43
  -4   5 -10   61.73   11.60
   4  -5  11    7.15    4.20
  -4   5 -11    0.53    2.22
   4  -5  12   12.20    5.44
   4  -5  13    9.09    4.62
   4  -5  14    1.85    2.78
   4  -4 -18   25.48    6.57
   4  -4 -17   -0.10    1.75
   4  -4 -16   40.39    7.74
   4  -4 -15   13.52    4.29
   4  -4 -15   13.84    4.24
   4  -4 -14   13.58    4.30
   4  -4 -14    9.75    3.35
   4  -4 -13   22.20    5.72
   4  -4 -13   17.45    4.19
   4  -4 -12    0.97    1.57
  -4   4  12    0.67    0.62
   4  -4 -12   -1.18    1.52
   4  -4 -11   55.38    6.79
   4  -4 -11   61.76    9.30
   4  -4 -10    0.82    0.83
   4  -4 -10    0.90    0.95
   4  -4  -9   12.04    3.89
   4  -4  -9    8.36    2.42
   4  -4  -9    6.22    1.81
   4  -4  -8    1.53    0.91
   4  -4  -8    1.25    0.75
   4  -4  -8    2.78    0.95
   4  -4  -8    2.12    0.92
   4  -4  -7    2.06    0.89
   4  -4  -7    0.66    0.87
   4  -4  -7    2.26    1.04
   4  -4  -7    3.12    1.19
   4  -4  -6   25.66    5.50
   4  -4  -6   25.80    3.13
   4  -4  -6   29.69    3.88
   4  -4  -6   24.34    2.75
   4  -4  -5    2.17    1.94
   4  -4  -5    1.59    0.74
   4  -4  -5    2.09    0.64
   4  -4  -4    4.48    2.49
  -4   4   4    1.42    0.58
   4  -4  -4    1.12    0.47
   4  -4  -4    2.11    0.85
   4  -4  -3   11.34    3.46
   4  -4  -3   11.68    1.61
   4  -4  -2    1.58    1.18
  -4   4   2    5.16    1.68
   4  -4  -2    2.41    0.82
   4  -4  -1    5.53    2.46
  -4   4   1    6.15    1.51
  -4   4   1    9.87    4.80
  -4   4   0    1.26    0.60
   4  -4   0    0.07    0.96
  -4   4  -1    6.19    3.61
  -4   4  -1    2.56    0.86
   4  -4   1    4.46    2.20
  -4   4  -2    5.68    3.73
  -4   4  -2    4.09    1.04
   4  -4   2    6.86    2.80
  -4   4  -3    2.86    0.94
  -4   4  -3    3.69    3.27
   4  -4   3    3.85    1.86
  -4   4  -4    6.93    3.71
  -4   4  -4    7.50    1.50
   4  -4   4    5.89    2.27
  -4   4  -5    2.04    2.47
   4  -4   5   -0.53    0.71
   4  -4   5   -0.84    1.38
   4  -4   6    3.33    2.78
   4  -4   6    1.74    0.54
  -4   4  -6    2.80    3.14
   4  -4   6    2.21    1.43
   4  -4   7    3.56    2.19
   4  -4   7    2.88    1.05
  -4   4  -7    5.87    4.35
   4  -4   7    2.52    1.52
  -4   4  -8    9.32    3.72
   4  -4   8    7.95    3.68
   4  -4   8   12.85    3.72
   4  -4   9   19.53    6.01
  -4   4  -9   19.05    6.02
   4  -4  10   -0.99    2.03
  -4   4 -10    1.18    1.43
   4  -4  11   10.14    4.65
  -4   4 -11   16.98    5.50
   4  -4  12    5.92    3.29
  -4   4 -12   21.08    6.52
   4  -4  13   31.23    8.33
   4  -4  14   25.65    7.70
   4  -4  15    4.02    4.05
   4  -3 -19    1.47    1.51
   4  -3 -18   12.89    4.62
   4  -3 -17    1.75    1.80
   4  -3 -16    8.02    3.55
   4  -3 -16    0.60    1.98
   4  -3 -15   23.33    6.32
   4  -3 -15   14.92    4.53
  -4   3  15   11.10    2.94
   4  -3 -14   50.95    8.43
  -4   3  14   34.65    4.91
   4  -3 -14   34.37    6.65
   4  -3 -13   19.57    5.02
   4  -3 -13   19.06    4.71
  -4   3  13   21.29    3.57
   4  -3 -12    5.22    2.68
   4  -3 -12    3.55    1.56
  -4   3  12    4.00    1.53
   4  -3 -11   19.20    4.27
   4  -3 -11   20.25    4.94
   4  -3 -11   13.21    3.90
  -4   3  11   17.74    2.75
  -4   3  10   37.87    3.75
   4  -3 -10   40.68    5.68
   4  -3 -10   33.94    5.49
   4  -3 -10   43.35    7.14
  -4   3   9   72.58    4.85
   4  -3  -9   60.94    6.57
   4  -3  -9   80.16    9.51
   4  -3  -9   79.09    7.36
   4  -3  -8   43.89    5.00
   4  -3  -8   40.40    4.69
   4  -3  -8   48.79    7.24
   4  -3  -7    7.64    2.84
   4  -3  -7    3.84    1.31
   4  -3  -7    6.17    1.35
   4  -3  -7    4.52    1.39
   4  -3  -6   18.56    2.67
   4  -3  -6   19.94    4.40
   4  -3  -6   22.61    2.75
   4  -3  -6   19.56    2.73
   4  -3  -5   43.25    3.67
   4  -3  -5   43.17    3.48
   4  -3  -5   40.60    6.31
   4  -3  -4   54.64    3.75
   4  -3  -4   49.63    3.51
  -4   3   4   52.61    4.00
   4  -3  -4   57.21    7.26
   4  -3  -3   56.55    3.49
  -4   3   3   50.96    2.67
   4  -3  -3   57.58    3.76
   4  -3  -3   60.77    7.38
   4  -3  -2   10.99    3.05
   4  -3  -2   12.46    1.80
   4  -3  -1   13.36    3.47
   4  -3   0    1.78    1.18
  -4   3   0    2.98    2.76
  -4   3   0    1.82    0.69
   4  -3   1    4.46    1.98
  -4   3  -1    8.45    1.33
  -4   3  -1   11.73    4.62
   4  -3   2   15.87    3.57
  -4   3  -2   14.13    1.59
  -4   3  -2   15.41    4.89
  -4   3  -3  102.51    4.55
  -4   3  -3   99.13   11.68
   4  -3   3   95.01    9.07
   4  -3   4   16.65    1.08
  -4   3  -4   15.76    4.98
   4  -3   4   19.24    4.15
   4  -3   5   26.11    2.36
  -4   3  -5   16.89    4.97
   4  -3   5   19.18    4.04
   4  -3   6   -0.32    0.37
   4  -3   6   -0.26    0.17
   4  -3   7    1.17    1.23
  -4   3  -7    4.91    3.22
   4  -3   7    1.66    1.23
   4  -3   8  107.53   13.26
  -4   3  -8   86.11   11.20
   4  -3   8  104.85   10.15
   4  -3   9   35.42    8.14
  -4   3  -9   35.23    7.34
   4  -3   9   35.44    5.97
   4  -3  10   21.50    6.33
  -4   3 -10   30.47    6.33
   4  -3  11    1.38    0.95
  -4   3 -11    5.42    3.23
   4  -3  12    9.44    4.09
  -4   3 -12   12.62    4.34
   4  -3  13   37.60    9.19
   4  -3  14   48.27   10.34
   4  -3  15   14.37    5.71
   4  -3  16   14.87    6.04
   4  -2 -19    0.52    0.87
  -4   2  18    0.52    0.68
   4  -2 -18   -0.12    1.36
   4  -2 -17   30.12    7.54
  -4   2  17   14.55    4.14
   4  -2 -16    8.26    3.30
   4  -2 -16   11.39    4.58
  -4   2  16    4.85    3.39
  -4   2  15   77.29    8.87
   4  -2 -15   90.46   12.36
   4  -2 -14   -0.17    0.25
  -4   2  14    0.42    0.86
   4  -2 -13   11.68    4.07
   4  -2 -13    9.19    3.78
  -4   2  13   10.77    2.95
   4  -2 -12   50.32    8.05
  -4   2  12   71.16    6.89
   4  -2 -12   61.31    8.78
   4  -2 -12   72.96    9.51
   4  -2 -11   43.43    6.86
  -4   2  11   59.30    5.84
   4  -2 -11   62.89    8.31
   4  -2 -11   59.51    8.45
  -4   2  10  305.19   12.25
   4  -2 -10  312.46   17.42
   4  -2 -10  306.50   18.67
   4  -2  -9    5.87    1.88
   4  -2  -9    9.17    3.45
  -4   2   9    4.37    1.42
   4  -2  -9    5.56    2.25
  -4   2   8  118.50    6.55
   4  -2  -8  106.70    7.94
   4  -2  -8  128.87    9.39
   4  -2  -8  136.78   11.77
   4  -2  -7  173.59    5.59
  -4   2   7  158.40    7.07
   4  -2  -7  155.09    8.61
   4  -2  -7  173.19    9.86
   4  -2  -7  178.00   13.19
   4  -2  -6  348.61    9.59
   4  -2  -6  309.33   10.88
   4  -2  -6  326.22   11.97
   4  -2  -6  332.74   17.52
   4  -2  -5  637.38   14.15
  -4   2   5  660.04   18.83
   4  -2  -5  687.19   15.29
   4  -2  -5  727.40   24.95
  -4   2   5  647.04   22.63
   4  -2  -4   61.73    3.94
   4  -2  -4   57.90    3.97
  -4   2   4   61.21    4.62
   4  -2  -4   66.83    7.37
  -4   2   4   62.10    6.93
   4  -2  -3  448.51    8.98
   4  -2  -3  435.53   10.62
   4  -2  -3  473.81   21.20
   4  -2  -3  458.45   18.94
  -4   2   3  422.07   18.21
  -4   2   3  399.45    9.07
  -4   2   2  129.31    3.63
   4  -2  -2  137.80    4.36
   4  -2  -2  137.10    5.94
   4  -2  -2  140.42   10.23
   4  -2  -2  141.99   11.14
   4  -2  -1  750.51   23.52
   4  -2  -1  741.00   24.57
   4  -2   0  763.21   24.03
   4  -2   0  761.17   23.54
  -4   2  -1  175.48    4.44
   4  -2   1  190.40   11.63
   4  -2   1  198.96   12.03
  -4   2  -2  464.05    7.00
   4  -2   2  510.60   18.70
   4  -2   2  514.11   19.28
  -4   2  -3   23.28    4.87
  -4   2  -3   18.09    5.11
   4  -2   3   22.00    4.17
  -4   2  -3   17.57    1.54
  -4   2  -4  602.77   26.24
   4  -2   4  678.82   22.44
  -4   2  -4  596.75   24.89
  -4   2  -5  307.74   18.82
   4  -2   5  314.55   15.37
  -4   2  -5  270.99   17.00
  -4   2  -6  187.33   14.79
   4  -2   6  184.55   11.98
  -4   2  -6  150.68   13.12
  -4   2  -7  176.43   14.14
   4  -2   7  177.08   11.91
  -4   2  -8    4.66    2.86
   4  -2   8    4.34    1.89
   4  -2   9  297.83   21.31
  -4   2  -9  276.91   17.75
   4  -2   9  297.83   15.84
   4  -2  10   47.72    9.09
  -4   2 -10   61.51    8.36
   4  -2  11   86.12   12.79
  -4   2 -11  140.45   12.31
   4  -2  12   12.68    4.82
  -4   2 -12   15.13    2.92
   4  -2  13    7.43    3.77
  -4   2 -13    9.27    2.19
   4  -2  14   85.11   13.72
   4  -2  15    3.15    3.03
   4  -2  16   23.71    7.18
   4  -2  17    3.08    3.50
  -4   1  20    7.84    3.43
  -4   1  19    0.84    1.16
  -4   1  18   18.78    5.78
   4  -1 -17    5.97    2.49
  -4   1  17    3.54    2.20
   4  -1 -16   43.21    7.72
  -4   1  16   20.72    5.39
   4  -1 -15    7.33    2.97
  -4   1  15    9.88    3.58
   4  -1 -14   -1.16    2.04
  -4   1  14    2.44    1.61
  -4   1  13   59.55    7.51
   4  -1 -13   85.42   10.49
   4  -1 -12    0.14    0.33
  -4   1  12    1.21    1.30
  -4   1  11  112.16    9.03
   4  -1 -11   85.15    9.57
   4  -1 -11   99.49   10.76
   4  -1 -10    1.08    0.85
   4  -1 -10    0.26    0.73
  -4   1  10    0.68    0.17
   4  -1  -9   19.45    3.76
  -4   1   9   33.19    4.20
   4  -1  -9   34.41    5.93
  -4   1   8   97.92    6.65
   4  -1  -8   86.00    7.42
   4  -1  -8   98.57    9.93
  -4   1   7   20.15    2.79
   4  -1  -7   20.98    3.28
   4  -1  -7   16.21    3.72
  -4   1   6  127.99    6.56
  -4   1   6  129.35    9.73
   4  -1  -6  122.81    7.19
   4  -1  -6  138.67    4.29
   4  -1  -6  131.45   12.63
   4  -1  -6  144.25   11.22
   4  -1  -5   20.06    3.86
  -4   1   5   16.91    2.29
   4  -1  -5   18.01    2.49
  -4   1   5   16.08    2.94
   4  -1  -5   20.47    4.91
   4  -1  -4   21.30    4.01
  -4   1   4   15.62    3.31
   4  -1  -4   17.44    2.28
  -4   1   4   16.74    2.54
   4  -1  -4   18.67    2.46
   4  -1  -4   16.68    4.28
   4  -1  -3   40.13    3.33
  -4   1   3   38.77    3.18
   4  -1  -3   40.57    2.92
   4  -1  -3   40.98    6.22
   4  -1  -3   44.07    5.59
   4  -1  -2   21.64    2.40
   4  -1  -2   20.29    1.55
  -4   1   2   22.50    1.93
   4  -1  -2   18.94    4.06
   4  -1  -2   25.13    4.21
   4  -1  -1   15.46    0.94
   4  -1  -1   18.25    3.42
   4  -1  -1   15.21    2.03
   4  -1  -1   13.47    3.20
  -4   1   1   15.21    1.30
   4  -1   0   57.38    6.37
   4  -1   0   60.77    6.13
   4  -1   1   37.23    1.96
   4  -1   1   36.89    4.76
   4  -1   1   28.23    4.12
   4  -1   2    0.67    0.67
   4  -1   2    0.46    0.25
   4  -1   2    0.91    0.60
   4  -1   3    7.03    2.02
  -4   1  -3    6.16    2.37
   4  -1   3    6.14    1.80
  -4   1  -4   18.87    4.00
   4  -1   4   21.21    3.22
   4  -1   4   20.04    3.50
   4  -1   5   36.62    4.78
  -4   1  -5   35.46    5.57
   4  -1   6  174.47   10.48
  -4   1  -6  160.97   12.16
  -4   1  -7    2.39    1.40
   4  -1   7    1.21    0.45
   4  -1   8   44.84    5.50
  -4   1  -8   44.20    6.59
  -4   1  -9   31.10    5.77
   4  -1   9   34.36    4.92
  -4   1 -10    6.67    2.95
   4  -1  10    7.09    2.26
  -4   1 -11  127.84    8.46
   4  -1  11  122.85   14.07
  -4   1 -11  109.50   11.32
  -4   1 -12   -0.78    1.13
  -4   1 -12   -0.11    0.39
   4  -1  13   19.79    6.08
  -4   1 -13   28.16    4.01
   4  -1  14   10.95    4.64
  -4   1 -14    8.93    2.33
   4  -1  15    0.64    0.40
   4  -1  16   52.68   10.52
   4  -1  17    2.25    2.25
   4  -1  18   13.49    5.57
  -4   0  20   63.17   11.27
  -4   0  19   29.57    7.72
  -4   0  18    3.31    2.03
   4   0 -17   10.53    4.40
  -4   0  17   10.11    3.94
   4   0 -16   29.60    6.36
  -4   0  16   18.66    5.46
  -4   0  15  154.56   15.19
   4   0 -15  232.96   18.10
   4   0 -14   26.66    6.05
  -4   0  14   21.91    5.38
   4   0 -13   11.88    4.06
  -4   0  13    9.99    3.40
   4   0 -12    7.02    3.46
  -4   0  12    7.21    2.65
   4   0 -11   11.17    3.67
  -4   0  11   13.37    3.40
   4   0 -10  225.58   16.13
  -4   0  10  246.98   13.71
   4   0  -9    1.89    1.14
   4   0  -9    4.69    2.25
  -4   0   9    4.25    1.55
   4   0  -8    5.34    1.90
   4   0  -8    4.62    2.12
  -4   0   8    5.05    2.09
  -4   0   8    4.76    1.64
  -4   0   7   17.26    2.81
   4   0  -7   15.64    3.94
  -4   0   7   17.78    3.96
   4   0  -7   13.96    2.84
   4   0  -6    6.37    2.28
  -4   0   6    6.64    2.17
  -4   0   6    8.26    1.82
   4   0  -6    6.96    1.87
  -4   0   5  163.59    7.56
   4   0  -5  161.52    7.89
  -4   0   5  167.54    9.58
   4   0  -5  164.74   11.63
  -4   0   4    9.56    1.97
   4   0  -4    9.32    2.62
  -4   0   4   10.52    1.85
   4   0  -4    8.48    1.65
   4   0  -3   13.38    3.07
   4   0  -3   11.42    1.98
  -4   0   3   10.42    1.87
   4   0  -2  125.29    5.93
  -4   0   2  121.80    5.21
   4   0  -2  130.21    9.20
   4   0  -1   16.15    2.12
  -4   0   1   16.76    1.71
   4   0  -1   18.14    2.11
   4   0  -1   19.97    3.49
   4   0   0   81.44    3.90
   4   0   0   81.36    6.82
   4   0   1    6.47    1.78
   4   0   1    9.24    1.18
   4   0   1    7.84    2.34
   4   0   2   32.71    2.24
   4   0   2   35.02    4.34
   4   0   2   31.40    3.92
  -4   0  -3  100.82    2.91
   4   0   3   98.12    6.79
   4   0   3  101.57    7.01
  -4   0  -3   97.28    7.94
   4   0   4   20.92    2.89
  -4   0  -4   23.24    2.17
   4   0   4   22.32    3.27
  -4   0  -4   20.88    3.78
   4   0   5  109.29    6.45
   4   0   5  113.37    7.40
  -4   0  -5   98.34    8.27
   4   0   6    0.52    0.76
  -4   0  -6    0.30    1.14
  -4   0  -7    3.78    1.65
   4   0   7    3.11    1.30
  -4   0  -8    9.03    2.79
   4   0   8   11.03    2.38
  -4   0  -9    8.06    2.79
   4   0   9    2.88    1.25
  -4   0 -10  173.60   10.06
   4   0  10  165.75    9.85
  -4   0 -10  146.33   11.21
  -4   0 -11    1.29    1.30
  -4   0 -11   -0.09    0.30
  -4   0 -12   10.11    3.03
  -4   0 -12    9.54    2.53
   4   0  12    5.50    2.90
  -4   0 -13    1.31    1.01
   4   0  13   -1.40    1.75
  -4   0 -13   -0.18    0.69
   4   0  14    5.05    3.39
  -4   0 -14    4.71    1.80
   4   0  15   96.62   14.45
   4   0  16    1.21    0.53
   4   0  17   19.51    6.68
   4   0  18   -0.03    0.84
   4   0  19   10.27    4.88
  -4   0 -20   96.18   15.08
  -4  -1  20   -3.08    2.54
  -4  -1  19    5.39    3.62
   4   1 -18    8.94    3.90
  -4  -1  18   12.56    5.43
   4   1 -17   -0.95    0.56
  -4  -1  17   -2.29    2.07
   4   1 -16   27.06    6.27
  -4  -1  16   11.04    4.49
   4   1 -15   12.49    4.25
  -4  -1  15    4.79    2.67
   4   1 -14   20.07    5.47
  -4  -1  14   13.38    4.70
  -4  -1  13   31.04    6.50
  -4  -1  12    0.79    0.73
  -4  -1  11   88.43    9.71
  -4  -1  10   29.54    5.31
  -4  -1   9   50.07    6.25
   4   1  -9   43.48    6.12
  -4  -1   8   92.27    7.87
  -4  -1   8  107.52   10.47
   4   1  -8   74.75    7.50
  -4  -1   7    0.88    0.97
   4   1  -7    1.06    0.93
  -4  -1   6  143.30   10.06
   4   1  -6  141.18    8.59
  -4  -1   6  139.48    8.25
   4   1  -5   38.14    1.96
  -4  -1   5   38.91    4.00
   4   1  -5   39.47    4.16
  -4  -1   5   37.19    4.57
   4   1  -5   36.53    5.58
  -4  -1   4   53.09    4.35
  -4  -1   4   59.99    5.13
   4   1  -4   55.21    4.51
   4   1  -4   61.43    7.22
   4   1  -3   46.46    3.87
  -4  -1   3   44.18    3.90
  -4  -1   3   49.96    3.99
   4   1  -3   44.17    5.67
   4   1  -2    0.87    0.78
  -4  -1   2    1.77    0.74
  -4  -1   2    2.46    0.84
   4   1  -2    2.44    0.85
  -4  -1   1   28.43    2.55
   4   1  -1   33.36    2.98
   4   1  -1   27.75    4.11
   4   1   0    8.13    0.83
   4   1   0    8.60    2.14
   4   1   0   10.56    1.53
   4   1   1    1.45    0.34
   4   1   1   -0.38    0.64
   4   1   1    1.50    0.57
   4   1   2   -0.25    0.61
  -4  -1  -2    0.18    0.59
   4   1   2   -0.29    0.28
   4   1   3    0.35    0.50
  -4  -1  -3    0.33    0.18
  -4  -1  -3    0.68    0.51
  -4  -1  -4   54.58    3.08
   4   1   4   51.90    4.50
   4   1   4   57.42    4.81
  -4  -1  -4   48.20    5.21
   4   1   5    9.10    1.80
  -4  -1  -5    7.11    1.96
  -4  -1  -5    8.03    1.45
   4   1   5    9.00    1.70
   4   1   6  102.09    5.11
  -4  -1  -6  103.08    6.22
   4   1   6  106.07    6.43
  -4  -1  -6   99.80    7.55
   4   1   7    7.62    1.77
  -4  -1  -7    6.23    1.95
  -4  -1  -7    7.85    2.12
  -4  -1  -8   18.73    3.37
  -4  -1  -8   19.12    3.58
   4   1   8   15.99    2.60
  -4  -1  -8   17.64    3.27
  -4  -1  -9   84.97    7.30
  -4  -1  -9   93.52    8.61
   4   1   9   78.43    5.81
  -4  -1  -9   83.02    7.09
   4   1  10   26.14    3.36
  -4  -1 -10   28.86    4.30
  -4  -1 -10   31.10    4.47
  -4  -1 -11  102.80    8.30
  -4  -1 -11   93.58    7.66
  -4  -1 -12    0.80    1.08
  -4  -1 -12    2.03    1.36
  -4  -1 -13   20.36    4.01
   4   1  13   18.47    5.32
  -4  -1 -13   33.93    4.63
   4   1  14   16.51    5.39
   4   1  15   50.30   10.04
   4   1  16   21.73    6.57
  -4  -1 -16   54.50   10.12
   4   1  17    8.32    4.38
  -4  -1 -17   21.05    6.93
   4   1  18    7.60    4.46
  -4  -1 -18   17.92    6.59
   4   1  19   -0.40    0.87
  -4  -1 -19    5.22    4.74
  -4  -1 -20   37.31    9.46
  -4  -2  19   42.40    9.89
  -4  -2  18    0.28    1.44
  -4  -2  17    2.54    1.06
  -4  -2  16   16.96    5.65
  -4  -2  15    2.34    1.78
  -4  -2  14  140.39   15.60
  -4  -2  13   -0.96    1.93
  -4  -2  12    3.19    2.11
  -4  -2  11   92.90   10.92
  -4  -2  10   53.81    7.68
  -4  -2   9  508.06   22.01
  -4  -2   8    0.60    1.17
  -4  -2   7  127.46    9.22
  -4  -2   7  119.42   10.10
   4   2  -7  107.83    8.81
  -4  -2   6  284.16   12.82
  -4  -2   6  292.20   14.30
   4   2  -6  256.40   12.37
  -4  -2   5  364.35   13.41
  -4  -2   5  356.23   14.53
   4   2  -4 1079.42   14.49
  -4  -2   4 1084.57   21.52
  -4  -2   4 1127.05   23.07
  -4  -2   3   52.95    4.46
  -4  -2   3   52.00    4.47
   4   2  -3   56.92    4.92
  -4  -2   2  482.84   12.61
  -4  -2   2  476.46   12.50
   4   2  -2  485.70   13.22
  -4  -2   1  346.65   10.37
   4   2  -1  353.31   10.42
  -4  -2   1  326.97    9.61
   4   2   0  811.64   14.79
  -4  -2   0  771.52   14.13
   4   2   1 1267.63   13.83
   4   2   1 1235.21   17.80
   4   2   2  240.94    7.80
   4   2   2  269.78    6.60
   4   2   2  260.07   10.92
  -4  -2  -3  495.22    9.16
   4   2   3  514.17   10.33
   4   2   3  518.05   14.57
  -4  -2  -4  112.84    4.78
   4   2   4  105.83    5.42
   4   2   4  110.97    6.34
  -4  -2  -5  805.65   14.61
   4   2   5  841.88   16.68
  -4  -2  -6  801.61   16.60
  -4  -2  -6  795.88   22.60
   4   2   6  830.39   15.76
  -4  -2  -7  329.25   14.71
  -4  -2  -7  336.15   12.25
   4   2   7  329.69    7.48
   4   2   7  344.35   10.09
  -4  -2  -8  133.75    9.62
  -4  -2  -8  149.31    9.18
   4   2   8  136.50    6.36
  -4  -2  -9    1.77    0.94
  -4  -2  -9    2.72    1.36
   4   2   9    2.40    0.83
  -4  -2 -10  363.95   16.79
   4   2  10  338.52   10.06
  -4  -2 -11  206.19   14.08
  -4  -2 -11  187.64   12.48
  -4  -2 -12  156.62   11.97
  -4  -2 -12  175.53   14.01
  -4  -2 -13    3.51    2.16
   4   2  14    3.91    2.78
  -4  -2 -14    3.67    2.46
   4   2  15   78.53   12.19
  -4  -2 -15   91.72   12.23
   4   2  16   27.10    7.51
  -4  -2 -16   31.96    7.57
   4   2  17   35.87    8.70
  -4  -2 -17   70.50   11.50
  -4  -2 -18   11.55    4.96
   4   2  18    4.61    3.16
   4   2  19    1.99    2.11
  -4  -2 -19    4.71    4.08
   4   2  20   14.94    6.08
  -4  -2 -20   28.32    7.88
  -4  -3  18   -0.10    2.35
  -4  -3  17   12.29    5.15
  -4  -3  16    2.81    2.80
  -4  -3  15    2.51    2.33
  -4  -3  14   44.50    9.20
  -4  -3  13   34.58    7.74
  -4  -3  12   37.61    7.76
  -4  -3  11    1.21    0.50
  -4  -3  10   47.20    7.58
  -4  -3   9   59.30    8.08
  -4  -3   8  154.70   12.00
  -4  -3   7   54.47    6.59
  -4  -3   6   40.66    5.45
  -4  -3   6   37.89    5.06
  -4  -3   5   54.23    5.60
  -4  -3   5   66.25    6.29
  -4  -3   4    9.67    2.25
   4   3  -4    8.59    1.58
  -4  -3   4    8.91    2.02
   4   3  -3  189.46    7.43
  -4  -3   3  197.86    9.16
  -4  -3   3  185.45    8.99
  -4  -3   2    0.68    0.59
  -4  -3   2    0.51    0.52
  -4  -3   1   38.65    4.14
  -4  -3   1   29.75    3.17
  -4  -3   0    2.24    0.81
   4   3   1   10.14    1.49
   4   3   2    6.86    1.23
  -4  -3  -2    9.43    2.67
  -4  -3  -3   42.22    3.13
   4   3   3   46.43    3.41
  -4  -3  -3   37.96    5.08
  -4  -3  -4    1.37    0.69
   4   3   4    0.97    0.31
   4   3   4    2.81    0.93
  -4  -3  -4    0.88    0.98
  -4  -3  -5  122.87    6.01
  -4  -3  -5  114.45    9.16
   4   3   5  125.08    6.72
   4   3   5  123.12    6.35
  -4  -3  -6   11.79    2.03
  -4  -3  -6   13.90    3.34
   4   3   6   12.28    1.88
  -4  -3  -7   55.95    4.92
  -4  -3  -7   53.73    6.52
   4   3   7   58.12    3.69
  -4  -3  -8   68.72    7.58
  -4  -3  -8   70.73    6.05
   4   3   8   69.73    3.77
  -4  -3  -9   42.59    6.22
  -4  -3  -9   47.77    5.45
   4   3   9   42.65    2.77
  -4  -3 -10  159.09   12.52
  -4  -3 -10  148.20   10.44
  -4  -3 -11    1.62    1.04
  -4  -3 -12   65.50    8.16
  -4  -3 -13   24.02    5.36
  -4  -3 -14   32.46    6.35
  -4  -3 -15   68.60    9.86
   4   3  15   53.84    9.77
   4   3  16   -0.99    2.22
  -4  -3 -16    0.05    1.32
   4   3  17    6.86    4.33
  -4  -3 -17   15.25    4.75
   4   3  18    6.02    2.93
  -4  -3 -18   11.02    4.54
   4   3  19    3.24    2.84
  -4  -3 -19   12.44    4.79
  -4  -3 -20   20.61    6.40
   4   3  20   19.56    6.41
  -4  -4  18   58.80   11.96
  -4  -4  17   -0.04    0.87
  -4  -4  16   16.07    5.89
  -4  -4  15   12.98    5.01
  -4  -4  14   80.79   12.85
  -4  -4  13   46.54    9.44
  -4  -4  13   37.11    5.73
  -4  -4  12    2.90    1.70
  -4  -4  12   -0.27    1.92
  -4  -4  11   21.01    2.17
  -4  -4  11   12.35    3.30
  -4  -4  11   16.70    5.01
  -4  -4  10   13.08    2.03
  -4  -4  10    7.40    2.89
  -4  -4  10    8.28    2.77
  -4  -4   9  141.88   10.31
  -4  -4   9  166.83   14.32
  -4  -4   8   26.18    4.30
  -4  -4   8   33.88    6.00
  -4  -4   8   32.31    3.74
  -4  -4   7    5.22    2.07
  -4  -4   7    3.25    1.26
  -4  -4   6    8.77    2.54
  -4  -4   6    7.47    1.93
  -4  -4   5    3.57    1.54
  -4  -4   5    5.94    2.03
  -4  -4   5    3.30    1.25
  -4  -4   4  135.09    8.75
  -4  -4   4  136.36    8.63
  -4  -4   4  106.33    7.97
  -4  -4   3    1.90    0.77
  -4  -4   3    1.86    0.92
   4   4  -3    2.26    0.95
  -4  -4   3    0.63    0.48
  -4  -4   2   11.14    2.17
  -4  -4   2   10.59    2.08
  -4  -4   2   13.06    2.96
   4   4  -2    9.77    1.91
   4   4  -1   82.55    5.67
  -4  -4   1   84.59    5.73
  -4  -4   1   92.42    5.92
  -4  -4   1   79.25    7.42
  -4  -4   0   12.86    2.12
  -4  -4   0   12.83    2.38
  -4  -4   0    9.96    4.05
   4   4   0   10.14    1.76
   4   4   1   77.77    4.75
   4   4   1   71.21    4.76
  -4  -4  -1   68.21    7.29
   4   4   2    3.16    0.96
   4   4   2    3.69    1.06
  -4  -4  -2    3.25    1.57
  -4  -4  -3   17.49    3.79
   4   4   3   20.94    2.54
   4   4   3   19.09    2.41
  -4  -4  -3   22.14    2.58
  -4  -4  -4  111.50    5.91
   4   4   4  116.83    6.35
  -4  -4  -4  111.27    9.88
  -4  -4  -5   36.96    3.53
  -4  -4  -5   35.59    5.70
   4   4   5   36.57    3.78
  -4  -4  -6  125.60    6.93
  -4  -4  -6  124.56   11.16
   4   4   6  134.40    7.84
   4   4   7    0.62    0.32
   4   4   7    0.85    0.82
  -4  -4  -7    0.49    0.61
  -4  -4  -7    1.15    0.49
   4   4   8    2.87    0.75
  -4  -4  -8    4.76    2.29
  -4  -4  -8    1.18    0.49
   4   4   9   13.88    1.22
  -4  -4  -9   13.81    2.75
  -4  -4 -10   12.56    2.92
  -4  -4 -11  189.65   12.36
  -4  -4 -12    3.60    1.79
  -4  -4 -13   17.67    4.36
  -4  -4 -14   -0.40    0.55
   4   4  15    0.57    0.19
  -4  -4 -15    0.63    0.99
  -4  -4 -16  134.43   14.21
   4   4  16  129.84   15.68
   4   4  17    1.63    1.84
  -4  -4 -17   -1.92    1.92
   4   4  18   21.53    6.74
  -4  -4 -18   20.33    5.97
   4   4  19    1.77    0.81
  -4  -4 -19   -3.27    2.64
   4   4  20    3.50    3.03
  -4  -4 -20    5.88    2.80
   4   4  21   58.60   11.27
  -4  -5  17    1.69    1.82
  -4  -5  16    9.17    4.08
  -4  -5  15   37.03    8.89
  -4  -5  14    3.89    2.19
  -4  -5  13    2.59    1.18
  -4  -5  13    3.94    2.24
  -4  -5  12    5.23    2.11
  -4  -5  12   10.37    4.05
  -4  -5  11   17.60    4.46
  -4  -5  11   36.92    7.79
  -4  -5  10  119.51   13.35
  -4  -5  10   87.34    9.64
  -4  -5   9   23.53    4.87
  -4  -5   9   29.09    6.19
  -4  -5   8   16.99    4.28
  -4  -5   8   26.05    5.61
  -4  -5   7   30.80    5.32
  -4  -5   7   28.24    5.23
  -4  -5   6   38.84    5.83
  -4  -5   6   51.84    5.81
  -4  -5   6   43.99    6.15
  -4  -5   5  199.08   12.03
   4   5  -5  200.68   11.82
  -4  -5   5  227.49   12.75
  -4  -5   4   27.68    4.28
  -4  -5   4   26.01    4.42
  -4  -5   4   25.09    3.89
   4   5  -4   23.58    4.02
  -4  -5   3   19.96    3.27
  -4  -5   3   17.93    3.04
   4   5  -3   23.12    3.67
  -4  -5   3   16.05    3.72
   4   5  -2    6.07    1.80
  -4  -5   2    8.51    2.02
  -4  -5   2    5.08    1.88
  -4  -5   2    5.90    1.73
   4   5  -2    7.28    1.87
   4   5  -1   43.55    4.65
  -4  -5   1   44.07    4.38
  -4  -5   1   45.09    4.38
   4   5  -1   44.19    4.42
  -4  -5   1   32.18    5.55
   4   5   0   85.31    6.55
  -4  -5   0   96.51    6.12
   4   5   0   90.47    5.88
  -4  -5   0   75.55    8.69
   4   5   0   85.71    5.74
   4   5   1    2.59    1.16
  -4  -5  -1    2.90    1.07
  -4  -5  -1    1.38    1.14
   4   5   1    1.95    0.80
   4   5   1    2.50    0.89
   4   5   2    4.86    1.21
  -4  -5  -2   -1.49    1.56
   4   5   2    2.47    1.51
   4   5   2    1.89    0.92
   4   5   3   29.93    3.37
   4   5   3   25.11    2.84
  -4  -5  -3   24.86    5.51
  -4  -5  -4   68.53    5.05
   4   5   4   78.06    5.61
   4   5   4   62.82    4.52
  -4  -5  -4   67.09    9.26
   4   5   5   -0.08    0.54
  -4  -5  -5   -1.66    2.21
   4   5   5   -0.31    0.53
  -4  -5  -5    0.05    0.29
  -4  -5  -6    1.16    0.89
   4   5   6    0.38    0.67
  -4  -5  -7   61.34    5.38
   4   5   7   63.62    5.99
  -4  -5  -8   70.11    6.08
   4   5   8   66.56    6.49
  -4  -5  -9  107.23    8.02
   4   5   9   93.20    4.09
   4   5   9  107.28    3.93
   4   5  10    9.45    1.56
  -4  -5 -10    8.05    2.27
   4   5  11    7.49    1.29
  -4  -5 -11    7.01    2.30
  -4  -5 -12   76.11    8.18
  -4  -5 -13   17.71    4.19
  -4  -5 -14   95.42   10.19
  -4  -5 -15    1.12    1.71
   4   5  15    0.91    1.17
  -4  -5 -16   15.21    4.47
   4   5  16   12.14    4.52
   4   5  17   24.18    7.16
  -4  -5 -17   25.24    5.85
   4   5  18   -1.10    1.50
  -4  -5 -18   -2.56    2.53
   4   5  19   35.53    8.65
  -4  -5 -19   28.64    6.84
   4   5  20    3.96    2.50
  -4  -5 -20    1.26    1.48
   4   5  21   12.93    5.77
  -4  -6  16    1.14    1.63
  -4  -6  15    9.06    4.34
  -4  -6  14   -8.36    4.21
  -4  -6  13   38.53    7.51
  -4  -6  13   44.94    9.53
  -4  -6  12    9.40    3.87
  -4  -6  12   14.38    5.13
  -4  -6  11    7.92    3.33
  -4  -6  11    7.46    3.47
  -4  -6  10   49.84    8.97
  -4  -6  10   44.42    7.64
  -4  -6   9   21.47    5.76
  -4  -6   9   15.51    4.34
  -4  -6   8  206.23   15.72
  -4  -6   8  260.61   18.09
  -4  -6   7   20.86    4.82
  -4  -6   7   28.32    5.59
  -4  -6   6  108.08   10.75
  -4  -6   6  127.36   10.89
  -4  -6   5  197.36   12.51
  -4  -6   5  170.68   13.07
   4   6  -5  201.13   12.30
  -4  -6   4  151.84   10.28
   4   6  -4  160.60   10.40
  -4  -6   3  647.66   19.76
   4   6  -3  663.07   20.22
   4   6  -2    9.47    2.22
  -4  -6   2    5.39    1.72
   4   6  -2    4.88    1.80
   4   6  -1  401.13   16.01
  -4  -6   1  410.12   13.78
   4   6  -1  426.00   14.94
   4   6  -1  390.91   14.37
  -4  -6   1  414.04   14.22
   4   6   0  222.53   10.14
   4   6   0  233.72   12.10
  -4  -6   0  240.28   10.02
   4   6   0  245.85   10.92
   4   6   0  222.78   10.17
   4   6   0  237.22   14.74
   4   6   1  347.48   12.52
   4   6   1  361.05   14.84
  -4  -6  -1  380.43   12.17
   4   6   1  349.03   11.93
   4   6   1  348.28   19.05
   4   6   2  816.66   19.16
   4   6   2  790.15   22.20
   4   6   2  784.21   16.88
   4   6   2  784.10   30.52
   4   6   3   24.94    4.02
   4   6   3   31.92    3.74
   4   6   3   28.10    3.09
   4   6   3   30.81    6.32
   4   6   4  411.10   14.12
   4   6   4  386.46   11.36
   4   6   4  385.43   23.71
   4   6   4  383.19   16.12
  -4  -6  -4  422.45   13.85
  -4  -6  -5  115.44    7.28
   4   6   5   94.92    5.60
   4   6   5  113.92    7.68
  -4  -6  -6  398.72   13.98
   4   6   6  340.19   10.91
  -4  -6  -7  479.29   15.69
   4   6   7  429.81   12.41
  -4  -6  -8   77.84    6.61
   4   6   8   75.27    5.48
  -4  -6  -9  149.23    9.61
   4   6   9  127.44    5.95
   4   6  10    5.40    0.86
  -4  -6 -10    3.67    1.66
   4   6  10    5.33    1.42
   4   6  10    5.48    0.89
  -4  -6 -11  161.18   11.13
   4   6  11  185.42    8.44
  -4  -6 -12  118.79   10.18
   4   6  12  123.63    6.59
  -4  -6 -13   59.78    7.58
  -4  -6 -14   11.75    3.48
   4   6  15   -0.99    1.84
  -4  -6 -15   -0.10    0.58
   4   6  16   39.13    8.22
  -4  -6 -16   38.11    7.14
   4   6  17   15.04    5.16
  -4  -6 -17   12.10    4.03
   4   6  18    7.64    4.06
  -4  -6 -18   14.24    4.74
  -4  -6 -19   -0.91    3.02
   4   6  19    0.92    1.15
   4   6  20    0.99    2.38
  -4  -7  15    1.04    2.55
  -4  -7  14    0.78    2.88
  -4  -7  13   22.98    6.25
  -4  -7  13   28.60    7.60
  -4  -7  12   17.65    5.52
  -4  -7  12   19.52    6.33
  -4  -7  11   16.17    4.97
  -4  -7  11   27.12    6.95
  -4  -7  10    0.03    0.21
  -4  -7  10    1.47    1.81
  -4  -7   9    6.08    3.26
  -4  -7   9   11.23    4.20
  -4  -7   8   27.07    6.27
  -4  -7   8   34.45    6.67
  -4  -7   7   79.49   10.56
  -4  -7   7  114.73   11.52
  -4  -7   6   29.94    6.19
  -4  -7   6   31.50    5.51
  -4  -7   5   19.42    4.98
  -4  -7   5   22.69    4.50
   4   7  -5   22.63    4.42
  -4  -7   4    4.24    2.53
   4   7  -4    5.64    1.90
  -4  -7   4    6.77    2.33
   4   7  -3   16.45    3.25
  -4  -7   3   15.88    3.26
   4   7  -2  164.86   10.16
   4   7  -2  147.75   11.13
  -4  -7   2  161.36    9.68
   4   7  -1   -0.85    1.33
  -4  -7   1    0.19    0.86
   4   7  -1    1.18    1.39
   4   7  -1    0.91    0.94
   4   7   0   24.93    3.80
  -4  -7   0   24.72    3.33
   4   7   0   27.80    3.90
   4   7   0   28.21    5.64
  -4  -7  -1   24.99    3.24
   4   7   1   23.63    3.50
   4   7   1   18.32    2.93
   4   7   1   21.09    5.21
   4   7   2   -0.14    0.43
   4   7   2    0.40    0.62
   4   7   3   45.70    4.83
   4   7   3   37.36    3.85
   4   7   4   42.94    3.95
   4   7   4   42.44    4.68
   4   7   5    4.46    1.24
  -4  -7  -5    5.74    1.70
  -4  -7  -6  162.75    9.47
   4   7   6  142.61    7.14
   4   7   6  164.13   11.27
   4   7   7    0.89    0.65
   4   7   7    0.57    0.77
  -4  -7  -7    0.84    0.70
  -4  -7  -8   -0.61    0.80
   4   7   8    0.96    0.70
   4   7   8    0.37    0.57
  -4  -7  -9   74.03    7.03
   4   7   9   63.65    5.03
   4   7   9   74.46    5.44
   4   7  10    4.82    1.27
  -4  -7 -10    5.14    1.98
  -4  -7 -11  163.58   11.42
   4   7  11  171.97    9.82
  -4  -7 -12    0.45    0.80
   4   7  12    0.66    0.48
  -4  -7 -13    6.23    2.49
   4   7  13    5.61    1.74
  -4  -7 -14   36.34    6.16
   4   7  15    4.38    2.50
  -4  -7 -15    3.57    2.06
  -4  -7 -16   66.61    9.27
   4   7  16   70.91   11.11
  -4  -7 -17    1.42    1.03
   4   7  17    1.45    1.63
   4   7  18   -1.24    1.51
  -4  -7 -18   -1.26    1.16
  -4  -7 -19    9.39    3.86
  -4  -8  13   19.70    6.14
  -4  -8  13   19.58    6.71
  -4  -8  12   29.77    7.37
  -4  -8  12   36.23    8.64
  -4  -8  11   -0.87    1.65
  -4  -8  11   -0.11    0.38
  -4  -8  10   29.89    7.26
  -4  -8  10   51.56    9.26
  -4  -8   9    0.23    0.21
  -4  -8   9    1.59    1.14
  -4  -8   8   21.23    6.11
  -4  -8   8   24.81    5.73
  -4  -8   7   20.57    5.52
  -4  -8   7   30.58    6.18
  -4  -8   6    0.06    1.56
  -4  -8   6    0.64    0.90
  -4  -8   5   12.35    4.22
   4   8  -5   14.91    3.63
  -4  -8   5   21.21    4.48
  -4  -8   4    0.26    0.94
   4   8  -4    2.55    1.24
  -4  -8   4    0.77    1.01
   4   8  -3    9.36    2.53
  -4  -8   3   10.06    2.68
   4   8  -3   10.83    3.13
   4   8  -2    4.19    1.52
  -4  -8   2    4.27    1.58
   4   8  -2    3.15    1.70
   4   8  -1    0.86    0.93
  -4  -8   1    1.25    0.80
   4   8   0    2.66    1.22
  -4  -8   0    2.07    1.01
   4   8   0    2.14    1.38
   4   8   1    1.80    1.30
  -4  -8  -1    0.58    0.49
   4   8   1    2.46    1.35
   4   8   2    7.45    2.10
   4   8   2    3.33    1.33
   4   8   3    0.70    0.15
   4   8   3    0.84    0.28
   4   8   4    3.06    1.19
   4   8   4    2.82    1.13
   4   8   5    0.98    0.71
   4   8   5    3.01    1.07
   4   8   5    3.00    1.89
   4   8   6   -0.24    0.17
   4   8   6    0.26    1.18
  -4  -8  -6    0.19    0.49
   4   8   7    8.67    1.81
  -4  -8  -7   16.75    3.29
   4   8   7   12.79    3.13
   4   8   8    3.13    1.08
  -4  -8  -8    2.46    1.21
   4   8   8    0.54    0.55
  -4  -8  -9    1.05    1.09
   4   8   9    1.02    0.55
   4   8   9    2.02    1.09
   4   8  10    6.61    1.67
  -4  -8 -10    7.23    2.28
   4   8  10    4.52    1.41
  -4  -8 -11    1.36    1.30
   4   8  11   -0.59    0.50
   4   8  11    0.27    0.64
  -4  -8 -12   45.12    6.40
   4   8  12   37.54    5.04
  -4  -8 -13    4.18    1.96
   4   8  13    4.34    1.72
  -4  -8 -14   13.16    3.70
   4   8  14   10.64    2.72
   4   8  15   11.35    4.29
  -4  -8 -15    8.62    3.19
   4   8  16    2.96    2.40
  -4  -8 -16    3.67    2.13
  -4  -8 -17   35.71    7.15
  -4  -8 -18    0.26    0.19
  -4  -9  13    3.99    2.92
  -4  -9  12   -0.86    1.35
  -4  -9  12    0.93    0.98
  -4  -9  11    4.60    3.79
  -4  -9  11    3.87    2.71
  -4  -9  10   11.84    4.59
  -4  -9  10   20.56    5.99
  -4  -9   9   20.77    6.31
  -4  -9   9   30.68    7.01
  -4  -9   8   17.11    5.70
  -4  -9   8   23.50    5.70
  -4  -9   7    2.21    2.40
  -4  -9   7    3.40    2.21
  -4  -9   6    5.35    3.37
  -4  -9   6    2.95    1.53
  -4  -9   5   24.72    6.42
  -4  -9   5   34.25    5.85
   4   9  -5   24.83    4.91
  -4  -9   4   55.00    7.00
  -4  -9   4   48.27    8.70
   4   9  -4   51.29    6.82
   4   9  -3   14.66    3.48
  -4  -9   3   12.55    3.18
   4   9  -2    0.30    0.61
  -4  -9   2    0.21    0.82
   4   9  -1   -0.32    0.92
  -4  -9   1    1.05    0.68
  -4  -9   0   30.44    4.01
   4   9   0   25.93    4.28
   4   9   1   21.47    3.79
  -4  -9  -1   21.87    3.32
   4   9   2    4.24    1.88
   4   9   2    2.24    1.21
   4   9   3    4.60    1.84
   4   9   3    3.44    1.79
   4   9   4   19.43    3.61
   4   9   4   13.61    2.75
   4   9   5   43.33    5.31
   4   9   5   39.72    4.44
   4   9   6   -0.48    0.79
   4   9   6    0.23    0.32
   4   9   7   -0.07    0.77
   4   9   7    0.43    0.43
  -4  -9  -7   -0.50    0.86
  -4  -9  -8   26.13    4.49
   4   9   8   21.56    2.94
   4   9   8   21.70    3.98
  -4  -9  -9   26.88    4.64
   4   9   9   27.59    4.27
   4   9   9   22.45    2.99
  -4  -9 -10   60.27    7.06
   4   9  10   54.14    7.23
  -4  -9 -11    2.23    1.64
   4   9  11    1.67    1.32
  -4  -9 -12    3.42    1.70
   4   9  12    3.76    1.75
  -4  -9 -13   26.28    5.21
   4   9  13   27.59    5.01
  -4  -9 -14   11.19    3.60
   4   9  14   13.40    3.42
  -4  -9 -15   44.09    7.28
  -4  -9 -16    2.19    2.25
  -4  -9 -17   10.31    3.82
  -4 -10  12    5.04    2.42
  -4 -10  11    7.67    4.21
  -4 -10  11   15.81    5.41
  -4 -10  10   11.83    4.94
  -4 -10  10   16.69    5.59
  -4 -10   9   22.31    6.96
  -4 -10   9   30.24    6.83
  -4 -10   8    5.19    3.80
  -4 -10   8    1.99    2.27
  -4 -10   7   51.39   10.68
  -4 -10   7   51.39    8.29
  -4 -10   6   24.08    7.04
  -4 -10   6   27.25    5.64
  -4 -10   5   54.83   10.32
  -4 -10   5   62.47    8.15
  -4 -10   4   76.21    8.49
   4  10  -4   72.90    8.61
  -4 -10   4   87.51   12.70
   4  10  -3   13.30    3.43
  -4 -10   3   19.45    3.99
  -4 -10   2  135.35    9.97
   4  10  -2  132.44   10.90
  -4 -10   1   27.12    4.27
   4  10  -1   22.19    4.39
  -4 -10   0  173.68    9.99
   4  10   0  172.12   11.66
  -4 -10  -1  105.84    7.42
   4  10   1   95.62    8.51
   4  10   2   60.03    6.61
   4  10   3  159.40   10.79
   4  10   4    4.02    1.75
   4  10   5  169.89   11.12
   4  10   6   42.77    5.59
   4  10   7   70.53    7.26
   4  10   8   62.98    6.98
  -4 -10  -9    2.81    1.68
  -4 -10 -10   79.37    8.60
   4  10  10   85.04    9.80
   4  10  11    5.56    2.29
  -4 -10 -11    7.20    2.80
  -4 -10 -12   39.88    6.34
   4  10  12   44.32    6.86
  -4 -10 -13   13.30    3.81
   4  10  13   15.05    4.36
  -4 -10 -14    0.75    1.02
  -4 -10 -15   15.69    4.37
  -4 -11  10    8.97    4.75
  -4 -11  10    3.86    2.27
  -4 -11   9    2.31    2.38
  -4 -11   9   -1.28    0.32
  -4 -11   8    2.28    2.72
  -4 -11   8    3.47    2.51
  -4 -11   7    4.41    3.46
  -4 -11   7    7.60    3.13
  -4 -11   6   10.28    4.28
  -4 -11   6   18.25    4.59
  -4 -11   5    3.42    3.10
  -4 -11   5    8.51    3.11
  -4 -11   4    4.16    1.81
   4  11  -4    4.24    2.14
   4  11  -3    0.82    0.77
  -4 -11   3    5.82    2.31
   4  11  -2    1.00    0.89
  -4 -11   2   -0.33    0.92
  -4 -11   1   25.21    4.11
   4  11  -1   23.20    4.61
   4  11   0   -0.49    0.54
  -4 -11   0    0.24    0.28
  -4 -11  -1   11.29    2.55
   4  11   1    9.73    2.91
   4  11   2    1.13    0.85
   4  11   3    1.82    1.21
   4  11   4    3.67    1.57
   4  11   5   15.75    3.44
   4  11   6    3.01    1.44
   4  11   7   21.96    4.25
   4  11   8    2.18    1.20
   4  11   9    0.33    0.59
   4  11   9    1.19    1.00
   4  11  10   21.64    4.50
   4  11  10   22.60    5.54
   4  11  11    1.05    1.35
  -4 -11 -11    1.40    1.15
   4  11  12   29.37    5.94
  -4 -11 -12   26.06    5.38
   4  11  13    0.23    1.71
  -4 -11 -13    2.67    2.27
  -4 -12   8    0.65    0.99
  -4 -12   7    6.24    3.12
  -4 -12   6    5.91    2.72
  -4 -12   5    1.83    1.64
  -4 -12   4   17.00    4.02
   4  12  -3    0.32    0.36
  -4 -12   3   -0.92    1.05
   4  12  -2    0.82    1.42
   4  12  -1    3.79    2.25
   4  12   0   -0.92    1.36
   4  12   1    8.54    2.94
   4  12   2    1.13    1.06
   4  12   3    0.53    1.10
   4  12   4    2.08    1.35
   4  12   5    0.43    0.79
   4  12   6    7.80    2.43
   4  12   7    0.94    1.10
   4  12   8   -0.84    1.28
   4  12   8    1.49    0.49
   4  12   9    1.67    1.48
   4  12   9    1.16    1.41
   4  12  10    0.27    0.71
   4  12  10   -1.40    2.22
   4  12  11    6.38    2.35
   4  12  11   10.45    3.95
   4  12  12    1.02    0.21
   4  12  12    3.16    3.13
   4  12  13    4.45    2.58
   4  13  -2    3.63    2.47
   4  13  -1    1.50    1.59
   4  13   0    0.49    0.73
   4  13   1    4.19    2.09
   4  13   2   -1.53    1.56
   4  13   3    2.50    1.62
   4  13   4    1.90    1.46
   4  13   5    2.38    1.50
   4  13   6    4.95    2.22
   4  13   7    1.72    1.05
   4  13   7    2.86    2.64
   4  13   8    1.72    1.31
   4  13   8   -2.36    2.51
   4  13   9    7.52    2.73
   4  13   9    4.63    2.88
   4  13  10   -0.13    1.06
   4  13  10    0.46    1.19
   4  13  11    5.51    2.27
   4  14   4   16.73    4.15
   4  14   5    3.52    1.87
   5  -9  -5   20.33    5.31
   5  -9  -4    0.32    0.68
   5  -9  -3    8.50    3.45
   5  -9  -2    7.68    3.66
   5  -9  -1   -1.42    1.91
   5  -8 -11    1.27    2.04
   5  -8 -10   10.64    5.26
   5  -8  -9   10.26    4.63
   5  -8  -8    4.35    1.16
   5  -8  -7    4.78    3.13
   5  -8  -6    1.12    1.28
   5  -8  -6    1.99    2.29
   5  -8  -5   14.35    4.23
   5  -8  -5   14.18    5.36
   5  -8  -4    5.00    2.63
   5  -8  -4    6.76    3.00
   5  -8  -3    6.42    2.90
   5  -8  -3    6.71    3.71
   5  -8  -2    1.50    1.21
   5  -8  -2    0.92    0.64
   5  -8  -1    4.15    3.63
  -5   8   0   10.29    6.35
   5  -8   0    7.34    3.34
  -5   8  -1   24.44    9.86
   5  -8   1    3.07    1.93
  -5   8  -2   12.47    7.20
  -5   8  -3    1.59    4.18
  -5   8  -4   11.39    6.83
  -5   8  -5   10.49    6.76
  -5   8  -6    9.08    6.95
  -5   8  -7    0.85    2.80
   5  -7 -13    0.48    1.08
   5  -7 -12    0.45    1.07
   5  -7 -11   -0.48    1.70
   5  -7 -10   -0.16    1.75
   5  -7  -9    2.32    1.60
   5  -7  -8    7.30    3.98
   5  -7  -7    1.02    0.93
   5  -7  -7    2.12    1.72
   5  -7  -6    2.06    0.99
   5  -7  -6    0.35    0.33
   5  -7  -5   -0.46    1.12
   5  -7  -5    3.96    2.89
   5  -7  -4    0.30    0.88
   5  -7  -4    0.80    1.31
   5  -7  -3    1.25    1.11
   5  -7  -3    1.92    1.97
   5  -7  -2    1.97    2.19
   5  -7  -1   -0.67    1.89
  -5   7   0    6.95    5.89
   5  -7   0    0.37    1.67
  -5   7  -1    1.10    4.00
   5  -7   1    0.44    0.75
  -5   7  -2    1.18    3.96
   5  -7   2    1.35    2.39
  -5   7  -3    1.25    2.29
   5  -7   3    3.09    2.84
  -5   7  -4    3.51    4.38
   5  -7   4   -1.14    2.63
  -5   7  -5    6.93    5.82
   5  -7   5    3.93    2.45
  -5   7  -6    5.74    5.97
  -5   7  -7    2.45    5.15
   5  -7   8   10.13    4.83
  -5   7  -8   14.75    8.34
   5  -7   9    4.66    3.90
  -5   7  -9    5.83    5.08
   5  -7  10    9.66    4.77
   5  -6 -14   21.50    6.93
   5  -6 -13    2.52    2.34
   5  -6 -12    5.47    3.50
   5  -6 -12    6.37    2.33
   5  -6 -11    8.47    4.43
   5  -6 -11    9.66    2.67
   5  -6 -10    8.01    3.98
   5  -6 -10    4.30    1.75
   5  -6  -9   41.43    9.10
   5  -6  -9   40.69    4.97
   5  -6  -8    1.59    0.73
   5  -6  -8    1.22    1.18
   5  -6  -8    0.23    0.40
   5  -6  -7   20.75    3.92
   5  -6  -7   13.77    2.64
   5  -6  -7   15.82    5.39
   5  -6  -6   11.35    3.02
   5  -6  -6   15.90    5.46
   5  -6  -5    0.26    0.41
   5  -6  -5    1.29    1.61
   5  -6  -4   76.25    8.84
   5  -6  -4   72.12   11.12
   5  -6  -3    2.44    1.80
   5  -6  -2   29.92    7.14
   5  -6  -1    6.23    2.85
   5  -6   0   -0.18    0.56
  -5   6   0    3.88    5.00
   5  -6   0    3.19    1.75
   5  -6   1   44.14    9.05
  -5   6  -1   60.95   12.91
   5  -6   1   56.99    9.35
   5  -6   2    9.10    4.25
  -5   6  -2   25.43    8.74
   5  -6   2   17.15    5.21
   5  -6   3   20.82    6.50
  -5   6  -3   23.26    7.84
   5  -6   3   23.43    6.20
   5  -6   4   -0.32    1.60
   5  -6   4   -2.23    2.16
   5  -6   5    4.02    2.44
  -5   6  -5    8.63    5.73
   5  -6   5    1.88    0.91
   5  -6   6   21.94    6.91
  -5   6  -6   16.67    7.55
   5  -6   6   24.55    6.12
   5  -6   7   28.51    7.78
  -5   6  -7   21.57    8.21
   5  -6   7   20.53    5.58
   5  -6   8    8.34    4.37
  -5   6  -8    4.88    4.49
   5  -6   9    3.29    1.86
  -5   6  -9    6.53    5.05
   5  -6  10   10.86    5.28
  -5   6 -10    2.41    3.75
   5  -6  11   11.21    5.85
   5  -6  12   13.42    5.59
   5  -5 -17    1.06    1.50
   5  -5 -16   11.13    3.95
   5  -5 -15    3.13    2.45
   5  -5 -15   -2.24    1.62
   5  -5 -14    4.50    3.38
   5  -5 -14    0.90    1.20
   5  -5 -13   12.88    4.99
   5  -5 -13    6.14    2.35
   5  -5 -12    2.96    2.23
   5  -5 -12    0.25    0.10
   5  -5 -11   35.98    8.27
   5  -5 -11   35.11    5.08
   5  -5 -10   -1.20    0.98
   5  -5 -10    0.61    1.11
   5  -5  -9    6.33    3.07
   5  -5  -9    9.33    2.32
   5  -5  -8   29.66    7.10
   5  -5  -8   23.22    3.46
   5  -5  -8   28.18    3.95
   5  -5  -7    4.49    2.92
   5  -5  -7    6.43    2.43
   5  -5  -7    2.22    1.20
   5  -5  -6   79.98    5.73
   5  -5  -6   92.34    8.14
   5  -5  -6   98.67   12.59
   5  -5  -5    1.67    2.16
   5  -5  -5   -0.13    0.70
   5  -5  -4   37.19    7.46
   5  -5  -3   33.54    6.99
   5  -5  -2   36.51    7.23
   5  -5  -1  113.58   12.51
   5  -5   0    9.00    3.53
  -5   5  -1   53.59   11.19
   5  -5   1   38.53    7.18
   5  -5   2   19.15    5.50
  -5   5  -2   26.50    8.05
   5  -5   2   16.67    4.66
   5  -5   3   42.88    8.53
  -5   5  -3   56.60   11.70
   5  -5   3   40.08    7.23
   5  -5   4   67.12   10.99
  -5   5  -4   51.44   11.53
   5  -5   4   52.31    8.42
   5  -5   5   31.15    8.31
  -5   5  -5   24.66    8.11
   5  -5   5   24.72    5.66
   5  -5   6   34.05    8.44
  -5   5  -6   36.21    9.78
   5  -5   6   37.53    7.23
   5  -5   7    0.34    2.38
   5  -5   7   -2.24    1.73
   5  -5   8   38.44    9.08
  -5   5  -8   32.05    9.20
   5  -5   8   41.11    7.65
   5  -5   9   23.45    6.81
  -5   5  -9   27.00    8.58
   5  -5  10   26.92    7.56
  -5   5 -10   36.28    9.97
   5  -5  11   17.55    6.11
   5  -5  12    8.68    5.14
   5  -5  13   27.58    8.08
   5  -4 -18   24.70    6.30
   5  -4 -17   -0.17    1.50
   5  -4 -16   15.97    4.75
   5  -4 -15   27.31    7.10
   5  -4 -15   15.51    4.57
   5  -4 -14   14.31    4.77
   5  -4 -14   12.00    3.75
   5  -4 -13   46.12    6.87
   5  -4 -13   65.01   10.63
   5  -4 -12   10.09    2.96
   5  -4 -12    7.47    3.32
   5  -4 -11   29.61    6.97
   5  -4 -11   30.43    4.81
   5  -4 -10   26.52    6.34
   5  -4 -10   20.71    3.74
   5  -4  -9   37.56    7.40
   5  -4  -9   27.72    4.00
   5  -4  -8   59.37    5.43
   5  -4  -8   60.02    4.99
   5  -4  -8   67.76    9.95
   5  -4  -7   35.54    7.07
   5  -4  -7   35.89    3.90
   5  -4  -7   39.20    4.38
   5  -4  -6   26.73    6.05
   5  -4  -6   24.22    2.99
   5  -4  -6   24.72    3.78
  -5   4   6   22.25    2.91
   5  -4  -6   22.59    2.87
   5  -4  -5   20.92    5.32
   5  -4  -5   17.79    2.43
  -5   4   5   16.62    1.86
   5  -4  -5   19.28    2.49
   5  -4  -4   29.68    2.99
   5  -4  -4   39.00    7.06
   5  -4  -3   46.92    3.81
   5  -4  -3   56.10    8.32
   5  -4  -2   44.87    3.77
   5  -4  -2   45.83    7.52
   5  -4  -1   14.30    4.23
   5  -4  -1    9.75    1.88
   5  -4   0   19.72    4.58
  -5   4  -1   23.31    2.60
   5  -4   1   28.04    5.77
  -5   4  -2   30.98    2.82
   5  -4   2   30.71    5.81
  -5   4  -3   28.84    2.69
  -5   4  -3   36.07    8.85
   5  -4   3   30.47    5.87
  -5   4  -4    6.52    4.33
   5  -4   4    2.50    1.50
  -5   4  -5   19.57    6.47
   5  -4   5   15.84    4.20
   5  -4   6    6.86    3.37
   5  -4   6    9.92    3.22
   5  -4   7   13.51    4.83
  -5   4  -7   14.01    5.72
   5  -4   7   14.27    4.04
   5  -4   8   12.29    4.72
  -5   4  -8   12.99    5.91
   5  -4   8   15.12    4.33
   5  -4   9   -4.78    3.16
  -5   4  -9    3.30    3.79
   5  -4   9   -0.66    1.92
   5  -4  10    8.08    3.76
  -5   4 -10   23.04    7.07
   5  -4  11    6.00    2.68
  -5   4 -11   16.93    6.32
   5  -4  12    5.64    3.77
   5  -4  13    7.73    4.38
   5  -4  14    0.34    0.75
   5  -3 -18    2.69    1.91
   5  -3 -17    3.69    2.53
   5  -3 -16    9.27    3.66
   5  -3 -16    7.88    3.82
   5  -3 -15    7.93    3.84
   5  -3 -15    5.19    2.69
   5  -3 -14    4.66    2.67
   5  -3 -14    5.98    3.00
  -5   3  13    3.30    1.48
   5  -3 -13    2.36    1.65
   5  -3 -12   10.65    4.28
  -5   3  12    8.54    2.15
   5  -3 -12    8.20    2.87
   5  -3 -11   26.95    6.23
   5  -3 -11   28.22    4.97
   5  -3 -10    9.51    3.90
   5  -3 -10    2.54    1.37
   5  -3  -9   10.55    2.60
   5  -3  -9   20.10    5.27
   5  -3  -9   18.72    3.46
   5  -3  -8    4.42    1.41
   5  -3  -8    5.00    2.70
   5  -3  -8    2.72    0.86
  -5   3   8    6.79    2.59
   5  -3  -8    3.17    1.41
   5  -3  -7    9.22    3.37
   5  -3  -7    6.57    1.53
  -5   3   7    6.17    1.89
   5  -3  -7    6.68    1.80
   5  -3  -7    7.24    1.81
   5  -3  -6   54.10    4.61
  -5   3   6   51.50    5.00
   5  -3  -6   51.21    4.30
   5  -3  -6   62.80    8.60
   5  -3  -5    2.54    1.35
   5  -3  -5    2.05    0.82
   5  -3  -5    3.00    0.97
   5  -3  -4   26.19    2.47
   5  -3  -4   26.42    2.95
  -5   3   4   25.06    2.09
   5  -3  -4   31.33    5.98
   5  -3  -3    4.84    1.94
   5  -3  -3    4.25    1.16
   5  -3  -2   11.67    3.55
   5  -3  -2    5.96    1.35
   5  -3  -1   86.75    9.48
   5  -3  -1   75.18    5.13
   5  -3   0    2.90    2.15
   5  -3   1   33.19    5.78
   5  -3   2    2.38    1.45
  -5   3  -2    2.33    0.57
  -5   3  -3    7.40    1.08
   5  -3   3   11.53    3.46
  -5   3  -4   88.07    4.05
   5  -3   4   90.58    9.55
  -5   3  -5    2.55    0.71
   5  -3   5    2.37    1.65
   5  -3   6   32.90    2.55
  -5   3  -6   33.16    7.71
   5  -3   6   31.31    5.64
  -5   3  -7    1.71    2.73
   5  -3   7    0.45    1.00
  -5   3  -8    6.44    4.33
   5  -3   8    0.94    1.05
   5  -3   9   70.30   11.11
  -5   3  -9   96.32   13.07
   5  -3   9   73.92    8.93
   5  -3  10    0.88    2.38
   5  -3  10    0.92    0.53
   5  -3  11   23.83    6.87
   5  -3  12    1.38    1.72
   5  -3  13   -1.16    2.99
   5  -3  14   41.53    9.67
   5  -3  15    0.49    2.11
   5  -2 -18   10.59    4.68
   5  -2 -17   11.85    4.58
   5  -2 -16   11.01    4.26
   5  -2 -16    6.27    3.31
  -5   2  16    6.02    2.46
   5  -2 -15   32.60    7.18
   5  -2 -15   27.42    6.77
  -5   2  15   22.13    4.54
   5  -2 -14   10.04    4.09
   5  -2 -14    7.12    3.37
  -5   2  14    2.95    1.57
   5  -2 -13   26.24    6.25
  -5   2  13   21.19    3.90
   5  -2 -13   25.27    5.86
   5  -2 -12    4.74    2.72
   5  -2 -12    6.99    2.84
  -5   2  12    5.79    1.90
   5  -2 -11   16.56    4.84
  -5   2  11   12.92    2.71
   5  -2 -11   17.00    4.20
  -5   2  10   36.83    4.30
   5  -2 -10   31.70    5.07
   5  -2 -10   41.23    6.08
   5  -2 -10   38.56    7.38
   5  -2  -9    5.50    1.95
   5  -2  -9    8.16    3.34
   5  -2  -9    4.89    1.94
  -5   2   9    5.87    2.69
  -5   2   9    6.34    1.78
  -5   2   8   56.75    7.35
   5  -2  -8   56.73    5.86
   5  -2  -8   65.08    6.36
   5  -2  -8   69.41    9.27
   5  -2  -7    4.48    2.40
   5  -2  -7    3.43    0.89
  -5   2   7    2.59    1.47
   5  -2  -7    4.16    1.46
   5  -2  -7    4.37    1.62
  -5   2   6   34.24    4.39
   5  -2  -6   35.02    3.82
   5  -2  -6   38.18    3.89
   5  -2  -6   42.45    6.84
   5  -2  -5   45.28    3.72
   5  -2  -5   45.76    4.16
  -5   2   5   41.30    4.04
   5  -2  -5   58.35    7.80
   5  -2  -4    1.60    1.31
  -5   2   4    2.18    0.78
   5  -2  -4    2.88    0.75
   5  -2  -4    2.98    1.03
   5  -2  -3   98.95    3.95
  -5   2   3   91.20    3.91
   5  -2  -3   93.37    5.60
   5  -2  -3   99.03    9.70
   5  -2  -2    1.01    1.48
   5  -2  -2    0.25    0.44
   5  -2  -1   64.23    4.73
   5  -2  -1   70.28    7.89
   5  -2   0   34.54    5.51
   5  -2   1    2.69    1.39
   5  -2   2   72.44    7.91
   5  -2   3    9.15    2.90
  -5   2  -4   49.83    2.47
   5  -2   4   48.93    2.00
   5  -2   4   55.01    6.85
   5  -2   5    9.90    2.92
   5  -2   6    3.37    1.43
   5  -2   7   21.82    4.46
   5  -2   8   11.11    3.17
   5  -2   9   18.00    4.28
   5  -2  10   -1.11    1.22
   5  -2  11    0.03    0.31
   5  -2  12    2.49    2.12
   5  -2  13    3.72    1.59
  -5   2 -13    3.64    1.56
   5  -2  14    2.40    2.96
   5  -2  15   -6.20    3.71
   5  -2  16    0.35    0.88
  -5   1  18   -0.14    0.84
   5  -1 -18    9.27    5.38
   5  -1 -17    4.17    2.83
  -5   1  17   -0.35    0.92
   5  -1 -16    3.85    2.59
  -5   1  16    3.84    2.36
  -5   1  15   46.07    7.25
   5  -1 -15   66.14   10.30
   5  -1 -14    0.70    1.45
  -5   1  14    1.40    0.77
   5  -1 -13   -0.57    1.13
  -5   1  13    0.10    0.46
   5  -1 -12   14.44    4.49
  -5   1  12    9.87    2.82
   5  -1 -11    2.25    1.92
  -5   1  11    2.08    1.18
  -5   1  10  151.46    9.60
   5  -1 -10  158.77   14.46
   5  -1  -9    1.40    0.96
   5  -1  -9    2.88    2.78
  -5   1   9    2.17    1.19
   5  -1  -8    1.82    1.32
  -5   1   8    1.29    1.00
  -5   1   8    3.68    1.29
   5  -1  -8    2.54    1.11
   5  -1  -7   36.31    1.89
  -5   1   7   32.95    3.77
  -5   1   7   34.64    5.23
   5  -1  -7   35.51    4.38
   5  -1  -7   39.80    5.18
   5  -1  -7   39.11    6.62
   5  -1  -6    1.13    0.95
   5  -1  -6    2.10    1.84
  -5   1   6    1.12    0.90
   5  -1  -6    0.23    0.21
  -5   1   5  284.20   11.47
   5  -1  -5  307.21   11.14
   5  -1  -5  329.66   11.47
   5  -1  -4   12.38    3.37
  -5   1   4   11.25    1.92
   5  -1  -4   12.52    1.87
   5  -1  -4    9.81    1.93
   5  -1  -3   26.59    3.02
   5  -1  -3   27.32    2.15
  -5   1   3   24.08    2.45
   5  -1  -3   27.42    5.03
   5  -1  -2   41.90    1.91
   5  -1  -2   40.81    3.73
  -5   1   2   41.88    2.70
   5  -1  -2   50.76    6.48
   5  -1  -1   10.24    2.86
   5  -1  -1   10.39    1.95
   5  -1  -1   18.37    4.06
   5  -1   0  451.83   19.53
   5  -1   0  459.93   18.72
   5  -1   1   68.88    7.29
   5  -1   1   55.83    6.36
  -5   1  -1   47.14    6.80
   5  -1   2   44.23    2.36
   5  -1   2   42.33    5.49
   5  -1   2   39.85    5.33
  -5   1  -2   39.72    6.26
   5  -1   3   28.53    1.95
   5  -1   3   27.53    4.20
   5  -1   3   25.27    4.30
  -5   1  -3   29.86    5.44
  -5   1  -4   46.03    2.32
   5  -1   4   56.54    5.94
   5  -1   4   54.52    6.30
  -5   1  -4   52.16    7.25
   5  -1   5  344.31   15.85
  -5   1  -5  314.00   18.52
   5  -1   6   95.36    8.37
  -5   1  -6   79.73    9.49
   5  -1   7   32.76    4.99
   5  -1   8    3.04    1.30
   5  -1   9   50.93    6.37
   5  -1  10  147.11   10.98
   5  -1  11   67.89    7.49
  -5   1 -12   18.45    3.59
   5  -1  12   13.89    4.97
   5  -1  13   -0.31    1.99
  -5   1 -13    0.36    0.28
   5  -1  14   40.59    9.46
  -5   1 -14   31.16    4.64
   5  -1  15   52.32   10.96
   5  -1  16   28.81    8.02
   5  -1  17    4.59    2.23
  -5   0  19   15.24    4.94
  -5   0  18    0.27    1.60
   5   0 -17   21.09    5.76
  -5   0  17   15.15    4.66
   5   0 -16    8.80    3.89
  -5   0  16    5.86    3.11
  -5   0  15   62.10    9.03
   5   0 -15   97.67   12.53
  -5   0  14   45.43    7.30
   5   0 -14   58.43    9.60
   5   0 -13   11.31    4.07
  -5   0  13   14.17    3.94
  -5   0  12   35.15    5.79
   5   0 -12   45.60    8.23
   5   0 -11    1.66    1.46
  -5   0  11    3.55    1.68
  -5   0  10  142.66   10.20
   5   0 -10  116.90   12.47
  -5   0   9   61.31    6.27
   5   0  -9   59.30    8.69
   5   0  -8   26.60    5.63
  -5   0   8   30.03    4.08
   5   0  -8   24.69    4.13
  -5   0   8   32.87    5.61
  -5   0   7   41.53    4.51
  -5   0   7   43.84    5.88
   5   0  -7   46.53    5.24
   5   0  -7   45.91    7.02
   5   0  -6    0.46    0.68
  -5   0   6    1.43    0.88
  -5   0   6    1.29    0.88
   5   0  -6    1.03    0.75
  -5   0   5  186.01    8.71
  -5   0   5  188.78    9.83
   5   0  -5  186.92    9.10
   5   0  -5  203.34   14.12
   5   0  -4   38.79    3.88
  -5   0   4   37.31    3.79
   5   0  -4   43.08    6.24
   5   0  -3   36.78    3.67
  -5   0   3   35.96    3.34
   5   0  -3   42.11    5.97
   5   0  -2   36.30    3.59
  -5   0   2   34.07    2.90
   5   0  -2   36.09    2.50
   5   0  -2   39.76    5.67
   5   0  -1   10.29    2.57
   5   0  -1   10.09    1.84
   5   0   0  171.52    7.78
   5   0   0  192.04    6.92
   5   0   0  178.03   12.32
   5   0   0  188.58   11.57
   5   0   1   13.92    3.12
   5   0   1   14.29    1.69
   5   0   1   14.04    3.36
   5   0   2   36.70    2.63
   5   0   2   38.94    5.15
   5   0   2   36.80    4.79
  -5   0  -2   38.93    5.75
   5   0   3   10.67    2.58
  -5   0  -3   11.59    3.16
   5   0   3   10.32    2.70
   5   0   3    9.27    1.36
   5   0   4   11.21    2.65
  -5   0  -4   10.60    0.96
  -5   0  -4   15.19    3.77
   5   0   4   10.33    2.39
  -5   0  -5  120.34    4.94
   5   0   5  129.89    8.11
   5   0   5  121.85    8.67
  -5   0  -5  110.28    9.97
   5   0   6    2.29    1.26
  -5   0  -6    1.10    1.09
  -5   0  -6    1.67    0.86
   5   0   6    1.44    0.98
   5   0   7   16.60    3.27
  -5   0  -7   18.85    4.35
  -5   0  -7   19.19    2.98
  -5   0  -8    2.80    1.83
  -5   0  -8    4.55    2.07
   5   0   8    1.14    0.35
  -5   0  -9   11.05    3.44
   5   0   9   10.44    2.54
   5   0  10   38.67    5.15
  -5   0 -10   37.53    6.42
  -5   0 -11    0.32    0.80
  -5   0 -11    1.04    0.77
  -5   0 -12    9.73    3.33
  -5   0 -12    7.53    2.38
   5   0  13    1.33    0.96
  -5   0 -13    0.10    0.46
   5   0  14    4.03    2.07
  -5   0 -14    6.35    2.22
   5   0  15    8.74    4.04
  -5   0 -15    6.60    2.24
  -5   0 -16    4.43    3.58
   5   0  16   -0.76    2.91
  -5   0 -17    9.76    5.15
   5   0  17   -0.90    1.35
   5   0  18    2.46    2.67
  -5   0 -18    3.65    4.11
  -5   0 -19    9.67    5.42
  -5   0 -20    2.36    4.07
  -5  -1  19    0.40    2.43
   5   1 -18   -1.70    0.23
  -5  -1  18   -2.87    2.26
   5   1 -17    7.09    3.65
  -5  -1  17    0.67    1.98
   5   1 -16   14.77    5.05
  -5  -1  16    4.65    2.62
   5   1 -15   21.51    6.31
  -5  -1  15    9.26    3.69
   5   1 -14   22.75    6.22
  -5  -1  14   20.48    5.18
   5   1 -13    7.74    3.43
  -5  -1  13    4.15    2.36
   5   1 -12    3.63    3.23
  -5  -1  12    3.07    2.06
  -5  -1  11   27.09    5.23
   5   1 -11   37.03    7.27
  -5  -1  10   64.47    7.41
   5   1 -10   64.11    9.52
  -5  -1   9   53.51    6.33
   5   1  -9   46.81    7.84
   5   1  -8   17.10    4.33
  -5  -1   8   18.22    3.34
   5   1  -7    2.34    1.09
  -5  -1   7    1.96    1.04
  -5  -1   7    2.99    1.53
   5   1  -7    1.59    1.10
   5   1  -6   45.63    2.10
  -5  -1   6   40.78    4.57
  -5  -1   6   51.66    5.88
   5   1  -6   44.23    4.89
   5   1  -6   39.83    6.53
  -5  -1   5  197.41    9.46
  -5  -1   5  175.47    9.79
   5   1  -5  193.68    9.62
   5   1  -5  189.64   13.95
  -5  -1   4  102.36    6.59
  -5  -1   4   98.42    6.59
   5   1  -4   99.53    6.48
   5   1  -4  111.11   10.20
  -5  -1   3   66.12    4.92
   5   1  -3   68.70    5.18
   5   1  -3   82.19    8.43
   5   1  -2    1.87    1.34
  -5  -1   2    3.70    1.07
   5   1  -2    3.30    1.11
   5   1  -2    3.54    1.09
   5   1  -1   59.68    4.58
  -5  -1   1   57.77    3.90
   5   1  -1   58.12    4.38
   5   1  -1   61.70    6.78
   5   1   0  345.66    5.04
   5   1   0  342.46   11.08
   5   1   0  342.69    9.85
   5   1   0  354.80   15.65
   5   1   1   98.14    5.00
   5   1   1  101.65    8.04
   5   1   2   84.16    4.59
   5   1   2  102.11    7.79
   5   1   3    4.55    1.58
  -5  -1  -3    2.77    0.81
   5   1   3    2.92    0.77
  -5  -1  -4   29.47    1.96
   5   1   4   30.53    4.12
   5   1   4   41.51    4.73
  -5  -1  -4   27.47    4.63
  -5  -1  -5  329.88    8.08
   5   1   5  337.56   12.42
   5   1   5  345.72   13.26
  -5  -1  -5  320.86   15.94
  -5  -1  -6   62.13    4.29
   5   1   6   57.75    4.73
   5   1   6   59.28    5.47
  -5  -1  -6   57.42    6.85
  -5  -1  -7   78.87    5.70
   5   1   7   81.40    5.29
   5   1   7   86.81    6.70
  -5  -1  -7   76.71    7.98
   5   1   8    4.17    1.44
  -5  -1  -8    3.41    1.36
  -5  -1  -8    1.91    1.28
  -5  -1  -9    5.59    2.24
  -5  -1  -9    7.80    2.34
  -5  -1  -9    7.14    2.26
   5   1   9    8.13    2.04
  -5  -1 -10  213.28   12.51
  -5  -1 -10  237.44   14.13
   5   1  10  206.81   10.62
  -5  -1 -10  203.47   13.11
  -5  -1 -11   14.99    3.75
  -5  -1 -11   16.67    4.01
  -5  -1 -11   14.98    3.36
   5   1  11   15.71    2.94
  -5  -1 -12   52.01    6.36
  -5  -1 -12   61.14    8.29
  -5  -1 -12   59.61    7.22
  -5  -1 -13    0.47    0.85
  -5  -1 -13    2.53    2.42
   5   1  14    0.17    1.44
  -5  -1 -14    0.07    0.83
  -5  -1 -14    0.63    1.45
  -5  -1 -15   94.25    9.44
   5   1  15   92.51   13.52
  -5  -1 -15  129.46   14.67
   5   1  16    1.51    1.17
  -5  -1 -16    4.69    3.61
   5   1  17   23.79    7.18
  -5  -1 -17   41.16    8.83
   5   1  18    1.00    2.67
  -5  -1 -18    3.94    3.44
  -5  -1 -19    4.58    3.99
  -5  -1 -20   72.70   12.50
  -5  -2  19   44.21    9.63
   5   2 -18    2.38    1.72
  -5  -2  18   -0.63    1.11
   5   2 -17    1.99    2.18
  -5  -2  17    1.82    2.17
   5   2 -16   20.55    5.98
  -5  -2  16   10.14    4.29
  -5  -2  15    0.92    0.17
  -5  -2  14   76.76   10.74
  -5  -2  13    1.64    0.57
  -5  -2  12    2.82    1.91
  -5  -2  11   15.57    4.18
  -5  -2  10   17.96    4.25
  -5  -2   9  158.42   11.78
  -5  -2   8   14.52    3.17
  -5  -2   7    6.47    2.05
   5   2  -6   23.17    3.67
  -5  -2   6   24.14    3.77
  -5  -2   6   26.20    4.27
   5   2  -5   48.21    3.09
  -5  -2   5   45.59    4.89
  -5  -2   5   48.34    5.33
   5   2  -5   44.56    4.85
  -5  -2   4  185.44    9.29
  -5  -2   4  186.00    9.58
   5   2  -4  192.20    9.47
  -5  -2   3   25.69    3.33
  -5  -2   3   24.02    3.17
   5   2  -3   28.98    3.75
   5   2  -2    6.62    2.21
  -5  -2   2    8.05    1.69
   5   2  -2    8.63    1.93
   5   2  -1   20.40    3.83
  -5  -2   1   22.03    2.65
   5   2  -1   23.50    2.92
   5   2   0   46.66    2.74
   5   2   0   45.65    3.84
   5   2   0   49.10    5.88
   5   2   1  204.58    5.46
   5   2   1  199.09    7.79
   5   2   1  203.15   11.42
   5   2   2   41.64    3.53
   5   2   2   44.90    2.73
   5   2   2   41.00    4.87
   5   2   3    4.36    1.61
   5   2   3    1.03    0.49
   5   2   3    1.46    0.57
  -5  -2  -4   20.33    1.98
   5   2   4   22.84    3.37
  -5  -2  -5   30.39    2.68
   5   2   5   31.28    3.79
  -5  -2  -6   99.69    5.49
   5   2   6   97.60    6.19
   5   2   6  101.74    6.56
  -5  -2  -7   18.66    2.66
   5   2   7   17.84    2.29
   5   2   7   20.03    2.93
  -5  -2  -7   17.90    3.67
   5   2   8    3.15    1.23
  -5  -2  -8    2.82    0.99
   5   2   8    2.27    0.69
  -5  -2  -8    2.63    1.35
   5   2   9    6.25    1.63
  -5  -2  -9    4.61    1.65
  -5  -2  -9    3.82    1.81
  -5  -2 -10    6.90    2.37
  -5  -2 -10    7.47    2.38
   5   2  10    5.46    1.45
  -5  -2 -11   29.39    4.88
  -5  -2 -11   40.54    5.87
   5   2  11   31.54    3.63
  -5  -2 -12    6.65    2.73
  -5  -2 -12    5.49    2.10
  -5  -2 -13    7.01    2.95
  -5  -2 -13    5.44    2.34
  -5  -2 -14    0.53    0.68
  -5  -2 -14    3.06    2.05
   5   2  15    4.05    2.79
  -5  -2 -15    0.06    1.44
   5   2  16    4.29    2.44
  -5  -2 -16    6.74    3.39
   5   2  17   -0.96    1.73
  -5  -2 -17    1.28    1.08
   5   2  18    2.54    1.88
  -5  -2 -18    7.54    3.61
   5   2  19   -1.49    1.83
  -5  -2 -19    3.31    2.74
  -5  -2 -20    6.50    4.55
  -5  -3  18    4.27    2.86
  -5  -3  17   -0.72    0.66
  -5  -3  16    2.31    2.09
  -5  -3  15    1.80    1.97
  -5  -3  14   49.80    9.29
  -5  -3  13    2.30    1.48
  -5  -3  12    0.92    0.95
  -5  -3  11   12.35    3.96
  -5  -3  10    0.12    1.11
  -5  -3   9  145.91   11.99
  -5  -3   8    3.73    1.91
  -5  -3   7    7.79    2.53
  -5  -3   6   22.00    3.80
   5   3  -5    6.16    1.34
  -5  -3   5    6.13    1.92
  -5  -3   5    7.88    2.18
   5   3  -4  254.79    8.60
  -5  -3   4  267.81   11.83
  -5  -3   4  251.63   11.65
   5   3  -4  264.05   12.54
  -5  -3   3    0.51    0.12
   5   3  -3    0.03    0.63
  -5  -3   3    0.73    0.71
  -5  -3   2    8.63    1.89
   5   3  -2   10.90    2.21
  -5  -3   2    7.06    1.77
  -5  -3   1   18.59    2.65
   5   3  -1   20.22    2.91
   5   3   0   29.11    2.61
   5   3   0   33.75    3.56
   5   3   1  336.43    8.75
   5   3   1  330.07   10.93
   5   3   2    9.22    2.40
   5   3   2    7.04    1.55
   5   3   2    8.13    1.31
   5   3   3   25.07    2.98
   5   3   3   27.67    2.65
   5   3   3   24.58    3.64
  -5  -3  -4   12.96    1.78
   5   3   4   16.04    2.77
   5   3   4   13.89    2.05
  -5  -3  -4   18.51    3.82
  -5  -3  -5   82.11    4.85
  -5  -3  -5   85.02    8.30
   5   3   5   87.03    5.66
   5   3   5   86.33    6.18
  -5  -3  -6  267.41    9.38
  -5  -3  -6  268.96   14.81
   5   3   6  280.56   10.64
  -5  -3  -7   16.81    2.56
  -5  -3  -7   14.53    3.34
   5   3   7   15.77    2.37
  -5  -3  -8   38.31    4.25
  -5  -3  -8   36.02    5.57
   5   3   8   37.31    3.49
   5   3   9    2.96    1.04
  -5  -3  -9    4.12    1.43
   5   3   9    3.91    0.68
  -5  -3  -9    2.85    1.43
  -5  -3 -10   91.99    9.24
  -5  -3 -10   92.96    7.97
   5   3  10   85.43    5.07
  -5  -3 -11  179.82   13.31
  -5  -3 -11  184.44   12.01
   5   3  11  156.63    6.58
  -5  -3 -12   26.99    4.97
  -5  -3 -12   18.80    4.43
  -5  -3 -13   23.96    5.21
  -5  -3 -13   27.50    5.39
  -5  -3 -14    1.05    1.84
  -5  -3 -15   54.60    8.57
  -5  -3 -16   88.25   11.39
   5   3  16   78.97   12.19
   5   3  17   11.01    4.41
  -5  -3 -17   13.80    4.84
   5   3  18   13.69    5.47
  -5  -3 -18   16.59    5.45
   5   3  19    1.01    1.87
  -5  -3 -19    0.89    2.61
   5   3  20   24.35    7.64
  -5  -3 -20   28.60    7.70
  -5  -4  17   -0.26    0.75
  -5  -4  16    2.62    2.32
  -5  -4  15   30.18    7.66
  -5  -4  14   50.01    9.62
  -5  -4  13   39.18    8.25
  -5  -4  12    2.24    1.72
  -5  -4  11   15.25    2.65
  -5  -4  11   10.64    3.88
  -5  -4  10   76.11    9.59
  -5  -4  10   84.91    6.63
  -5  -4   9  155.34   13.07
  -5  -4   8   50.69    7.04
  -5  -4   7    7.33    2.47
  -5  -4   6   12.57    2.99
  -5  -4   5   75.31    7.06
   5   4  -5   66.53    6.88
   5   4  -4  254.88    9.98
  -5  -4   4  253.91   12.19
  -5  -4   4  240.57   11.94
   5   4  -4  253.98   12.60
   5   4  -3   36.61    3.75
  -5  -4   3   35.17    4.29
  -5  -4   3   36.95    4.40
   5   4  -2   45.64    4.25
  -5  -4   2   46.02    4.69
  -5  -4   2   43.89    4.56
  -5  -4   1    3.75    1.24
  -5  -4   1    2.24    1.06
  -5  -4   1    4.09    2.22
   5   4   0   39.05    3.53
  -5  -4   0   40.54    5.76
   5   4   1  308.82    9.69
  -5  -4  -1  326.50   16.64
   5   4   2    0.21    0.29
  -5  -4  -2   -0.47    0.60
   5   4   3   58.60    4.73
   5   4   3   60.76    4.43
   5   4   3   56.68    4.79
  -5  -4  -3   61.70    7.42
   5   4   4    3.58    1.13
   5   4   4    1.99    0.88
  -5  -4  -4    2.83    0.99
  -5  -4  -4    7.53    2.68
   5   4   5    4.79    1.37
   5   4   5    6.53    1.60
  -5  -4  -5    5.40    2.22
  -5  -4  -5    4.58    1.16
  -5  -4  -6  209.31    8.85
  -5  -4  -6  192.36   13.63
   5   4   6  217.41   10.04
   5   4   6  213.33    9.53
   5   4   7    7.98    1.71
  -5  -4  -7    6.54    1.58
   5   4   7   10.92    2.46
  -5  -4  -7    7.31    2.55
  -5  -4  -8   46.94    4.80
  -5  -4  -8   46.65    6.95
   5   4   8   51.53    3.98
  -5  -4  -9   12.03    3.52
  -5  -4  -9   13.00    2.53
   5   4   9   12.01    1.72
   5   4  10    0.75    0.54
  -5  -4 -10    1.10    1.39
  -5  -4 -10   -0.69    1.11
  -5  -4 -11   90.34   10.52
  -5  -4 -11   98.22    8.64
   5   4  11   75.58    3.07
  -5  -4 -12   16.96    3.88
  -5  -4 -13   11.74    3.35
  -5  -4 -14    9.50    3.12
  -5  -4 -15    0.90    0.66
   5   4  16   21.81    6.39
  -5  -4 -16   25.04    5.86
   5   4  17    5.69    3.39
  -5  -4 -17    3.98    2.29
   5   4  18    1.70    0.32
  -5  -4 -18    2.59    2.03
   5   4  19    5.36    3.37
  -5  -4 -19    2.03    1.64
   5   4  20    0.43    1.60
  -5  -4 -20   -0.20    1.27
  -5  -5  16   -1.22    1.63
  -5  -5  15    0.18    1.28
  -5  -5  14    6.12    3.33
  -5  -5  13   15.63    5.28
  -5  -5  12    7.40    3.59
  -5  -5  11   10.08    3.93
  -5  -5  10   14.34    2.61
  -5  -5  10   12.94    4.16
  -5  -5   9   37.10    6.65
  -5  -5   9   52.77    5.39
  -5  -5   8   84.26    9.50
  -5  -5   8   86.29    7.22
  -5  -5   7    4.78    1.75
  -5  -5   7    6.63    2.54
  -5  -5   6   72.97    7.77
  -5  -5   6   74.71    7.31
   5   5  -5   16.29    3.45
  -5  -5   5   16.92    3.16
  -5  -5   5   17.43    3.64
  -5  -5   4  168.70   10.48
   5   5  -4  158.44   10.34
  -5  -5   4  130.15   10.39
   5   5  -3  195.99    9.84
  -5  -5   3  204.95   10.93
   5   5  -2    1.32    0.80
  -5  -5   2    0.46    0.61
  -5  -5   2    1.07    0.96
  -5  -5   2    1.53    1.36
   5   5  -2    1.53    0.86
   5   5  -1  148.12    8.58
  -5  -5   1  166.21    9.03
  -5  -5   1  144.64    8.43
   5   5  -1  150.30    8.38
  -5  -5   1  145.36   11.64
   5   5   0   16.16    2.52
  -5  -5   0   19.57    3.04
   5   5   0   17.15    2.94
   5   5   0   16.69    2.70
  -5  -5   0   17.40    4.03
   5   5   1  315.46   10.94
   5   5   1  305.67   11.21
  -5  -5  -1  283.33   16.94
   5   5   2  222.82    9.18
   5   5   2  205.99    9.07
  -5  -5  -2  211.96   14.88
   5   5   3    9.08    1.91
   5   5   3    8.68    1.82
  -5  -5  -3   10.80    3.15
   5   5   4  173.80    8.33
   5   5   4  205.85    9.34
  -5  -5  -4  196.36   14.80
   5   5   5    0.28    0.37
   5   5   5   -0.15    0.45
  -5  -5  -5    1.46    1.00
  -5  -5  -5    0.38    0.23
  -5  -5  -6  289.25   11.15
  -5  -5  -6  299.19   19.15
   5   5   6  300.32   12.39
  -5  -5  -7  129.09    7.84
  -5  -5  -7  135.77   13.19
   5   5   7  137.84    8.90
   5   5   7  136.44    7.48
  -5  -5  -8   26.23    3.71
  -5  -5  -8   22.54    5.54
   5   5   8   26.32    4.14
   5   5   8   29.27    3.07
  -5  -5  -9   91.71    7.30
  -5  -5  -9   90.07   11.18
   5   5   9   93.56    4.84
   5   5  10    2.18    0.64
  -5  -5 -10    1.46    1.11
  -5  -5 -11  180.73   11.56
   5   5  11  186.20    5.01
  -5  -5 -12   31.01    5.15
  -5  -5 -13   19.79    4.36
  -5  -5 -14   21.81    4.82
  -5  -5 -15    3.57    1.51
  -5  -5 -16   75.95    9.97
  -5  -5 -17    3.93    1.84
   5   5  17    3.60    2.54
  -5  -5 -18    8.78    2.98
   5   5  18   11.18    4.49
  -5  -5 -19    0.14    2.02
   5   5  19    2.94    1.42
  -5  -5 -20   -2.40    2.65
   5   5  20    3.65    2.80
   5   5  21   25.58    7.52
  -5  -6  15   12.79    5.41
  -5  -6  14    4.03    3.00
  -5  -6  13   61.61   10.85
  -5  -6  12    2.32    1.86
  -5  -6  11    4.95    2.92
  -5  -6  10   16.45    4.88
  -5  -6   9   13.68    4.18
  -5  -6   8   97.15   10.72
  -5  -6   7   28.25    5.54
  -5  -6   6    5.09    2.31
  -5  -6   6    5.36    2.28
   5   6  -5   24.86    4.38
  -5  -6   5   21.43    4.41
  -5  -6   5   17.35    3.65
   5   6  -4   15.56    3.41
  -5  -6   4   16.51    4.17
  -5  -6   4   16.18    3.35
   5   6  -3  144.59    9.43
  -5  -6   3  140.64    9.44
   5   6  -3  153.78   10.22
  -5  -6   3  134.79   12.01
   5   6  -2   57.44    5.87
  -5  -6   2   57.21    5.74
   5   6  -2   54.26    5.74
  -5  -6   2   40.32    6.69
   5   6  -1    0.63    0.75
   5   6  -1    0.95    0.86
  -5  -6   1    0.32    0.63
  -5  -6   1    0.84    0.48
   5   6   0   30.62    3.76
   5   6   0   35.61    4.65
  -5  -6   0   35.83    4.14
   5   6   0   34.48    4.32
   5   6   0   30.58    3.83
  -5  -6   0   18.24    4.69
   5   6   1    4.23    1.27
   5   6   1    5.94    1.86
  -5  -6  -1    5.48    2.46
   5   6   1    5.15    1.51
   5   6   2  134.93    7.83
   5   6   2  124.93    7.33
  -5  -6  -2  120.33   12.62
   5   6   3   32.51    3.84
   5   6   3   26.07    3.26
  -5  -6  -3   25.39    5.83
   5   6   4    4.94    1.44
  -5  -6  -4    3.98    2.08
   5   6   4    6.02    1.68
   5   6   4    4.77    1.36
   5   6   5   40.32    4.03
  -5  -6  -5   46.27    8.39
   5   6   5   55.70    5.37
  -5  -6  -5   46.12    4.67
   5   6   6    0.51    0.16
  -5  -6  -6    0.01    0.22
  -5  -6  -7   78.58    6.45
   5   6   7   63.60    5.34
  -5  -6  -8    5.83    1.85
  -5  -6  -9    9.72    2.38
   5   6   9   11.10    1.84
  -5  -6 -10   38.86    5.11
   5   6  10   32.67    2.83
   5   6  10   37.12    2.75
  -5  -6 -11    0.39    0.31
   5   6  11    0.43    0.36
  -5  -6 -12   30.24    5.02
   5   6  12   35.98    2.96
  -5  -6 -13    1.86    1.24
  -5  -6 -14    9.84    3.18
  -5  -6 -15   12.48    3.58
  -5  -6 -16    1.37    1.15
   5   6  17   11.72    4.63
  -5  -6 -17    8.88    3.53
   5   6  18    2.53    2.34
  -5  -6 -18    2.49    2.07
   5   6  19    0.27    2.46
  -5  -6 -19    4.06    2.43
   5   6  20    4.79    2.63
   5   6  21    2.80    2.80
  -5  -7  14    2.67    1.94
  -5  -7  13    4.11    2.80
  -5  -7  12   14.57    5.19
  -5  -7  11    2.16    2.18
  -5  -7  10   22.10    5.94
  -5  -7   9   11.92    4.07
  -5  -7   8   11.06    3.77
  -5  -7   7   24.84    5.30
  -5  -7   6    7.52    2.69
   5   7  -5   18.08    4.04
  -5  -7   5   15.72    3.64
   5   7  -4   24.35    4.44
  -5  -7   4   21.15    4.00
   5   7  -3   25.14    4.41
  -5  -7   3   15.85    3.33
   5   7  -2   17.79    3.55
  -5  -7   2   16.05    3.14
   5   7  -1    8.36    2.25
  -5  -7   1    7.14    1.91
  -5  -7   0   19.65    3.19
   5   7   0   18.82    3.37
  -5  -7  -1   60.83    5.41
   5   7   1   59.82    5.94
   5   7   2   19.21    3.41
   5   7   2   14.11    2.56
   5   7   3   12.06    2.53
   5   7   3   11.39    2.19
   5   7   4   22.88    3.56
   5   7   4   21.24    3.03
   5   7   5   10.38    2.29
   5   7   5   10.53    2.14
   5   7   6   58.96    5.00
  -5  -7  -6   61.36    5.88
  -5  -7  -7   33.42    4.43
   5   7   7   30.01    3.62
  -5  -7  -8    3.19    1.60
  -5  -7  -9   32.68    4.63
   5   7   9   28.87    3.61
  -5  -7 -10   13.30    3.09
   5   7  10   15.94    2.27
  -5  -7 -11   72.93    7.62
   5   7  11   67.98    3.39
   5   7  11   72.27    3.44
  -5  -7 -12   42.39    6.10
   5   7  12   39.34    4.10
  -5  -7 -13    0.58    0.38
   5   7  13    1.66    0.86
  -5  -7 -14   40.66    6.50
  -5  -7 -15    6.06    2.77
  -5  -7 -16   40.64    7.20
   5   7  17   28.82    7.18
  -5  -7 -17   22.55    5.73
   5   7  18    1.60    1.92
  -5  -7 -18    1.31    1.45
   5   7  19   21.38    6.60
  -5  -7 -19   16.91    5.32
  -5  -8  13    8.57    4.29
  -5  -8  12   12.21    4.79
  -5  -8  12   18.24    5.63
  -5  -8  11   -3.82    2.55
  -5  -8  11    2.65    2.14
  -5  -8  10    9.87    4.00
  -5  -8   9   43.51    8.01
  -5  -8   8   24.58    5.68
  -5  -8   7   36.32    6.64
  -5  -8   6    0.41    1.26
   5   8  -5   16.58    3.99
  -5  -8   5   17.51    4.00
  -5  -8   4   53.85    6.78
   5   8  -4   46.79    6.49
  -5  -8   3   55.20    6.49
   5   8  -3   54.51    6.67
  -5  -8   2   24.94    4.13
   5   8  -2   32.41    4.96
   5   8  -1    5.61    1.98
  -5  -8   1    4.47    1.66
   5   8   0   12.08    2.89
  -5  -8   0    9.60    2.38
  -5  -8  -1   16.43    2.95
   5   8   1   17.23    3.44
   5   8   2   79.14    7.15
   5   8   3    0.64    0.52
   5   8   4   21.41    3.71
   5   8   4   20.80    3.14
   5   8   5    0.07    0.56
   5   8   5    2.01    0.91
   5   8   6   -0.61    0.76
   5   8   6    0.21    0.51
  -5  -8  -7   55.77    6.01
  -5  -8  -8    6.10    2.03
   5   8   8    6.75    2.22
  -5  -8  -9   30.58    4.75
   5   8   9   25.33    3.89
  -5  -8 -10    3.09    1.44
   5   8  10    1.46    0.37
  -5  -8 -11    1.96    1.25
  -5  -8 -12   31.50    5.35
   5   8  12   26.27    4.01
  -5  -8 -13   16.43    3.95
   5   8  13   16.15    2.94
  -5  -8 -14   10.84    3.45
  -5  -8 -15    5.59    2.32
  -5  -8 -16   -1.87    1.43
  -5  -8 -17    6.87    3.12
   5   8  17    3.77    1.82
  -5  -8 -18    8.58    3.44
  -5  -9  12   -0.47    2.71
  -5  -9  12    3.93    2.56
  -5  -9  11    8.58    3.72
  -5  -9  11   13.71    4.92
  -5  -9  10   19.10    5.70
  -5  -9   9    7.91    3.47
  -5  -9   8    9.76    3.74
  -5  -9   7   42.63    7.44
  -5  -9   6   17.03    4.39
  -5  -9   5  110.89   10.56
   5   9  -5   95.13    9.99
   5   9  -4   16.23    3.87
  -5  -9   4   18.39    4.04
  -5  -9   3   45.71    6.10
   5   9  -3   42.95    6.27
  -5  -9   2  101.72    8.58
   5   9  -2  107.66    9.60
   5   9  -1    8.75    2.62
  -5  -9   1   11.97    2.70
  -5  -9   0  237.94   12.05
   5   9   0  230.98   13.24
  -5  -9  -1   15.30    3.00
   5   9   1   15.28    3.28
   5   9   2  109.64    8.89
   5   9   3  124.40    9.46
   5   9   4    0.85    0.66
   5   9   5  227.98   12.64
   5   9   6    2.73    1.27
   5   9   7  103.09    8.64
   5   9   8   54.29    6.70
  -5  -9  -8   69.12    7.36
  -5  -9  -9    4.05    1.91
  -5  -9 -10  133.20   10.65
  -5  -9 -11    3.27    1.82
  -5  -9 -12   62.60    7.79
   5   9  12   60.92    6.92
  -5  -9 -13   14.19    3.90
   5   9  13   11.30    2.76
  -5  -9 -14    6.45    2.98
  -5  -9 -15   43.55    7.32
  -5  -9 -16    6.30    3.03
  -5  -9 -17   23.93    6.16
  -5 -10  11   -3.76    2.64
  -5 -10  10   13.28    4.93
  -5 -10   9    8.62    3.93
  -5 -10   8   11.07    4.02
  -5 -10   7   20.88    5.23
  -5 -10   6    1.48    0.92
   5  10  -5   16.12    4.25
  -5 -10   5   10.58    3.45
   5  10  -4    4.38    2.20
  -5 -10   4    0.09    0.38
   5  10  -3    6.82    2.52
  -5 -10   3    7.32    2.49
   5  10  -2   19.44    4.42
  -5 -10   2   13.99    3.20
   5  10  -1    2.31    1.57
  -5 -10   1    2.69    1.30
   5  10   0    5.16    2.13
  -5 -10   0    2.69    1.22
  -5 -10  -1    6.03    1.88
   5  10   1    6.69    2.25
   5  10   2    1.98    1.36
   5  10   3    8.88    2.52
   5  10   4    1.60    0.89
   5  10   5    0.03    0.39
   5  10   6    9.51    2.69
   5  10   7    0.30    0.17
   5  10   8    5.94    2.16
   5  10   9    4.97    2.22
  -5 -10  -9    0.10    0.61
  -5 -10 -10    2.08    1.71
   5  10  11   17.57    4.15
  -5 -10 -11   14.78    3.88
   5  10  12    4.46    2.03
  -5 -10 -12    1.31    0.81
   5  10  13    1.56    0.76
  -5 -10 -13    3.22    1.74
  -5 -10 -14    2.41    2.03
  -5 -10 -15    2.37    1.24
  -5 -11   9   15.32    4.63
  -5 -11   8    1.45    1.47
  -5 -11   7    1.45    1.59
  -5 -11   6    6.05    2.57
  -5 -11   5    2.01    1.45
   5  11  -4   10.06    3.58
  -5 -11   4    8.85    3.05
   5  11  -3    4.85    2.66
  -5 -11   3    8.82    2.81
   5  11  -2    1.91    1.61
  -5 -11   2    0.11    0.42
   5  11  -1    5.48    2.30
  -5 -11   1    4.66    1.90
   5  11   0    4.50    1.88
  -5 -11   0    1.60    1.16
   5  11   1    6.98    2.50
   5  11   2   13.51    3.36
   5  11   3    1.17    1.39
   5  11   4    2.77    1.34
   5  11   5    7.76    2.50
   5  11   6    4.27    2.01
   5  11   7   11.92    3.10
   5  11   8    2.00    1.21
   5  11   9    2.84    1.60
   5  11  10    9.78    3.03
   5  11  11    4.79    1.96
  -5 -11 -11    7.92    2.81
   5  11  12    9.84    3.19
  -5 -11 -12   15.83    4.11
  -5 -11 -13    4.60    2.19
  -5 -12   8    9.10    3.96
  -5 -12   7   -0.51    0.52
  -5 -12   6    9.51    3.25
  -5 -12   5    3.09    1.92
   5  12  -4   10.70    3.62
  -5 -12   4    7.74    3.12
   5  12  -3    6.94    2.64
  -5 -12   3    5.17    2.33
   5  12  -2    0.36    0.92
  -5 -12   2    0.29    0.64
   5  12  -1   13.22    3.82
  -5 -12   1    7.84    2.47
  -5 -12   0    0.96    0.95
   5  12   0   -0.68    0.80
   5  12   1   13.32    3.59
   5  12   2    0.20    0.79
   5  12   3    5.54    2.53
   5  12   4    1.41    1.24
   5  12   5    5.07    2.42
   5  12   6    4.04    1.99
   5  12   7    1.80    1.49
   5  12   8    5.71    2.45
   5  12   9    1.62    1.23
   5  12  10    2.53    1.45
   5  12  10    6.45    3.26
   5  12  11    1.95    1.08
   5  12  11   -1.12    1.50
   5  12  12    2.67    1.55
   5  12  12    2.93    1.72
   5  13  -3   13.16    4.21
   5  13  -2    7.70    2.88
   5  13  -1   35.92    6.61
   5  13   0    3.75    2.44
   5  13   1   52.07    7.56
   5  13   2   10.63    3.33
   5  13   3   15.64    4.07
   5  13   4   37.05    6.13
   5  13   5   -0.56    0.87
   5  13   6   59.87    7.84
   5  13   7    5.11    2.33
   5  13   8   23.56    5.07
   5  13   9   17.30    4.28
   5  13   9   24.37    6.29
   5  13  10    1.37    1.62
   5  13  11   41.66    8.11
   6  -8  -4   -1.96    1.87
   6  -8  -3   -3.21    2.19
   6  -8  -2   -0.10    1.33
   6  -7  -9   50.00   11.40
   6  -7  -8   -1.45    1.87
   6  -7  -7   37.21    9.43
   6  -7  -6   20.45    6.90
   6  -7  -5   15.64    4.21
   6  -7  -5   16.30    6.01
   6  -7  -4   78.16    9.90
   6  -7  -4   81.62   13.57
   6  -7  -3    2.79    2.51
   6  -7  -3    6.90    4.20
   6  -7  -2   54.34   10.62
   6  -7  -1    5.40    3.02
   6  -7   0   34.30    8.43
   6  -7   1   52.82   10.25
   6  -6 -13    3.30    2.79
   6  -6 -12    6.93    4.17
   6  -6 -11    2.85    2.21
   6  -6 -10    2.70    3.23
   6  -6  -9   21.03    6.84
   6  -6  -8   16.64    6.08
   6  -6  -7    4.85    2.82
   6  -6  -6    1.81    1.04
   6  -6  -6    1.51    1.60
   6  -6  -5    0.20    0.52
   6  -6  -5    0.10    1.23
   6  -6  -4   11.28    4.83
   6  -6  -3    4.70    3.32
   6  -6  -2    1.16    1.68
   6  -6  -1    1.53    1.61
   6  -6   0    5.88    3.25
   6  -6   1    0.86    1.43
   6  -6   2   -3.24    2.33
   6  -6   3    3.54    2.75
   6  -6   4   -1.82    1.74
   6  -6   5   11.78    5.21
   6  -6   5   10.22    3.91
   6  -6   6    3.38    2.79
   6  -6   6   -1.79    2.38
   6  -6   7    0.14    2.40
   6  -6   7    1.00    0.55
   6  -6   8    7.20    4.17
   6  -6   9    5.75    4.14
   6  -6  10   14.90    6.05
   6  -5 -14   12.51    5.54
   6  -5 -13   11.27    5.54
   6  -5 -12    8.23    4.33
   6  -5 -11   10.98    4.69
   6  -5 -10    1.58    2.59
   6  -5  -9   14.83    5.23
   6  -5  -8    1.59    1.03
   6  -5  -7    9.73    4.49
   6  -5  -7   11.76    2.80
   6  -5  -6    0.59    1.17
   6  -5  -6   -0.41    0.86
   6  -5  -5    1.42    2.61
   6  -5  -4    5.72    3.10
   6  -5  -3    0.48    1.47
   6  -5  -2    8.80    3.75
   6  -5  -1    0.04    1.35
   6  -5   0   -1.15    1.96
   6  -5   1    1.85    1.38
   6  -5   2    0.32    0.58
   6  -5   3    4.07    2.58
   6  -5   3    6.70    3.44
   6  -5   4    0.42    0.66
   6  -5   4    0.69    0.53
   6  -5   5    0.37    0.86
   6  -5   5   -1.18    0.59
   6  -5   6    3.69    2.12
   6  -5   6    5.44    2.59
   6  -5   7   -0.73    1.09
   6  -5   7    1.28    2.00
   6  -5   8    1.77    1.79
   6  -5   8    5.53    2.61
   6  -5   9   -0.28    2.10
   6  -5   9   -0.98    1.31
   6  -5  10   -0.20    1.97
   6  -5  11    5.06    2.24
   6  -5  12    1.03    2.03
   6  -4 -15   15.23    5.88
   6  -4 -14    2.81    2.43
   6  -4 -13    7.91    3.62
   6  -4 -13    8.09    2.78
   6  -4 -12    0.57    0.89
   6  -4 -12    0.17    0.37
   6  -4 -11   13.12    4.97
   6  -4 -11    7.93    2.44
   6  -4 -10   38.36    8.36
   6  -4 -10   31.19    4.45
   6  -4  -9    5.27    2.92
   6  -4  -9    6.35    1.87
   6  -4  -8   16.07    4.84
   6  -4  -8   15.11    2.64
   6  -4  -7   -2.26    2.94
   6  -4  -7    0.02    0.45
   6  -4  -7    0.92    0.64
   6  -4  -6    8.56    3.49
   6  -4  -6    9.05    2.40
   6  -4  -6    9.20    1.78
   6  -4  -5   36.17    7.44
   6  -4  -4    0.96    0.53
   6  -4  -3   10.67    3.68
   6  -4  -2    7.84    3.45
   6  -4  -1    5.22    2.32
   6  -4   0    6.45    2.94
   6  -4   1   -0.17    1.31
   6  -4   2   -0.29    0.96
   6  -4   3   24.14    5.40
   6  -4   4   14.44    4.40
   6  -4   5    0.25    0.56
   6  -4   6    0.20    0.32
   6  -4   7    3.31    2.41
   6  -4   7    6.37    3.07
   6  -4   8   12.44    4.75
   6  -4   8   17.66    4.87
   6  -4   9   19.30    6.42
   6  -4   9   19.77    5.27
   6  -4  10   -1.05    2.67
   6  -4  10    4.50    2.82
   6  -4  11   -0.96    3.58
   6  -4  12    6.47    3.36
   6  -4  13   -0.17    1.76
   6  -3 -17    4.89    2.70
   6  -3 -16   18.19    5.91
   6  -3 -16   11.94    4.07
   6  -3 -15   28.72    7.51
   6  -3 -15   19.48    5.13
   6  -3 -14   -0.79    0.53
   6  -3 -14   -0.09    0.96
   6  -3 -13   20.60    6.12
   6  -3 -13   17.78    4.43
   6  -3 -12   14.18    4.99
   6  -3 -12   12.76    3.58
   6  -3 -11   52.53    6.55
   6  -3 -11   67.98   10.84
   6  -3 -10   65.91    6.83
   6  -3 -10   65.63   10.44
   6  -3  -9   14.16    4.57
   6  -3  -9    9.02    2.27
   6  -3  -8  112.12    5.97
   6  -3  -8   96.89    6.85
   6  -3  -8  110.78   13.03
   6  -3  -7   21.89    5.72
   6  -3  -7   13.21    2.31
   6  -3  -7   16.12    2.62
   6  -3  -6  169.52    7.44
   6  -3  -6  197.67   16.73
   6  -3  -5  131.64    5.83
   6  -3  -5  121.29    7.20
   6  -3  -5  145.05   14.10
   6  -3  -4   65.23    5.13
   6  -3  -4   80.65   10.33
   6  -3  -3  194.12    8.90
   6  -3  -3  249.29   17.83
   6  -3  -2   -0.50    0.26
   6  -3  -2    1.14    0.64
   6  -3  -1  314.16   11.64
   6  -3  -1  384.48   21.54
   6  -3   0   86.53    6.29
   6  -3   0   88.56   10.31
   6  -3   1  140.67   12.87
   6  -3   2  202.43   15.29
   6  -3   3   15.04    4.15
   6  -3   4  281.91   17.96
   6  -3   5   20.47    4.81
   6  -3   6  102.23   10.91
   6  -3   7   65.49    8.67
   6  -3   8   32.59    6.36
   6  -3   9   97.47   13.28
   6  -3   9   93.88   10.65
   6  -3  10   -2.03    1.97
   6  -3  10   -0.11    0.47
   6  -3  11   29.42    7.96
   6  -3  12    8.71    4.64
   6  -3  13   12.76    5.11
   6  -3  14   16.28    6.04
   6  -2 -18   22.03    6.46
   6  -2 -17    2.17    1.34
   6  -2 -16   25.04    7.06
   6  -2 -16   11.90    4.18
   6  -2 -15    2.64    3.07
   6  -2 -15   -0.53    1.52
   6  -2 -14    0.84    0.49
  -6   2  14   -0.14    0.89
  -6   2  13   33.60    4.98
   6  -2 -13   39.33    7.03
   6  -2 -13   53.06    9.66
   6  -2 -12   12.08    4.30
   6  -2 -12   15.84    4.33
  -6   2  12   13.05    2.99
   6  -2 -11   36.77    6.01
   6  -2 -11   42.92    8.48
   6  -2 -10    3.77    1.98
   6  -2 -10    1.57    1.19
   6  -2  -9    9.26    3.70
   6  -2  -9    7.63    2.34
   6  -2  -8   39.40    2.67
   6  -2  -8   36.17    4.50
   6  -2  -8   48.39    8.38
   6  -2  -7   46.30    3.78
  -6   2   7   37.41    4.77
   6  -2  -7   44.81    4.54
   6  -2  -7   40.35    4.75
   6  -2  -7   55.65    8.66
   6  -2  -6   33.74    6.70
   6  -2  -6   29.87    3.23
  -6   2   6   26.46    3.46
   6  -2  -6   31.63    3.96
   6  -2  -5   21.45    5.11
   6  -2  -5   20.80    2.29
  -6   2   5   20.80    2.58
   6  -2  -5   21.43    3.08
   6  -2  -4    0.34    0.26
   6  -2  -4    0.71    0.88
  -6   2   4    0.30    0.13
   6  -2  -4   -0.15    0.26
   6  -2  -3   18.26    4.55
   6  -2  -3   15.30    2.48
   6  -2  -2   32.49    3.70
   6  -2  -2   33.07    5.92
   6  -2  -1    0.68    0.95
   6  -2  -1    0.80    0.45
   6  -2   0   17.77    4.24
   6  -2   0   20.36    3.03
   6  -2   1   28.29    5.34
   6  -2   2    5.16    2.27
   6  -2   3    2.08    1.74
   6  -2   4   14.96    3.80
   6  -2   5    4.95    0.80
   6  -2   5    4.68    2.26
   6  -2   6   89.09    3.84
  -6   2  -6   91.38    5.05
   6  -2   6   90.54    9.43
   6  -2   7    2.68    1.68
   6  -2   8    5.94    2.33
   6  -2   9   14.50    3.99
   6  -2  10    3.51    1.68
   6  -2  11   59.56   10.48
   6  -2  11   62.81    8.30
   6  -2  12    5.91    3.56
   6  -2  13    1.05    1.14
  -6   2 -13    5.29    2.13
   6  -2  14    2.28    3.28
   6  -2  15    0.65    2.18
   6  -1 -18    7.19    4.68
   6  -1 -17   23.34    6.44
   6  -1 -17   28.24    7.61
   6  -1 -16    1.99    2.13
  -6   1  16    1.77    1.41
   6  -1 -16   -0.92    2.25
  -6   1  15   65.03    8.37
   6  -1 -15   98.07   13.13
   6  -1 -15  100.04   13.67
   6  -1 -14    3.50    3.28
   6  -1 -14    2.91    3.10
  -6   1  14   -0.40    1.09
   6  -1 -13   13.86    5.12
   6  -1 -13    8.25    3.13
  -6   1  13   10.16    3.01
   6  -1 -12   18.99    5.39
   6  -1 -12   11.27    3.74
  -6   1  12   13.84    3.28
   6  -1 -11    2.16    1.75
   6  -1 -11    3.15    2.79
  -6   1  11    1.29    0.88
  -6   1  10   86.64    7.47
   6  -1 -10   97.50   10.01
   6  -1 -10   98.75   12.48
   6  -1  -9    5.70    2.97
   6  -1  -9    3.27    1.70
  -6   1   9    3.52    1.56
   6  -1  -8    3.47    2.44
  -6   1   8    3.68    1.75
   6  -1  -8    2.63    1.42
   6  -1  -7    2.00    1.92
   6  -1  -7    0.78    0.35
  -6   1   7    1.32    0.68
   6  -1  -7    1.30    1.05
   6  -1  -7   -1.79    1.01
   6  -1  -6    1.42    1.26
   6  -1  -6    0.72    0.14
  -6   1   6    0.97    0.43
   6  -1  -6    1.52    0.91
  -6   1   5   46.36    4.32
   6  -1  -5   50.00    4.88
   6  -1  -5   48.94    3.98
   6  -1  -5   59.32    8.32
   6  -1  -4   22.03    5.07
  -6   1   4   19.66    2.50
   6  -1  -4   20.05    2.97
   6  -1  -4   18.85    1.97
   6  -1  -3   11.38    3.38
   6  -1  -3   10.43    1.10
  -6   1   3    9.27    1.51
   6  -1  -3   10.38    2.15
   6  -1  -2   10.10    3.32
   6  -1  -2    8.58    1.89
   6  -1  -1    1.98    4.16
   6  -1  -1    0.82    0.53
   6  -1   0   12.81    3.17
   6  -1   0   13.71    2.48
   6  -1   1   11.23    3.26
   6  -1   2   20.30    4.24
   6  -1   2   17.99    1.75
   6  -1   3    4.38    1.66
   6  -1   3    5.66    0.93
   6  -1   4    3.04    1.86
   6  -1   4    1.59    0.55
   6  -1   5   20.16    2.04
   6  -1   5   21.85    4.39
   6  -1   6    1.53    1.00
  -6   1  -6    1.59    0.58
  -6   1  -7    2.52    1.06
   6  -1   7    1.84    0.91
  -6   1  -8    1.24    0.49
   6  -1   8    0.47    1.10
  -6   1  -9    4.16    1.70
   6  -1   9    3.99    1.60
  -6   1 -10   35.33    5.71
   6  -1  10   33.93    5.58
  -6   1 -11    3.58    2.31
   6  -1  11   -0.61    1.12
   6  -1  12    9.71    2.97
  -6   1 -12    5.76    2.80
  -6   1 -12    6.78    2.39
   6  -1  13    0.93    2.04
  -6   1 -13    2.55    2.22
  -6   1 -13    2.78    1.47
   6  -1  14    8.70    4.31
  -6   1 -14   13.04    3.34
   6  -1  15   16.74    6.10
   6  -1  16   -0.57    1.68
  -6   0  18    1.38    1.30
   6   0 -17    1.04    1.74
  -6   0  17    3.39    2.54
   6   0 -16    4.69    2.70
  -6   0  16    1.52    1.21
   6   0 -15    8.46    3.64
  -6   0  15    3.62    1.70
   6   0 -14   23.16    6.32
  -6   0  14   11.10    3.64
   6   0 -13   19.18    5.59
  -6   0  13   12.39    3.52
   6   0 -12    7.90    3.37
  -6   0  12    7.70    2.65
   6   0 -11   22.74    6.15
  -6   0  11   17.06    3.69
   6   0 -10   11.77    4.56
  -6   0  10   11.47    2.91
  -6   0   9   38.29    4.95
   6   0  -9   45.74    8.25
  -6   0   8   39.05    4.84
   6   0  -8   45.17    7.93
   6   0  -7   27.47    5.96
  -6   0   7   29.04    3.98
  -6   0   7   27.20    4.54
   6   0  -6   18.59    4.67
   6   0  -6   22.94    3.61
  -6   0   6   24.39    3.80
   6   0  -5   20.02    4.94
  -6   0   5   19.86    3.08
   6   0  -5   19.99    3.19
  -6   0   4   55.37    4.68
   6   0  -4   62.44    5.36
   6   0  -4   67.67    8.65
   6   0  -3   10.24    3.22
   6   0  -3   13.90    2.49
  -6   0   3   12.91    2.06
   6   0  -3   12.93    1.68
   6   0  -2   25.60    5.06
   6   0  -2   21.34    3.04
  -6   0   2   18.91    2.22
   6   0  -2   17.89    1.21
   6   0  -1    1.47    1.27
   6   0  -1    0.25    0.47
   6   0   0   13.51    3.53
   6   0   0   16.39    2.68
   6   0   0   15.98    2.23
   6   0   1    4.00    1.97
   6   0   1    4.65    1.11
   6   0   1    6.05    2.21
   6   0   2    0.00    0.51
   6   0   2    0.03    0.26
   6   0   2    0.70    1.01
   6   0   3    1.95    1.45
   6   0   3    1.84    0.67
   6   0   3    3.71    1.76
   6   0   4   37.95    3.05
   6   0   4   38.75    5.16
   6   0   4   41.02    5.51
   6   0   5   34.44    4.59
   6   0   5   38.45    5.31
   6   0   6    8.51    2.66
  -6   0  -6    9.89    1.32
   6   0   6   12.12    2.58
   6   0   7    0.66    0.76
  -6   0  -7    0.30    0.31
  -6   0  -8   12.63    2.44
   6   0   8   14.43    3.20
  -6   0  -9   36.16    4.66
   6   0   9   37.19    5.32
  -6   0 -10   54.87    6.45
   6   0  10   61.29    6.87
  -6   0 -11   12.47    3.33
   6   0  11   13.81    3.43
  -6   0 -11   18.74    3.96
  -6   0 -12    2.83    1.96
  -6   0 -12    5.37    2.31
   6   0  12    3.71    1.78
  -6   0 -13   11.84    3.99
  -6   0 -13    7.28    2.59
   6   0  14    3.67    2.65
  -6   0 -14    5.29    2.72
  -6   0 -14    3.61    1.73
   6   0  15   44.81    9.55
  -6   0 -15   40.78    5.99
  -6   0 -15   51.80    9.01
  -6   0 -16    5.09    3.51
   6   0  16    1.13    1.60
  -6  -1  19    6.70    3.36
  -6  -1  18    0.96    1.29
   6   1 -17    0.66    0.87
  -6  -1  17   -2.78    2.12
   6   1 -16   29.41    7.37
  -6  -1  16   16.63    5.09
   6   1 -15   25.52    6.95
  -6  -1  15   16.06    4.74
  -6  -1  14   47.12    7.88
   6   1 -14   70.23   11.53
   6   1 -13    4.84    2.47
  -6  -1  13    1.81    1.79
   6   1 -12    6.74    3.84
  -6  -1  12    3.36    1.88
  -6  -1  11   66.69    7.95
   6   1 -11   65.87   10.52
  -6  -1  10  109.55    9.66
   6   1 -10   92.73   12.18
  -6  -1   9  187.24   11.93
   6   1  -9  173.38   16.11
   6   1  -8   23.57    5.81
  -6  -1   8   20.51    3.73
  -6  -1   7   97.47    7.75
   6   1  -7   97.34   11.56
  -6  -1   6  108.46    7.85
  -6  -1   6   99.71    8.08
   6   1  -6  107.88   11.69
  -6  -1   5  404.82   14.51
  -6  -1   5  362.53   14.02
   6   1  -5  425.79   22.50
  -6  -1   4  374.26   13.13
   6   1  -4  395.44   13.80
   6   1  -4  435.77   22.07
  -6  -1   3  135.27    7.28
   6   1  -3  145.27    8.25
   6   1  -2  272.65   11.09
  -6  -1   2  271.12    9.57
   6   1  -2  310.65   17.19
   6   1  -1   61.43    2.36
   6   1  -1   61.49    5.16
   6   1  -1   67.60    5.23
   6   1  -1   65.88    7.75
   6   1   0  719.00   17.73
   6   1   0  746.81   16.09
   6   1   0  767.35   25.40
   6   1   1  379.44   13.07
   6   1   1  402.70   11.25
   6   1   1  418.37   18.28
   6   1   2  313.37    9.59
   6   1   2  315.23   16.40
   6   1   2  322.11   15.52
   6   1   3  266.10    8.90
   6   1   3  266.36   14.29
   6   1   3  269.52   13.75
   6   1   4    3.54    1.71
  -6  -1  -4    0.09    1.39
   6   1   4    1.27    0.75
   6   1   4    0.44    0.59
  -6  -1  -5  571.20    8.77
   6   1   5  616.29   19.19
   6   1   5  638.17   20.17
  -6  -1  -5  593.09   24.74
  -6  -1  -6  134.12    5.23
   6   1   6  136.08    8.42
   6   1   6  141.60    9.46
  -6  -1  -6  137.74   12.04
  -6  -1  -7  287.22    9.28
   6   1   7  287.74   11.70
   6   1   7  318.20   14.19
  -6  -1  -7  262.53   16.77
  -6  -1  -8   58.21    4.86
   6   1   8   67.36    6.55
  -6  -1  -8   58.37    7.90
  -6  -1  -9    8.76    3.11
  -6  -1  -9   11.13    2.46
   6   1   9    8.22    2.33
  -6  -1 -10  266.96   13.50
  -6  -1 -10  264.33   15.10
   6   1  10  269.30   13.25
  -6  -1 -11    7.97    3.09
  -6  -1 -11    9.80    2.92
   6   1  11    6.43    2.01
  -6  -1 -11    8.08    2.73
  -6  -1 -12   99.51    9.33
  -6  -1 -12  114.07   10.52
   6   1  12   99.00    8.15
  -6  -1 -13   -0.42    0.34
  -6  -1 -13    0.74    1.05
  -6  -1 -14    8.24    3.47
  -6  -1 -14    5.63    2.29
  -6  -1 -15   55.07    7.32
  -6  -1 -15   51.31    8.46
   6   1  15   51.29    9.98
   6   1  16   -1.14    1.53
  -6  -1 -16    0.33    0.95
  -6  -1 -16   -1.10    1.34
   6   1  17   18.99    6.49
  -6  -1 -17   28.53    6.89
  -6  -1 -18    3.95    2.58
   6   2 -18    0.56    1.92
  -6  -2  18   -1.01    2.66
   6   2 -17   17.46    5.86
  -6  -2  17    4.34    2.29
   6   2 -16    0.02    1.96
  -6  -2  16   -5.26    2.97
   6   2 -15   17.79    5.79
  -6  -2  15   11.34    4.24
   6   2 -14    9.49    4.33
  -6  -2  14    6.30    3.00
   6   2 -13   32.78    7.84
  -6  -2  13   19.44    4.91
   6   2 -12   33.18    7.65
  -6  -2  12   25.61    5.43
   6   2 -11    7.40    3.60
  -6  -2  11    5.65    2.39
  -6  -2  10   51.37    7.01
   6   2 -10   44.53    8.57
   6   2  -9    0.13    1.20
  -6  -2   9    0.26    0.57
  -6  -2   8   76.77    7.67
   6   2  -8   63.26    9.71
   6   2  -7   24.80    5.70
  -6  -2   7   18.87    3.56
   6   2  -6   53.99    3.26
  -6  -2   6   54.22    5.83
   6   2  -6   51.64    8.30
   6   2  -5   25.21    5.25
  -6  -2   5   28.77    4.11
  -6  -2   5   27.47    4.04
   6   2  -4   10.65    3.27
  -6  -2   4    9.92    2.33
  -6  -2   4   11.12    2.49
  -6  -2   3   62.96    5.35
   6   2  -3   66.63    6.16
   6   2  -3   73.46    8.77
   6   2  -2    1.73    0.55
  -6  -2   2    0.11    0.21
   6   2  -2    0.86    0.90
   6   2  -2    0.56    0.40
   6   2  -1   35.78    3.96
   6   2  -1   35.33    3.90
  -6  -2   1   34.87    3.55
   6   2  -1   38.39    5.72
   6   2   0    2.04    0.55
   6   2   0    2.26    0.56
   6   2   0    3.73    1.20
   6   2   0    3.58    1.29
   6   2   1   24.53    3.27
   6   2   1   28.73    2.02
   6   2   1   24.06    2.91
   6   2   1   28.99    4.67
   6   2   2    1.53    1.20
   6   2   2    4.41    0.83
   6   2   2    3.65    1.16
   6   2   2    3.77    1.31
   6   2   3   14.24    3.15
   6   2   3   14.56    2.29
   6   2   4   -0.41    0.77
   6   2   4    0.26    0.25
  -6  -2  -5   69.20    3.78
   6   2   5   76.58    6.69
   6   2   6    7.29    2.14
  -6  -2  -6    4.70    1.10
   6   2   6    4.73    1.63
  -6  -2  -7   78.63    5.06
   6   2   7   77.46    5.81
   6   2   7   89.59    6.97
   6   2   8   10.57    2.28
   6   2   8   10.63    1.96
  -6  -2  -8    9.52    1.98
  -6  -2  -8   11.86    3.28
  -6  -2  -9   31.83    4.05
  -6  -2  -9   36.47    5.65
   6   2   9   40.21    4.67
  -6  -2 -10   64.79    6.38
  -6  -2 -10   58.67    7.29
   6   2  10   62.03    5.76
  -6  -2 -11    1.61    0.69
  -6  -2 -11    1.82    1.58
   6   2  11    0.19    0.79
  -6  -2 -12   59.38    7.45
  -6  -2 -12   77.25    8.28
   6   2  12   72.76    6.20
  -6  -2 -13    1.29    1.27
  -6  -2 -13   -0.50    0.91
  -6  -2 -14   25.09    5.02
  -6  -2 -14   19.13    4.83
  -6  -2 -15   24.00    5.12
  -6  -2 -15   22.94    5.51
   6   2  16    0.39    1.74
  -6  -2 -16    3.14    2.45
   6   2  17   17.89    6.12
  -6  -2 -17   22.31    5.98
   6   2  18    2.25    4.14
  -6  -2 -18    1.84    2.12
  -6  -2 -19   10.81    4.87
  -6  -2 -20   10.05    4.23
   6   3 -18   13.12    5.57
   6   3 -17    4.68    2.47
  -6  -3  17    0.19    2.24
   6   3 -16   34.69    8.57
  -6  -3  16   16.12    5.32
  -6  -3  15    3.98    2.00
  -6  -3  14  120.51   14.04
  -6  -3  13    2.85    1.45
  -6  -3  12    7.77    3.30
  -6  -3  11   15.43    4.25
  -6  -3  10   -0.62    0.92
  -6  -3   9  168.00   12.72
  -6  -3   8    2.13    1.45
  -6  -3   7    3.85    1.74
   6   3  -6    2.64    0.81
  -6  -3   6    3.16    1.65
   6   3  -5    1.39    0.66
  -6  -3   5    1.14    1.03
  -6  -3   4  138.41    8.96
  -6  -3   4  126.28    8.56
   6   3  -4  137.17    9.56
  -6  -3   3   25.43    3.65
  -6  -3   3   21.80    3.37
   6   3  -3   27.16    4.05
  -6  -3   2   18.77    2.93
   6   3  -2   20.81    3.25
   6   3  -1   23.54    4.68
  -6  -3   1   27.18    3.36
   6   3  -1   31.39    3.86
   6   3   0    8.29    1.40
   6   3   0    4.10    1.13
   6   3   0    8.24    1.84
   6   3   1   66.71    3.91
   6   3   1   72.37    5.44
   6   3   1   70.20    7.60
   6   3   2   15.56    3.41
   6   3   2   19.94    2.19
   6   3   2   18.97    2.77
   6   3   3   37.11    3.84
   6   3   3   35.96    3.08
   6   3   3   39.53    5.20
   6   3   4   24.77    3.20
   6   3   4   25.68    2.87
   6   3   4   24.61    3.80
  -6  -3  -5   18.47    2.26
   6   3   5   25.38    3.84
  -6  -3  -6   96.50    5.55
  -6  -3  -6   96.96    9.69
   6   3   6  103.94    7.47
   6   3   7    7.96    1.98
  -6  -3  -7   10.12    1.91
  -6  -3  -7    8.14    2.76
   6   3   8    9.95    2.15
  -6  -3  -8   12.12    2.28
   6   3   8    9.74    1.92
  -6  -3  -8    8.79    3.03
   6   3   9    0.21    0.34
   6   3   9    0.57    0.16
  -6  -3  -9   -0.61    0.79
  -6  -3  -9    0.22    0.90
   6   3  10    1.50    0.76
  -6  -3 -10    1.72    1.29
  -6  -3 -10    0.98    0.92
  -6  -3 -11  117.49    9.25
  -6  -3 -11  110.71   10.69
   6   3  11  119.95    7.06
  -6  -3 -12    5.15    1.90
  -6  -3 -12    4.93    2.03
   6   3  12    4.01    1.28
  -6  -3 -13    3.68    1.78
  -6  -3 -13    2.84    1.41
  -6  -3 -14    3.00    1.41
  -6  -3 -14    0.48    0.29
  -6  -3 -15    2.52    1.62
  -6  -3 -16   83.94   10.87
   6   3  17   11.16    4.93
  -6  -3 -17    7.67    3.59
   6   3  18    1.97    3.09
  -6  -3 -18    3.38    2.35
  -6  -3 -19   -1.47    1.22
  -6  -3 -20   12.24    4.95
  -6  -4  16   -2.32    2.14
  -6  -4  15   21.13    6.23
  -6  -4  14   -0.58    0.99
  -6  -4  13    5.91    3.23
  -6  -4  12   18.42    5.08
  -6  -4  11    2.24    1.60
  -6  -4  10   85.12   10.12
  -6  -4   9    5.22    2.15
  -6  -4   8   23.10    4.70
  -6  -4   7   31.73    5.22
  -6  -4   6    1.74    1.41
   6   4  -5  149.53    7.66
  -6  -4   5  152.14   10.29
   6   4  -4    3.76    1.20
   6   4  -4    1.55    0.64
  -6  -4   4    5.78    1.99
   6   4  -3   24.78    3.19
  -6  -4   3   28.15    4.09
   6   4  -3   28.18    4.17
  -6  -4   2   11.59    2.46
   6   4  -2   11.04    2.44
  -6  -4   2   12.01    2.49
  -6  -4   1    2.74    1.18
   6   4  -1    2.92    1.34
   6   4   0   61.56    4.44
   6   4   0   62.83    5.56
   6   4   1    0.63    0.47
   6   4   1   -0.21    0.66
   6   4   2    1.12    0.53
   6   4   2    0.75    0.48
  -6  -4  -2    0.07    0.37
   6   4   3    2.07    0.92
   6   4   3    2.79    1.19
   6   4   3    3.66    1.11
  -6  -4  -3    1.05    1.04
   6   4   4   21.31    3.65
   6   4   4   16.96    2.82
   6   4   4   19.93    2.68
  -6  -4  -4   17.92    4.31
   6   4   5    0.77    0.40
   6   4   5   -0.04    0.52
  -6  -4  -5    0.32    0.52
  -6  -4  -5    0.06    0.60
   6   4   6    3.78    1.39
   6   4   6    4.45    1.36
  -6  -4  -6    4.44    1.85
  -6  -4  -6    6.07    1.54
  -6  -4  -7   38.53    3.99
  -6  -4  -7   38.47    6.35
   6   4   7   44.63    4.58
   6   4   8    9.50    2.07
  -6  -4  -8    6.37    1.65
  -6  -4  -8    4.73    2.58
  -6  -4  -9   49.92    5.20
  -6  -4  -9   52.48    7.59
   6   4   9   54.83    4.54
   6   4  10    5.59    1.34
  -6  -4 -10    5.24    1.83
  -6  -4 -10    4.96    2.43
   6   4  10    5.59    1.01
  -6  -4 -11   23.72    5.26
  -6  -4 -11   19.89    3.76
   6   4  11   26.99    2.90
  -6  -4 -12   45.38    6.07
  -6  -4 -12   40.43    6.96
   6   4  12   37.81    3.11
  -6  -4 -13    0.68    0.33
  -6  -4 -13    0.01    0.57
  -6  -4 -14   44.24    6.86
  -6  -4 -15   -0.15    1.08
  -6  -4 -16   23.32    5.30
  -6  -4 -17    8.62    3.45
  -6  -4 -18    5.71    2.45
   6   4  18    6.33    3.62
  -6  -4 -19    8.38    3.42
   6   4  19    6.64    3.59
  -6  -4 -20    4.63    2.71
  -6  -5  16   -0.93    2.15
  -6  -5  15    9.39    4.40
  -6  -5  14    7.13    3.56
  -6  -5  13   49.01    9.28
  -6  -5  12    0.84    1.99
  -6  -5  11   16.22    5.06
  -6  -5  10   52.34    8.25
  -6  -5  10   56.05    6.00
  -6  -5   9   63.45    8.70
  -6  -5   9   70.29    7.04
  -6  -5   8  220.63   15.37
  -6  -5   8  223.78   13.20
  -6  -5   7    5.31    2.27
  -6  -5   7    6.97    2.49
  -6  -5   6   90.00    8.76
  -6  -5   6   94.61    9.14
  -6  -5   5  138.64   10.24
   6   5  -5  125.95   10.19
  -6  -5   5  108.71    9.89
   6   5  -4  296.85   12.12
  -6  -5   4  329.92   15.09
   6   5  -4  322.46   15.37
   6   5  -3  403.16   14.16
  -6  -5   3  429.66   16.63
   6   5  -3  441.25   17.31
   6   5  -2   53.18    5.17
  -6  -5   2   57.36    5.79
   6   5  -2   54.66    5.87
  -6  -5   2   51.05    7.26
  -6  -5   1  323.84   13.47
   6   5  -1  328.79   13.69
  -6  -5   1  297.20   17.58
   6   5  -1  298.00   11.38
   6   5   0  103.25    6.46
   6   5   0  109.23    7.63
  -6  -5   0   95.60   10.14
   6   5   1  578.28   14.99
   6   5   1  575.84   17.51
  -6  -5  -1  576.30   25.21
   6   5   2  465.29   13.44
   6   5   2  464.11   15.46
  -6  -5  -2  466.12   22.88
   6   5   3  210.92    9.19
   6   5   3  191.72    9.88
  -6  -5  -3  194.43   14.85
   6   5   4  253.24   11.45
   6   5   4  280.78   10.95
  -6  -5  -4  247.60   17.02
   6   5   5   25.42    3.72
   6   5   5   28.91    3.71
  -6  -5  -5   21.15    5.02
  -6  -5  -6  594.52   16.10
  -6  -5  -6  551.02   25.73
   6   5   6  587.16   17.56
   6   5   6  584.41   18.40
  -6  -5  -7  171.48    8.96
  -6  -5  -7  178.89   14.90
   6   5   7  179.72   10.28
   6   5   7  177.93    9.51
  -6  -5  -8  195.65   10.01
  -6  -5  -8  196.89   15.89
   6   5   8  201.03   11.59
   6   5   8  201.85    9.38
  -6  -5  -9   68.75    6.27
  -6  -5  -9   52.72    8.39
   6   5   9   64.44    4.94
   6   5  10   -0.10    0.28
  -6  -5 -10    0.74    0.59
  -6  -5 -11  231.84   13.06
  -6  -5 -11  227.74   18.10
   6   5  11  235.71    7.43
  -6  -5 -12   22.15    4.21
  -6  -5 -13   92.05    9.13
  -6  -5 -14   -0.18    1.31
  -6  -5 -15    2.10    1.32
  -6  -5 -16   51.23    8.26
  -6  -5 -17    3.38    2.76
   6   5  18   14.87    5.79
  -6  -5 -18   13.46    4.30
   6   5  19    4.89    2.94
  -6  -5 -19   -1.00    1.55
  -6  -5 -20   -0.90    1.83
  -6  -6  15   -3.55    2.71
  -6  -6  14    1.13    0.86
  -6  -6  13   24.95    6.77
  -6  -6  12   40.91    8.40
  -6  -6  11    3.72    2.44
  -6  -6  10    2.35    2.17
  -6  -6   9   21.85    3.93
  -6  -6   9   16.21    4.50
  -6  -6   8   11.13    2.96
  -6  -6   8    7.47    2.95
  -6  -6   7  128.84   11.55
  -6  -6   7  140.55   10.99
  -6  -6   6    0.94    0.35
  -6  -6   6    1.12    0.52
  -6  -6   5   34.37    5.35
   6   6  -5   29.05    5.01
  -6  -6   5   30.86    5.49
   6   6  -4    8.44    2.26
   6   6  -4    6.15    2.03
  -6  -6   4    4.57    1.76
  -6  -6   4    4.98    1.94
   6   6  -3    0.56    0.65
   6   6  -3    0.17    0.15
  -6  -6   3    1.13    1.13
  -6  -6   3    0.17    0.63
   6   6  -2  139.13    9.09
  -6  -6   2  139.23    9.39
   6   6  -2  138.49    9.78
  -6  -6   2  105.38   10.97
   6   6  -1   20.90    3.52
  -6  -6   1   19.37    3.42
   6   6  -1   22.47    3.71
  -6  -6   1   11.93    3.54
   6   6   0   17.23    2.89
   6   6   0   21.23    3.61
  -6  -6   0   14.60    4.06
   6   6   1   16.20    2.71
   6   6   1   16.55    3.12
  -6  -6  -1   11.10    3.24
   6   6   2    3.16    1.16
   6   6   2    4.12    1.44
  -6  -6  -2    2.23    2.00
   6   6   3   14.69    2.90
  -6  -6  -3   10.90    3.40
   6   6   4   78.09    6.24
   6   6   4   68.23    6.24
  -6  -6  -4   71.06    9.95
   6   6   5    0.14    0.35
  -6  -6  -5   -0.33    1.72
  -6  -6  -6  129.79   13.89
  -6  -6  -6  123.31    7.87
  -6  -6  -7    0.12    0.75
  -6  -6  -7   -0.17    0.41
  -6  -6  -8    7.79    2.15
   6   6   8    3.83    1.33
  -6  -6  -8    3.94    2.68
  -6  -6  -9   77.61    6.91
  -6  -6  -9   66.76   10.41
   6   6   9   75.38    5.53
  -6  -6 -10   32.87    4.70
   6   6  10   30.58    3.10
  -6  -6 -11  104.49    8.80
   6   6  11  109.85    4.68
  -6  -6 -12    3.59    1.68
  -6  -6 -13   12.39    3.37
  -6  -6 -14   26.45    5.17
  -6  -6 -15   20.06    4.69
  -6  -6 -16   42.63    7.37
  -6  -6 -17    2.36    2.14
   6   6  18    5.19    3.35
  -6  -6 -18    0.18    0.87
   6   6  19    3.45    1.87
  -6  -6 -19    5.32    2.73
   6   6  20   10.44    5.17
  -6  -7  14    2.46    1.84
  -6  -7  13   40.89    8.93
  -6  -7  12   16.29    5.42
  -6  -7  11    3.56    1.97
  -6  -7  10   34.62    7.30
  -6  -7   9    2.61    1.59
  -6  -7   8   57.83    8.49
  -6  -7   7   39.64    6.92
  -6  -7   6    2.90    1.48
  -6  -7   5   13.05    3.99
   6   7  -5    9.02    2.77
  -6  -7   5    9.60    2.81
   6   7  -4    2.95    1.62
  -6  -7   4    1.26    1.44
  -6  -7   4    1.93    1.24
  -6  -7   3   30.19    4.75
   6   7  -3   36.64    5.33
  -6  -7   3   28.71    6.06
   6   7  -2    2.21    1.49
  -6  -7   2    0.11    0.99
  -6  -7   2    0.68    0.88
   6   7  -1    4.04    1.78
  -6  -7   1    2.25    1.87
  -6  -7   1    3.29    1.64
  -6  -7   0    3.93    1.60
   6   7   0    2.57    1.20
  -6  -7   0    3.80    2.37
   6   7   1    0.42    0.50
  -6  -7  -1    1.54    1.54
   6   7   2   15.49    3.13
  -6  -7  -2   12.29    4.37
   6   7   3    2.41    0.94
  -6  -7  -3    1.37    0.93
   6   7   4   13.95    3.00
  -6  -7  -4   13.60    5.13
  -6  -7  -5    0.39    1.97
   6   7   5    1.58    1.08
   6   7   6    0.84    0.44
  -6  -7  -7   23.98    3.82
  -6  -7  -8    0.22    0.50
  -6  -7  -9    2.91    1.47
  -6  -7 -10    4.18    1.69
   6   7  10    2.27    1.00
   6   7  11    1.07    0.66
  -6  -7 -11    1.23    0.40
  -6  -7 -12   47.76    6.40
   6   7  12   57.11    4.67
  -6  -7 -13    2.08    1.62
  -6  -7 -14    6.14    2.47
  -6  -7 -15    1.91    1.61
  -6  -7 -16    7.20    3.06
  -6  -7 -17   41.58    7.51
   6   7  18    4.04    3.42
  -6  -7 -18    1.94    0.44
   6   7  19   12.09    5.24
  -6  -7 -19    6.88    3.35
   6   7  20   -0.94    1.95
  -6  -8  12    4.06    2.85
  -6  -8  11    5.50    3.00
  -6  -8  10    7.80    3.34
  -6  -8   9   54.76    8.96
  -6  -8   8    6.44    2.36
  -6  -8   7    2.73    1.51
  -6  -8   6    8.46    3.01
   6   8  -5   13.40    3.68
  -6  -8   5   13.93    3.58
  -6  -8   4  101.04    9.49
   6   8  -4  104.71    9.99
   6   8  -3    1.43    1.48
  -6  -8   3    1.48    0.95
   6   8  -2    0.63    0.53
  -6  -8   2    2.16    1.08
   6   8  -1    2.34    1.46
  -6  -8   1    5.50    1.96
  -6  -8   0   20.82    3.65
   6   8   0   21.77    4.01
   6   8   1   58.87    6.53
   6   8   2    0.71    0.80
   6   8   3    7.07    2.26
   6   8   4    3.12    1.45
   6   8   5   44.04    5.59
   6   8   6    5.99    2.01
   6   8   7    0.44    0.93
  -6  -8  -8   46.71    5.79
  -6  -8  -9    5.31    2.10
  -6  -8 -10   61.24    6.95
  -6  -8 -11    0.57    0.75
   6   8  11    0.60    0.56
  -6  -8 -12    4.15    1.81
  -6  -8 -13   33.36    5.67
  -6  -8 -14    0.92    1.55
  -6  -8 -15   38.52    6.74
  -6  -8 -16    5.03    2.75
  -6  -8 -17    6.35    2.88
  -6  -8 -18    7.88    3.06
   6   8  18   12.84    5.08
  -6  -9  11   15.07    6.27
  -6  -9  10   20.45    5.76
  -6  -9   9   13.59    4.47
  -6  -9   8   16.11    4.96
  -6  -9   7   65.57    9.23
  -6  -9   6    5.36    2.61
  -6  -9   5  101.82   10.34
   6   9  -5   99.24   10.36
  -6  -9   4   53.91    7.20
   6   9  -4   58.12    7.76
  -6  -9   3   84.28    8.50
   6   9  -3   89.20    9.30
  -6  -9   2  161.02   11.27
   6   9  -2  163.11   12.27
   6   9  -1    1.13    1.19
  -6  -9   1    0.95    0.99
  -6  -9   0  242.55   12.87
   6   9   0  237.27   14.04
   6   9   1   47.82    6.13
   6   9   2  172.78   11.63
   6   9   3  167.17   11.33
   6   9   4   13.28    2.96
   6   9   5  204.59   12.57
   6   9   6   15.17    3.32
   6   9   7  154.26   11.06
   6   9   8   55.74    6.72
  -6  -9  -9   24.48    4.45
  -6  -9 -10   71.09    7.83
  -6  -9 -11    1.38    1.44
  -6  -9 -12   64.34    7.91
  -6  -9 -13   11.05    3.36
  -6  -9 -14   11.69    3.67
  -6  -9 -15    6.03    2.93
  -6  -9 -16    0.77    1.54
  -6  -9 -17   10.20    3.68
  -6 -10  10    2.35    1.90
  -6 -10   9    3.41    2.70
  -6 -10   8    6.14    3.14
  -6 -10   7    4.46    2.37
  -6 -10   6   42.15    7.19
   6  10  -5    0.14    1.12
  -6 -10   5   -0.77    1.09
   6  10  -4    8.93    3.31
  -6 -10   4    6.90    2.64
   6  10  -3    7.99    3.00
  -6 -10   3    5.65    2.02
   6  10  -2    1.32    1.01
  -6 -10   2   -0.15    0.45
  -6 -10   1   45.79    5.93
   6  10  -1   43.60    6.51
   6  10   0   12.93    3.50
  -6 -10   0    9.72    2.68
   6  10   1    5.80    2.13
   6  10   2    2.27    1.24
   6  10   3    4.04    1.81
   6  10   4   11.23    3.08
   6  10   5   42.85    5.99
   6  10   6    2.25    1.44
   6  10   7   37.53    5.72
   6  10   8    1.32    1.45
   6  10   9    0.06    0.64
  -6 -10 -10   39.50    6.16
  -6 -10 -11    7.56    2.74
  -6 -10 -12   46.46    7.00
   6  10  12   44.07    6.32
  -6 -10 -13    2.30    1.76
  -6 -10 -14    3.31    2.25
  -6 -10 -15   25.85    5.80
  -6 -11   8   -0.13    0.75
  -6 -11   7    9.46    3.75
  -6 -11   6    6.95    2.84
   6  11  -5   -0.04    0.74
  -6 -11   5    0.35    1.18
   6  11  -4   18.78    4.68
  -6 -11   4   17.23    4.34
   6  11  -3    2.83    2.19
  -6 -11   3    3.99    1.70
   6  11  -2    1.28    1.06
  -6 -11   2    1.00    0.54
   6  11  -1    2.36    1.83
  -6 -11   1    1.27    1.32
  -6 -11   0    2.33    1.50
   6  11   0    1.52    0.79
   6  11   1    2.35    1.25
   6  11   2    2.92    1.88
   6  11   3    2.43    1.53
   6  11   4    0.60    1.28
   6  11   5    0.88    1.07
   6  11   6    3.51    1.41
   6  11   7    3.08    1.48
   6  11   8    1.09    0.74
   6  11   9    2.00    1.44
   6  11  10    1.14    0.99
   6  11  11    2.24    0.93
  -6 -11 -12    6.39    2.70
  -6 -11 -13    3.74    2.05
  -6 -12   7    3.86    2.59
  -6 -12   6   -0.46    1.33
  -6 -12   5    3.18    2.14
   6  12  -4    7.37    3.04
  -6 -12   4    5.73    2.40
   6  12  -3    6.85    2.72
  -6 -12   3   10.37    3.48
   6  12  -2    3.15    1.27
  -6 -12   2    3.57    1.86
   6  12  -1    1.83    1.38
  -6 -12   1    0.99    1.73
   6  12   0    3.13    2.01
   6  12   1    5.60    2.32
   6  12   2    2.76    1.14
   6  12   3    0.71    1.23
   6  12   4    8.02    2.72
   6  12   5    0.45    0.87
   6  12   6   13.87    3.87
   6  12   7   -0.97    1.07
   6  12   8   -0.51    0.36
   6  12   9   14.52    3.80
   6  12  10    0.53    1.02
   6  12  11   16.34    4.44
   6  12  11   17.71    4.80
   6  13  -2    8.56    3.32
   6  13  -1   27.29    5.97
   6  13   0    1.51    0.98
   6  13   1   60.13    8.42
   6  13   2   11.36    3.59
   6  13   3   15.96    4.09
   6  13   4   38.74    6.53
   6  13   5    1.56    1.79
   6  13   6   62.81    8.34
   6  13   7    3.87    1.99
   6  13   8   16.30    4.34
   6  13  11   24.41    6.17
   7  -7  -3    1.15    0.79
   7  -6  -6   25.39    7.87
   7  -6  -5    0.45    1.62
   7  -6  -4   31.19    8.42
   7  -6  -3    4.27    2.93
   7  -6  -2   25.45    7.00
   7  -6  -1   18.99    6.04
   7  -6   0    5.96    2.94
   7  -5 -12   12.88    5.46
   7  -5 -11    6.14    3.93
   7  -5 -10    3.82    3.62
   7  -5  -9   27.62    7.91
   7  -5  -8    4.99    3.68
   7  -5  -7   22.90    6.81
   7  -5  -6   10.75    4.92
   7  -5  -5    2.12    1.83
   7  -5  -4   25.45    6.99
   7  -5  -3    2.33    1.96
   7  -5  -2   25.59    6.76
   7  -5  -1    1.40    1.31
   7  -5   0    5.41    3.14
   7  -5   1   24.48    6.20
   7  -5   2    4.32    2.47
   7  -5   3    4.22    1.95
   7  -5   4    2.46    1.82
   7  -5   4    2.53    2.58
   7  -5   5    1.93    2.00
   7  -5   5    2.97    1.61
   7  -5   6   13.39    5.30
   7  -5   6   14.97    4.88
   7  -5   7    3.23    2.00
   7  -5   7    0.89    1.36
   7  -5   8   -1.64    2.02
   7  -5   8    2.67    1.91
   7  -5   9   -3.55    4.11
   7  -5  10    3.46    1.66
   7  -4 -14   -3.24    3.66
   7  -4 -13    2.58    1.29
   7  -4 -12   -1.69    2.97
   7  -4 -11    7.90    3.48
   7  -4 -10   -1.57    2.42
   7  -4  -9    4.36    2.92
   7  -4  -8    1.83    2.38
   7  -4  -7    0.42    0.83
   7  -4  -6   13.38    5.01
   7  -4  -5    3.59    3.14
   7  -4  -4    0.61    1.95
   7  -4  -3    0.25    1.50
   7  -4  -2    1.21    1.55
   7  -4  -1   20.00    5.61
   7  -4   0    4.15    2.70
   7  -4   1    4.22    2.94
   7  -4   2   -0.38    1.18
   7  -4   3    1.39    1.65
   7  -4   4   16.78    4.57
   7  -4   5    1.79    0.91
   7  -4   6    4.20    2.22
   7  -4   7    0.92    1.77
   7  -4   7    0.44    1.19
   7  -4   8    0.24    0.70
   7  -4   8    1.46    1.25
   7  -4   9    9.88    4.46
   7  -4   9   15.44    4.67
   7  -4  10    0.51    1.09
   7  -4  10    0.28    0.97
   7  -4  11    1.31    1.95
   7  -3 -15   11.02    4.86
   7  -3 -14   -0.30    2.38
   7  -3 -13   17.38    5.96
   7  -3 -12   -0.68    1.67
   7  -3 -11    8.86    4.36
   7  -3 -10    5.31    3.43
   7  -3  -9    0.11    1.10
   7  -3  -8   37.50    8.07
   7  -3  -7   -8.47    3.75
   7  -3  -6   10.02    4.03
   7  -3  -5   11.71    4.33
   7  -3  -4   -1.41    2.36
   7  -3  -3   48.82    8.34
   7  -3  -2    6.07    3.12
   7  -3  -1   12.50    4.35
   7  -3   0    5.44    2.87
   7  -3   1    3.85    2.44
   7  -3   2   26.47    6.01
   7  -3   3   17.32    4.69
   7  -3   4    6.46    3.22
   7  -3   5    0.36    0.70
   7  -3   6    1.52    1.35
   7  -3   7    9.20    3.31
   7  -3   8   15.90    4.54
   7  -3   9    1.90    1.99
   7  -3  10    1.99    2.14
   7  -3  10   -0.21    0.88
   7  -3  11    1.19    1.24
   7  -3  11   -0.25    1.08
   7  -3  12    1.57    1.92
   7  -2 -16    4.48    3.61
   7  -2 -15   21.51    6.74
   7  -2 -14    5.41    3.66
   7  -2 -13    0.77    1.19
   7  -2 -12    9.52    4.22
   7  -2 -12    8.98    3.18
   7  -2 -11    1.31    2.18
   7  -2 -11    2.09    1.12
   7  -2 -10   56.33    6.40
   7  -2 -10   55.31    9.80
   7  -2  -9    7.42    3.64
   7  -2  -9    5.55    1.79
   7  -2  -8    8.84    3.91
   7  -2  -8    6.29    1.86
   7  -2  -7   29.09    6.82
   7  -2  -7   26.13    3.13
   7  -2  -6   23.72    6.13
   7  -2  -6   19.19    2.34
   7  -2  -5   80.45    3.92
   7  -2  -5   91.87   11.67
   7  -2  -4   14.15    4.35
   7  -2  -3   27.25    6.09
   7  -2  -2   24.21    5.50
   7  -2  -1   56.91    8.43
   7  -2   0  106.85   11.38
   7  -2   1   52.82    7.84
   7  -2   2   27.18    5.73
   7  -2   3   12.53    3.78
   7  -2   4   87.25   10.00
   7  -2   5   53.85    7.74
   7  -2   6   58.81    8.12
   7  -2   7   16.34    4.26
   7  -2   8   -0.51    1.07
   7  -2   9   44.08    7.21
   7  -2  10   15.71    4.33
   7  -2  11   35.89    6.46
   7  -2  12    5.30    3.73
   7  -2  12    3.58    1.81
   7  -2  13   -0.93    1.43
   7  -1 -16    3.18    2.68
   7  -1 -16   -0.49    2.33
   7  -1 -15   37.38    9.08
   7  -1 -15   32.48    7.32
   7  -1 -14   10.01    4.68
   7  -1 -14    6.12    3.11
  -7   1  14    6.52    2.62
   7  -1 -13   22.80    6.74
   7  -1 -13   17.08    4.70
  -7   1  13   13.13    3.39
   7  -1 -12   28.01    5.63
   7  -1 -12   18.17    5.93
  -7   1  12   21.37    4.19
   7  -1 -11    8.85    4.03
   7  -1 -11    5.62    2.31
   7  -1 -10   46.54    9.11
   7  -1 -10   46.78    6.53
   7  -1  -9   12.60    5.24
   7  -1  -9    7.62    2.32
   7  -1  -8   42.50    5.18
   7  -1  -8   55.59    9.56
   7  -1  -7   17.95    5.57
   7  -1  -7   18.75    3.01
   7  -1  -6   18.81    5.21
   7  -1  -6   18.54    2.57
   7  -1  -5   43.14    3.22
  -7   1   5   39.23    3.92
   7  -1  -5   41.97    7.60
   7  -1  -4    4.41    2.60
   7  -1  -4    2.46    0.57
  -7   1   4    2.15    0.84
   7  -1  -3   51.58    8.00
   7  -1  -2   13.49    4.26
   7  -1  -1   23.32    5.21
   7  -1   0   26.76    5.43
   7  -1   1    1.99    1.59
   7  -1   2   38.50    6.43
   7  -1   3    3.95    1.71
   7  -1   4   19.22    4.40
   7  -1   4   17.84    1.75
   7  -1   5   16.53    4.12
   7  -1   5   12.17    1.54
   7  -1   6    0.28    0.40
   7  -1   6    0.89    0.42
   7  -1   7   13.80    1.99
   7  -1   7   15.68    3.99
   7  -1   8    1.85    1.30
   7  -1   9   10.77    3.34
   7  -1  10    2.11    1.26
   7  -1  11    1.14    1.04
   7  -1  12    3.83    2.17
   7  -1  13    0.41    1.56
  -7   1 -13    0.87    0.80
   7  -1  14    6.75    4.50
   7   0 -17    1.35    2.53
   7   0 -16   13.56    5.22
  -7   0  16    6.13    2.78
   7   0 -15   18.03    6.02
  -7   0  15    8.83    3.33
   7   0 -14    6.48    3.88
  -7   0  14    1.62    1.66
   7   0 -13    4.49    3.24
  -7   0  13    2.21    1.49
   7   0 -12   -0.34    1.91
  -7   0  12   -0.06    0.79
   7   0 -11   11.69    4.64
  -7   0  11   11.73    3.18
   7   0 -10   50.07    9.38
  -7   0  10   55.23    6.61
   7   0  -9    2.94    2.40
   7   0  -8    8.63    4.07
   7   0  -7    2.11    2.50
   7   0  -6    9.43    4.08
   7   0  -6   11.13    2.60
  -7   0   6    8.76    2.19
  -7   0   5   80.69    6.20
   7   0  -5   95.24    6.14
   7   0  -5   95.92   11.47
   7   0  -4    2.25    1.54
  -7   0   4    1.83    0.77
   7   0  -4    2.63    0.85
   7   0  -3   29.29    6.08
  -7   0   3   24.96    2.93
   7   0  -3   23.70    1.54
   7   0  -2    4.08    2.74
   7   0  -1    7.93    3.19
   7   0   0  161.25   12.84
   7   0   1    3.07    2.24
   7   0   1    0.30    0.38
   7   0   2   27.73    2.83
   7   0   2   28.25    5.11
   7   0   3    2.54    1.67
   7   0   3    2.32    0.86
   7   0   4    1.62    1.29
   7   0   4    2.28    0.78
   7   0   5  141.39    6.55
   7   0   5  152.78   11.64
   7   0   6    0.35    0.70
   7   0   6    0.53    0.32
  -7   0  -7   29.43    1.77
   7   0   7   35.14    5.59
   7   0   8    2.61    1.95
  -7   0  -8    0.95    0.62
  -7   0  -9    0.56    0.67
   7   0   9    1.23    1.23
   7   0  10  104.03    9.71
   7   0  11    2.61    1.53
  -7   0 -12   29.99    5.50
   7   0  12   23.48    4.63
  -7   0 -13   -0.04    0.54
   7   0  13   -2.05    1.35
  -7   0 -14    2.25    1.41
   7   0  15   43.52    9.65
   7   1 -17    3.92    2.46
  -7  -1  17    3.09    1.13
   7   1 -16    9.38    4.62
  -7  -1  16    4.01    2.26
   7   1 -15   13.89    6.06
  -7  -1  15    6.42    2.96
   7   1 -14   29.33    7.60
  -7  -1  14   17.18    4.72
   7   1 -13    2.33    2.34
  -7  -1  13    1.51    0.61
   7   1 -12    8.59    4.51
  -7  -1  12    6.92    2.70
   7   1 -11    0.78    1.34
  -7  -1  11    5.17    2.33
   7   1 -10   12.32    4.29
  -7  -1  10   16.34    3.79
   7   1  -9   40.17    8.26
  -7  -1   9   43.88    5.92
   7   1  -8    8.86    3.89
  -7  -1   8    6.28    1.99
   7   1  -7    8.20    3.55
   7   1  -7    7.81    0.95
   7   1  -6    5.03    2.59
   7   1  -5   41.63    7.44
  -7  -1   5   35.57    4.41
   7   1  -4   37.88    6.90
  -7  -1   4   32.65    3.96
   7   1  -3    7.41    2.67
  -7  -1   3    8.41    1.88
   7   1  -2   13.38    1.20
   7   1  -2   20.30    4.86
   7   1  -1    1.36    1.22
   7   1  -1    0.39    0.65
   7   1   0   38.03    4.03
   7   1   0   39.29    6.35
   7   1   1   27.56    5.14
   7   1   1   26.15    3.13
   7   1   2   16.65    3.95
   7   1   2   14.11    2.24
   7   1   3    7.58    2.70
   7   1   3    5.38    1.37
   7   1   4    0.27    1.03
   7   1   4    0.29    0.45
   7   1   4    0.76    0.22
   7   1   5   28.22    3.23
   7   1   5   32.26    4.84
   7   1   5   30.62    4.87
   7   1   6    4.76    1.80
   7   1   6    4.22    1.28
   7   1   6    5.10    1.74
   7   1   7    4.75    1.87
  -7  -1  -7    5.48    1.04
   7   1   7    4.76    1.68
   7   1   8    1.07    0.76
  -7  -1  -8    0.59    0.49
   7   1   9    2.67    1.66
  -7  -1  -9    0.89    0.76
  -7  -1 -10    6.19    1.90
   7   1  10    6.36    2.21
  -7  -1 -11    0.98    0.64
  -7  -1 -11    1.78    1.64
   7   1  11    1.39    0.31
  -7  -1 -12    0.23    0.38
   7   1  12    1.34    1.04
  -7  -1 -13    0.41    1.05
  -7  -1 -13    1.23    0.78
   7   1  13    1.73    1.28
  -7  -1 -14   -0.31    0.48
  -7  -1 -15    1.59    1.11
   7   1  16    0.02    0.84
   7   2 -17    1.05    0.72
  -7  -2  17   -0.83    1.21
   7   2 -16    9.09    5.00
  -7  -2  16    6.65    3.56
   7   2 -15    3.97    3.23
  -7  -2  15    1.22    1.92
   7   2 -14   42.55    9.51
  -7  -2  14   27.66    6.44
   7   2 -13    2.90    2.47
  -7  -2  13    0.67    0.14
   7   2 -12    1.21    2.37
  -7  -2  12    1.59    1.32
   7   2 -11   12.51    4.87
  -7  -2  11   13.25    3.69
   7   2 -10    4.04    2.94
  -7  -2  10    6.58    2.43
  -7  -2   9   82.24    8.57
   7   2  -9   67.86   11.01
   7   2  -8   10.16    4.12
  -7  -2   8    4.28    1.78
   7   2  -7    3.34    1.54
   7   2  -7    2.54    0.64
  -7  -2   7    2.73    1.41
   7   2  -6   25.08    6.06
   7   2  -6   27.58    2.55
  -7  -2   6   25.68    4.34
   7   2  -5   19.59    5.01
  -7  -2   4  124.30    8.25
   7   2  -4  143.33   13.90
   7   2  -3   24.48    5.48
  -7  -2   3   19.90    3.09
   7   2  -2    7.06    3.01
  -7  -2   2    9.46    2.03
   7   2  -2    8.71    2.18
   7   2  -1   22.97    1.93
   7   2  -1   24.29    5.02
   7   2  -1   23.83    3.37
   7   2   0   58.54    2.74
   7   2   0   59.68    5.24
   7   2   0   60.23    7.76
   7   2   1  178.20    8.73
   7   2   1  174.19    4.59
   7   2   1  187.35   13.27
   7   2   2   57.10    4.80
   7   2   2   60.25    7.18
   7   2   3   12.58    3.15
   7   2   3   11.62    2.15
   7   2   4   14.47    3.46
   7   2   4   10.66    1.98
   7   2   5   79.83    5.84
   7   2   5   82.69    7.93
   7   2   5   91.48    8.17
   7   2   6  118.76    8.82
   7   2   6  124.68    9.29
  -7  -2  -6  115.39    4.88
  -7  -2  -7   65.05    4.14
   7   2   7   64.10    6.01
   7   2   7   71.08    7.00
   7   2   8   11.53    2.78
  -7  -2  -8   10.30    1.89
   7   2   8   11.19    2.28
   7   2   9    3.36    1.54
  -7  -2  -9    0.53    0.39
   7   2   9    0.85    0.74
  -7  -2  -9    1.16    1.43
  -7  -2 -10   68.75    6.01
  -7  -2 -10   71.68    8.72
   7   2  10   78.70    7.26
  -7  -2 -11   52.10    5.75
  -7  -2 -11   58.29    7.85
   7   2  11   64.72    6.59
  -7  -2 -12   52.06    6.28
  -7  -2 -12   51.19    7.38
   7   2  12   53.73    5.95
  -7  -2 -13    2.35    1.44
  -7  -2 -13    5.21    2.49
   7   2  13    2.89    1.35
  -7  -2 -14   -1.14    1.44
  -7  -2 -14   -1.23    1.14
  -7  -2 -15   35.98    6.46
  -7  -2 -15   36.90    6.59
  -7  -2 -16   11.38    3.74
  -7  -2 -16   14.63    4.15
   7   3 -17    4.45    4.25
   7   3 -16   15.27    5.38
  -7  -3  16    6.24    3.14
   7   3 -15   15.00    6.06
  -7  -3  15    7.41    3.42
  -7  -3  14   51.10    9.04
   7   3 -14   70.56   12.66
   7   3 -13   19.52    6.83
  -7  -3  13    6.02    2.99
   7   3 -12   10.66    5.37
  -7  -3  12    4.09    2.37
   7   3 -11   27.52    7.51
  -7  -3  11   17.52    4.61
   7   3 -10    9.17    4.03
  -7  -3  10    7.61    2.96
  -7  -3   9  130.53   11.36
   7   3  -9  101.35   13.82
   7   3  -8    2.22    1.26
  -7  -3   8    3.39    1.60
   7   3  -7    6.69    2.87
  -7  -3   7   11.91    3.12
   7   3  -6   23.03    5.91
   7   3  -6   25.94    2.77
  -7  -3   6   26.97    4.58
   7   3  -5    0.01    1.72
   7   3  -5    2.17    0.87
  -7  -3   5    1.30    1.06
   7   3  -4  142.55   14.04
   7   3  -3    1.84    1.62
   7   3  -3   -0.53    0.46
   7   3  -2   23.53    5.25
  -7  -3   2   22.88    3.38
   7   3  -2   23.54    3.75
   7   3  -1   11.37    1.72
   7   3  -1    9.81    3.12
   7   3  -1   10.23    2.47
   7   3   0    0.23    0.14
   7   3   0    0.21    0.67
   7   3   0    0.25    0.61
   7   3   1  131.64    5.50
   7   3   1  133.11    7.99
   7   3   1  120.35   10.78
   7   3   2    8.49    2.73
   7   3   2    7.52    1.35
   7   3   2    8.62    2.00
   7   3   3   11.71    3.07
   7   3   3   15.06    2.62
   7   3   3   15.61    2.09
   7   3   4   -0.28    0.73
   7   3   4    1.86    0.84
   7   3   5    6.37    2.14
   7   3   5    3.77    1.34
   7   3   6   62.78    6.41
  -7  -3  -6   64.83    4.41
  -7  -3  -7   11.73    2.03
   7   3   7   17.37    3.33
   7   3   7   12.03    2.77
  -7  -3  -7   15.43    4.06
   7   3   8    9.17    2.31
  -7  -3  -8    9.58    1.95
   7   3   8   10.52    2.27
  -7  -3  -8    9.47    3.25
   7   3   9    0.88    0.94
  -7  -3  -9    0.78    0.62
   7   3   9    0.65    0.20
  -7  -3  -9    1.10    1.15
   7   3  10    2.89    1.34
  -7  -3 -10    0.95    0.76
  -7  -3 -10    0.60    0.74
  -7  -3 -11   27.04    4.16
  -7  -3 -11   23.68    5.17
   7   3  11   24.69    3.72
  -7  -3 -12    6.43    2.53
  -7  -3 -12   10.98    2.88
   7   3  12   11.36    2.50
  -7  -3 -13    1.25    1.08
  -7  -3 -13    2.19    1.52
  -7  -3 -14   -0.66    0.99
  -7  -3 -14    3.16    1.76
  -7  -3 -15   -0.80    1.52
  -7  -3 -15   -0.25    1.01
  -7  -3 -16    3.44    2.19
  -7  -3 -16    3.04    1.92
  -7  -3 -17    0.04    0.74
  -7  -3 -18   -2.06    2.88
   7   4 -17    4.07    3.04
  -7  -4  15    1.96    1.78
  -7  -4  14   12.32    4.71
  -7  -4  13    5.56    2.76
  -7  -4  12   -0.13    1.29
  -7  -4  11    7.43    3.09
  -7  -4  10    8.36    3.09
  -7  -4   9   63.38    8.34
  -7  -4   8   18.57    4.39
  -7  -4   7    2.11    1.02
   7   4  -6   34.69    3.69
  -7  -4   6   32.41    5.08
   7   4  -5    7.27    1.72
  -7  -4   5    6.47    2.16
   7   4  -4  147.74    7.93
  -7  -4   4  155.97   10.49
   7   4  -4  154.68   10.93
  -7  -4   3   39.23    5.10
   7   4  -3   39.28    5.26
   7   4  -2   31.76    4.54
   7   4  -1   47.10    4.07
   7   4  -1   48.59    5.39
   7   4   0    3.00    0.98
   7   4   0    4.19    1.63
   7   4   0    5.59    1.87
   7   4   1  269.52    9.17
   7   4   1  283.12   12.25
   7   4   1  278.84   16.92
   7   4   2   29.34    3.01
   7   4   2   30.91    4.07
   7   4   2   30.61    5.43
   7   4   3   43.77    4.72
   7   4   3   50.72    4.15
   7   4   3   52.02    6.76
   7   4   4   52.54    5.16
   7   4   4   63.01    4.88
  -7  -4  -4   66.53    8.91
   7   4   4   58.29    6.76
   7   4   5    0.37    0.51
   7   4   5    0.78    0.81
   7   4   5   -0.34    0.76
  -7  -4  -5    0.46    0.31
   7   4   6  200.54   10.59
  -7  -4  -6  244.44   16.93
   7   4   6  231.89   12.36
  -7  -4  -6  228.68    9.23
   7   4   7   15.01    2.98
  -7  -4  -7   11.71    3.74
  -7  -4  -7   12.93    2.21
  -7  -4  -8   57.03    5.06
  -7  -4  -8   58.20    8.28
   7   4   8   65.90    6.04
  -7  -4  -9   18.54    3.10
   7   4   9   20.79    3.00
  -7  -4  -9   19.87    4.90
   7   4   9   24.44    3.53
   7   4  10    4.03    1.45
  -7  -4 -10    2.91    1.25
  -7  -4 -10    3.21    2.14
  -7  -4 -11  141.31    9.72
  -7  -4 -11  155.87   13.93
   7   4  11  152.81    8.44
  -7  -4 -12   -0.05    2.18
  -7  -4 -12    0.11    0.71
   7   4  12    0.60    0.74
  -7  -4 -13   33.56    5.40
  -7  -4 -13   32.17    6.34
  -7  -4 -14    3.48    2.00
  -7  -4 -14    1.62    0.48
  -7  -4 -15    7.67    3.24
  -7  -4 -15    6.16    2.94
  -7  -4 -16   60.09    8.75
  -7  -4 -17    0.86    1.57
   7   4  18   16.25    5.94
  -7  -4 -18   13.82    4.50
  -7  -4 -19   -0.52    0.62
  -7  -5  15    8.11    3.72
  -7  -5  14    5.78    3.20
  -7  -5  13   22.71    6.06
  -7  -5  12   11.99    4.50
  -7  -5  11    1.77    1.41
  -7  -5  10   10.52    3.49
  -7  -5  10   12.20    3.11
  -7  -5   9   35.99    6.45
  -7  -5   9   35.70    5.74
  -7  -5   8   42.27    6.72
  -7  -5   8   45.50    6.65
  -7  -5   7   25.67    5.05
  -7  -5   6    1.29    1.23
   7   5  -5   13.21    2.56
   7   5  -5   13.49    3.45
  -7  -5   5   14.76    3.43
   7   5  -4   46.22    4.81
  -7  -5   4   48.39    6.07
   7   5  -4   41.99    5.81
   7   5  -3   41.63    4.64
  -7  -5   3   50.81    6.02
   7   5  -3   46.64    5.88
   7   5  -2   34.11    4.24
   7   5  -2   35.59    4.97
  -7  -5   2   40.18    6.92
   7   5  -1    0.25    0.19
   7   5  -1    1.00    0.71
  -7  -5   1    0.09    0.94
   7   5   0   17.10    2.64
   7   5   0   19.90    3.39
  -7  -5   0   20.94    5.06
   7   5   1   38.35    3.91
   7   5   1   40.86    4.90
  -7  -5  -1   36.14    6.66
   7   5   2   40.96    4.07
   7   5   2   38.29    4.70
  -7  -5  -2   42.54    7.35
   7   5   3   26.01    4.77
   7   5   3   24.06    3.16
   7   5   3   25.75    3.77
  -7  -5  -3   19.99    5.07
   7   5   4    3.53    1.22
   7   5   4    3.86    1.77
   7   5   4    6.21    1.76
  -7  -5  -4    2.23    1.76
   7   5   5   26.81    3.93
  -7  -5  -5   36.43    6.81
   7   5   5   27.60    3.66
   7   5   5   30.95    4.80
   7   5   6   13.26    3.12
   7   5   6   12.13    2.72
   7   5   6   19.01    3.25
  -7  -5  -6   12.61    4.18
  -7  -5  -7   27.50    3.59
   7   5   7   30.80    4.41
  -7  -5  -7   22.99    5.38
   7   5   7   28.21    4.14
   7   5   8    9.36    2.38
  -7  -5  -8   13.45    4.18
  -7  -5  -8    7.85    1.99
  -7  -5  -9    7.29    1.98
   7   5   9    7.16    1.96
  -7  -5  -9    4.86    2.49
  -7  -5 -10   20.72    3.59
  -7  -5 -10   15.14    4.45
   7   5  10   25.89    3.35
   7   5  11    2.75    1.03
  -7  -5 -11    4.59    1.73
  -7  -5 -11    3.42    2.30
  -7  -5 -12   11.18    2.91
  -7  -5 -12   11.61    3.73
   7   5  12   13.01    2.02
  -7  -5 -13    2.40    1.40
  -7  -5 -13    0.85    1.00
  -7  -5 -14    6.48    2.33
  -7  -5 -15    7.39    2.80
  -7  -5 -16   -0.61    1.58
  -7  -5 -17    0.90    0.27
  -7  -5 -18    0.16    0.27
  -7  -5 -19   -0.52    1.69
  -7  -6  14   -4.39    2.92
  -7  -6  13   10.89    4.60
  -7  -6  12    4.98    3.41
  -7  -6  11    2.23    1.81
  -7  -6  10   11.43    3.88
  -7  -6   9   20.09    5.10
  -7  -6   9   16.70    3.70
  -7  -6   8   22.96    5.13
  -7  -6   8   26.72    4.94
  -7  -6   7    3.53    1.96
  -7  -6   7    5.35    2.40
  -7  -6   6    9.83    2.92
  -7  -6   6   10.33    3.46
   7   6  -5    8.94    2.83
  -7  -6   5    5.12    2.05
  -7  -6   5    8.62    3.06
   7   6  -4   22.53    3.73
   7   6  -4   21.32    4.39
  -7  -6   4   17.16    3.87
  -7  -6   4   24.78    5.45
  -7  -6   3   36.84    5.32
   7   6  -3   43.28    5.84
  -7  -6   3   26.94    5.73
   7   6  -2    0.25    0.77
  -7  -6   2    0.25    0.51
   7   6  -1    9.07    2.40
  -7  -6   1    7.78    3.19
   7   6   0    4.35    1.64
  -7  -6   0    3.66    1.96
   7   6   1   42.05    4.46
   7   6   1   46.88    5.49
  -7  -6  -1   41.73    7.61
   7   6   2   39.09    4.32
   7   6   2   34.50    4.70
  -7  -6  -2   43.23    7.72
   7   6   3    0.23    0.40
   7   6   3    0.36    0.69
  -7  -6  -3    0.47    1.06
   7   6   4   20.04    3.23
   7   6   4   16.93    3.19
  -7  -6  -4   14.99    4.54
   7   6   5    0.11    0.34
  -7  -6  -5    1.06    1.23
   7   6   6   49.46    5.75
  -7  -6  -6   52.42    8.82
   7   6   6   53.08    6.30
  -7  -6  -7   39.10    7.68
   7   6   7   45.35    5.56
  -7  -6  -7   43.49    4.88
   7   6   8    5.61    1.74
  -7  -6  -8    5.42    2.42
  -7  -6  -8    6.18    1.73
  -7  -6  -9   20.40    5.74
   7   6   9   20.59    3.25
  -7  -6  -9   18.74    3.40
  -7  -6 -10    0.80    0.95
   7   6  10    0.82    0.51
  -7  -6 -11   58.75    6.57
  -7  -6 -11   66.38   10.58
   7   6  11   64.60    4.69
  -7  -6 -12   31.26    4.99
  -7  -6 -13   10.00    2.95
  -7  -6 -14   16.16    4.01
  -7  -6 -15    2.77    1.64
  -7  -6 -16   34.33    6.54
  -7  -6 -17   11.33    4.03
  -7  -6 -18    9.83    3.50
  -7  -6 -19    6.99    3.16
  -7  -7  13   26.28    7.15
  -7  -7  12    7.39    3.20
  -7  -7  11   -0.79    0.73
  -7  -7  10   12.29    4.21
  -7  -7   9   21.64    5.33
  -7  -7   8   56.10    8.45
  -7  -7   8   71.94    8.45
  -7  -7   7   11.21    3.48
  -7  -7   7    6.85    2.78
  -7  -7   6    0.67    0.99
  -7  -7   6   -0.14    1.13
  -7  -7   5   24.70    4.84
   7   7  -5   18.12    4.13
  -7  -7   5   24.02    5.52
   7   7  -4   19.12    4.27
  -7  -7   4   19.14    4.06
  -7  -7   4   22.74    5.47
  -7  -7   3   93.71    8.69
   7   7  -3   84.82    8.56
  -7  -7   3   75.24   10.06
   7   7  -2    4.52    2.15
  -7  -7   2    3.28    1.65
  -7  -7   2    1.49    1.39
   7   7  -1    4.99    1.71
  -7  -7   1    3.75    2.26
   7   7   0    8.89    2.66
  -7  -7   0    5.25    2.88
   7   7   1    4.51    1.78
  -7  -7  -1    5.96    3.36
   7   7   2   99.54    8.33
  -7  -7  -2  104.89   13.51
   7   7   3    9.68    2.50
  -7  -7  -3   11.58    4.46
   7   7   4    7.81    2.23
  -7  -7  -4    7.87    3.39
   7   7   5    0.03    0.52
  -7  -7  -5    0.23    1.17
   7   7   6   -0.16    0.54
  -7  -7  -6   -1.16    2.05
   7   7   7   47.24    5.92
  -7  -7  -7   52.38   10.01
  -7  -7  -8   28.98    7.23
   7   7   8   28.08    4.28
  -7  -7  -8   25.91    4.00
   7   7   9    7.46    2.09
  -7  -7  -9    6.46    3.42
  -7  -7  -9    8.26    2.39
   7   7  10    4.73    1.59
  -7  -7 -10    7.29    2.23
  -7  -7 -11    0.37    1.24
   7   7  11    0.31    0.24
  -7  -7 -12   22.73    4.40
  -7  -7 -13   28.45    5.15
  -7  -7 -14    1.54    1.36
  -7  -7 -15    4.45    2.07
  -7  -7 -16   -0.83    2.00
  -7  -7 -17    3.18    1.80
  -7  -7 -18    9.50    3.66
   7   7  19    0.92    1.96
  -7  -8  12    8.30    4.31
  -7  -8  11    3.28    2.77
  -7  -8  10   26.96    6.55
  -7  -8   9   -1.91    1.76
  -7  -8   8   13.98    4.50
  -7  -8   7   39.03    7.00
  -7  -8   6    0.85    0.12
  -7  -8   5   89.66    9.65
   7   8  -5   90.27    9.86
  -7  -8   4    2.28    2.43
   7   8  -4   -0.17    0.60
  -7  -8   4    1.90    1.26
  -7  -8   3   71.82    7.87
  -7  -8   3   76.06   11.13
   7   8  -3   81.01    8.81
  -7  -8   2   79.71    8.01
  -7  -8   2   82.58   11.91
   7   8  -2   79.56    8.53
  -7  -8   1    9.00    2.68
   7   8  -1    7.96    2.54
  -7  -8   1    7.40    3.94
  -7  -8   0  136.85   16.17
   7   8   0  172.72   11.88
   7   8   1   -0.69    0.69
  -7  -8  -1    0.68    0.84
   7   8   2  143.98   10.59
  -7  -8  -2  122.61   15.72
   7   8   3   81.27    7.93
  -7  -8  -3   77.29   12.90
  -7  -8  -4   25.36    7.33
   7   8   4   24.82    4.31
   7   8   5  134.14   10.19
   7   8   6    2.64    1.17
   7   8   7  115.52    9.60
   7   8   8   29.06    4.95
  -7  -8  -9   29.04    4.63
  -7  -8 -10   77.72    7.96
   7   8  10   79.07    6.52
  -7  -8 -11   12.81    3.25
  -7  -8 -12   69.53    8.08
  -7  -8 -13    2.72    1.47
  -7  -8 -14   14.63    3.84
  -7  -8 -15   15.38    4.36
  -7  -8 -16   13.44    4.38
  -7  -8 -17   26.05    6.02
  -7  -8 -18    2.05    2.11
  -7  -9  10    3.37    2.39
  -7  -9   9    5.60    2.83
  -7  -9   8   20.08    5.41
  -7  -9   7   10.63    3.60
  -7  -9   6   11.53    3.86
   7   9  -5    5.40    2.52
  -7  -9   5    4.60    2.14
   7   9  -4    4.58    2.35
  -7  -9   4    2.69    1.99
   7   9  -3   23.85    5.00
  -7  -9   3   22.38    4.50
   7   9  -2   12.98    3.45
  -7  -9   2   12.57    3.08
   7   9  -1   18.71    4.25
  -7  -9   1   16.32    3.53
   7   9   0    0.64    1.15
   7   9   1    9.53    2.87
   7   9   2   14.89    3.65
   7   9   3    9.67    2.78
   7   9   4    3.48    1.61
   7   9   5    0.35    0.27
   7   9   6   15.36    3.61
   7   9   7   -0.09    0.83
   7   9   8    9.41    2.81
   7   9   9   -0.52    1.00
  -7  -9 -10    2.37    1.58
  -7  -9 -11   24.68    4.73
  -7  -9 -12    1.50    1.42
  -7  -9 -13    3.77    1.89
  -7  -9 -14   -0.50    0.88
  -7  -9 -15    1.87    0.23
  -7  -9 -16   11.73    3.78
  -7 -10   9    5.45    3.03
  -7 -10   8    2.39    1.59
  -7 -10   7    6.55    3.06
  -7 -10   6    3.74    1.99
   7  10  -5    6.73    2.69
  -7 -10   5    7.70    2.88
   7  10  -4    2.63    1.63
  -7 -10   4    2.42    1.42
   7  10  -3    7.98    2.84
  -7 -10   3    7.55    2.67
   7  10  -2    2.50    1.59
  -7 -10   2    1.61    1.42
  -7 -10   1    1.65    1.11
   7  10  -1    2.83    1.66
   7  10   0    9.87    3.13
   7  10   1    0.51    0.40
   7  10   2   19.47    4.28
   7  10   3    0.56    0.27
   7  10   4    2.97    1.50
   7  10   5   13.71    3.55
   7  10   6    2.10    1.29
   7  10   7   18.43    4.05
   7  10   8    1.50    1.27
   7  10   9    0.05    0.20
   7  10  10   12.02    3.54
  -7 -10 -11    2.87    1.70
  -7 -10 -12   26.52    5.35
  -7 -10 -13    3.64    2.23
  -7 -10 -14   -1.35    1.67
  -7 -10 -15   21.07    5.27
  -7 -11   7    0.52    1.40
  -7 -11   6    7.44    3.15
   7  11  -5    3.06    2.07
  -7 -11   5    1.25    0.15
   7  11  -4   13.20    4.01
  -7 -11   4   10.39    3.41
   7  11  -3    6.79    2.95
  -7 -11   3    7.66    2.69
   7  11  -2    4.08    2.36
  -7 -11   2    6.45    2.36
  -7 -11   1    4.05    2.02
   7  11  -1    4.67    2.39
   7  11   0    3.24    1.65
   7  11   1   11.44    3.41
   7  11   2    0.97    0.88
   7  11   3    7.11    2.76
   7  11   4   -1.04    1.09
   7  11   5    4.59    1.92
   7  11   6    1.06    0.95
   7  11   7    2.23    1.60
   7  11   8    4.33    2.05
   7  11   9    8.45    2.90
   7  11  10    1.46    0.58
   7  11  11   -1.35    1.93
   7  11  12    2.85    1.59
  -7 -11 -13    4.21    2.45
  -7 -12   6   18.35    4.93
  -7 -12   5    0.35    0.19
  -7 -12   4   43.16    7.24
   7  12  -4   44.27    7.93
   7  12  -3    6.40    3.01
  -7 -12   3    4.60    2.18
   7  12  -2   19.99    5.16
  -7 -12   2   18.60    4.49
   7  12  -1   40.33    7.21
   7  12   0    4.46    2.86
   7  12   1  109.48   11.15
   7  12   2    6.69    2.56
   7  12   3   40.27    6.58
   7  12   4   48.63    7.12
   7  12   5    8.40    3.06
   7  12   6   95.39   10.15
   7  12   7    3.86    2.11
   7  12   8   39.55    6.69
   7  12   9   14.46    4.08
   7  12  10   10.01    3.26
  -7 -13   4    9.28    3.32
  -7 -13   3   -1.83    1.44
  -7 -13   2    9.40    3.35
   7  13   2    3.33    1.80
   7  13   3    0.12    1.68
   7  13   4    1.71    1.93
   8  -4  -9   11.72    5.47
   8  -4  -8   67.54   12.32
   8  -4  -7    4.32    3.84
   8  -4  -6   55.80   10.76
   8  -4  -5   16.46    5.81
   8  -4  -4   48.12    9.76
   8  -4  -3   72.98   11.80
   8  -4  -2   21.09    6.38
   8  -4  -1  103.80   13.75
   8  -4   0    6.94    3.47
   8  -4   1   71.31   10.94
   8  -4   2   57.13    9.77
   8  -4   3   31.32    7.07
   8  -4   4   55.96    9.50
   8  -4   5   -2.19    2.29
   8  -4   6   48.57    8.81
   8  -4   7    6.17    3.71
   8  -4   7    7.90    3.68
   8  -4   8   22.40    7.00
   8  -4   9   13.68    5.50
   8  -3 -12    9.45    3.56
   8  -3 -11    8.83    4.66
   8  -3 -10   -0.81    0.61
   8  -3  -9    2.28    1.50
   8  -3  -8    4.06    2.39
   8  -3  -7   30.28    7.82
   8  -3  -6    2.48    2.50
   8  -3  -5    6.50    3.25
   8  -3  -4    0.08    1.91
   8  -3  -3    6.44    3.54
   8  -3  -2   18.42    5.52
   8  -3  -1    6.63    3.78
   8  -3   0    3.62    3.00
   8  -3   1    9.24    3.90
   8  -3   2    1.06    1.89
   8  -3   3    0.63    0.95
   8  -3   4    8.83    3.42
   8  -3   5    1.35    0.62
   8  -3   6   23.92    5.82
   8  -3   7    2.12    1.58
   8  -3   8    2.18    1.95
   8  -3   9    6.72    3.23
   8  -3  10    8.43    4.64
   8  -3  10    0.45    1.12
   8  -3  11   13.69    4.03
   8  -2 -13    7.45    4.50
   8  -2 -12    4.71    3.54
   8  -2 -11    7.69    4.45
   8  -2 -10   15.97    5.95
   8  -2  -9    0.34    1.32
   8  -2  -8   10.23    4.50
   8  -2  -7   -0.96    0.90
   8  -2  -6    5.18    3.10
   8  -2  -5    6.13    2.67
   8  -2  -4    2.43    2.10
   8  -2  -3    1.56    1.18
   8  -2  -2    1.79    1.39
   8  -2  -1   -1.11    1.92
   8  -2   0    1.04    0.90
   8  -2   1    1.69    1.45
   8  -2   2    9.66    3.85
   8  -2   3    3.28    2.30
   8  -2   4    1.18    1.08
   8  -2   5    0.78    1.17
   8  -2   6    0.89    1.20
   8  -2   7    1.08    0.11
   8  -2   8    0.63    1.74
   8  -2   9    2.74    1.17
   8  -2  10    4.50    2.24
   8  -2  11   -0.05    1.50
   8  -2  12    5.75    2.51
   8  -1 -15   -1.32    1.14
   8  -1 -14   13.02    5.72
   8  -1 -13    0.69    2.08
   8  -1 -12    2.11    2.68
   8  -1 -11    2.55    1.30
   8  -1 -10    5.64    3.85
   8  -1  -9   31.06    7.83
   8  -1  -8    9.40    4.45
   8  -1  -7   16.68    5.57
   8  -1  -6    3.11    2.60
   8  -1  -5    9.27    3.89
   8  -1  -4   52.02    8.89
   8  -1  -3   -1.12    1.49
   8  -1  -2    9.92    3.29
   8  -1  -1   -0.45    1.52
   8  -1   0    6.20    2.83
   8  -1   1   12.05    3.94
   8  -1   2    0.88    1.00
   8  -1   3    1.46    1.43
   8  -1   4   12.43    3.82
   8  -1   5   25.96    5.52
   8  -1   6    2.17    1.53
   8  -1   7    3.76    2.21
   8  -1   8    8.42    3.03
   8  -1   9    6.00    2.69
   8  -1  10   27.70    5.63
   8  -1  11   -0.26    0.25
   8  -1  12    1.49    1.40
  -8   1 -13    5.95    2.64
   8   0 -15   20.98    6.71
   8   0 -14   18.41    6.85
  -8   0  14   10.42    3.44
   8   0 -13    3.67    2.72
  -8   0  13    0.82    0.20
   8   0 -12    9.25    4.92
   8   0 -11   13.29    5.39
   8   0 -10   74.54    8.74
   8   0 -10   70.00   12.08
   8   0  -9   33.70    8.03
   8   0  -9   33.94    5.38
   8   0  -8   31.52    7.65
   8   0  -8   23.73    4.16
   8   0  -7   55.59    5.50
   8   0  -7   75.57   11.48
   8   0  -6   11.90    4.57
   8   0  -6    7.91    1.75
   8   0  -5  226.37   18.85
   8   0  -4   75.14   10.55
   8   0  -3  114.22   12.81
   8   0  -2  138.46   13.51
   8   0  -1    0.89    1.52
   8   0   0  385.46   21.46
   8   0   1   27.08    5.59
   8   0   2  185.49    8.27
   8   0   2  191.41   14.56
   8   0   3   81.85    5.24
   8   0   3   90.18    9.94
   8   0   4   22.62    4.96
   8   0   4   20.19    2.53
   8   0   5  242.16    8.77
   8   0   5  255.64   16.49
   8   0   6    9.30    3.78
   8   0   7  142.11   12.20
   8   0   8   17.51    4.29
   8   0   9   31.61    5.66
   8   0  10   83.37    9.33
   8   0  11    2.80    1.95
  -8   0 -12   37.27    6.71
   8   0  12   36.77    6.33
  -8   0 -13    2.23    1.86
  -8   0 -14    8.11    2.95
   8   1 -16   -2.49    3.73
  -8  -1  16    0.34    0.70
   8   1 -15    7.54    2.94
  -8  -1  15    5.79    2.70
   8   1 -14   -1.80    2.25
  -8  -1  14    1.16    1.77
   8   1 -13   11.78    5.35
  -8  -1  13    6.79    2.85
   8   1 -12    7.59    3.80
  -8  -1  12    9.96    3.69
   8   1 -11   15.60    5.92
  -8  -1  11   21.31    4.63
   8   1 -10   15.09    5.26
  -8  -1  10    8.88    2.87
   8   1  -9    7.12    3.88
   8   1  -8    7.23    3.89
   8   1  -7   10.35    4.01
   8   1  -6   65.90   10.43
   8   1  -5    3.32    2.12
   8   1  -4   22.76    6.04
   8   1  -4   18.55    2.50
   8   1  -3    6.03    2.87
   8   1  -3    3.51    0.61
   8   1  -3    4.39    0.83
   8   1  -2    0.15    1.06
   8   1  -1   28.16    5.64
   8   1   0   13.00    3.97
   8   1   0   12.45    2.51
   8   1   1   14.25    4.02
   8   1   1   13.31    2.47
   8   1   2   18.34    4.41
   8   1   2   17.37    2.71
   8   1   3    0.84    1.52
   8   1   3   -0.06    0.36
   8   1   4   -0.31    0.71
   8   1   4    1.36    0.73
   8   1   5   48.75    4.50
   8   1   5   53.21    7.06
   8   1   6   -0.66    0.68
   8   1   6    0.99    0.85
   8   1   7   46.08    4.63
   8   1   7   51.15    6.90
   8   1   8   -1.12    0.66
   8   1   8   -0.07    0.36
   8   1   9    7.33    2.50
   8   1  10   28.08    5.00
  -8  -1 -11    4.80    2.17
   8   1  11    3.63    1.77
  -8  -1 -12   37.35    6.68
   8   1  12   39.77    6.03
  -8  -1 -13    2.12    1.41
  -8  -1 -14    4.10    1.85
  -8  -1 -15    7.32    2.44
   8   2 -16   17.23    6.18
  -8  -2  16    5.74    3.21
   8   2 -15    2.33    2.40
  -8  -2  15    1.44    1.97
  -8  -2  14   60.33    9.31
   8   2 -14   88.52   14.23
   8   2 -13    3.48    3.12
  -8  -2  13    0.01    1.33
   8   2 -12   10.95    4.71
  -8  -2  12    6.36    2.69
   8   2 -11   13.84    5.36
  -8  -2  11   13.59    3.90
   8   2 -10   -0.96    1.48
  -8  -2  10    8.32    3.06
   8   2  -9   56.22   10.28
  -8  -2   9   62.95    7.78
   8   2  -8    9.95    4.35
  -8  -2   8    9.73    2.91
   8   2  -7    5.02    3.12
   8   2  -6    0.05    0.72
   8   2  -5    2.20    2.13
   8   2  -4   39.42    7.78
   8   2  -3   31.07    6.60
   8   2  -2   13.56    1.51
   8   2  -2   13.65    4.26
   8   2  -1   -0.29    0.38
   8   2  -1    2.13    1.09
   8   2   0    1.50    1.02
   8   2   0    1.91    1.00
   8   2   1   17.57    4.36
   8   2   1   24.92    3.56
   8   2   2   16.89    4.26
   8   2   2   16.34    2.76
   8   2   3   17.20    4.13
   8   2   3   20.74    3.11
   8   2   4    0.51    0.73
   8   2   4    0.30    0.61
   8   2   5    3.76    1.94
   8   2   5    3.06    1.09
   8   2   6   30.06    3.94
   8   2   6   38.76    5.67
   8   2   7    9.48    2.71
   8   2   7    9.22    2.23
   8   2   8    4.78    1.93
   8   2   9    5.22    2.31
   8   2  10    3.65    1.87
  -8  -2 -10    5.10    2.50
  -8  -2 -11   32.92    6.30
   8   2  11   38.47    5.57
  -8  -2 -12    4.28    2.08
   8   2  12    6.70    2.39
  -8  -2 -13    3.11    1.98
  -8  -2 -14    1.49    1.02
  -8  -2 -15    7.11    2.87
  -8  -2 -16   12.65    3.88
   8   3 -15    9.44    4.85
  -8  -3  15    4.42    2.85
   8   3 -14   -1.33    0.21
  -8  -3  14    3.80    2.85
   8   3 -13    9.50    4.77
  -8  -3  13   10.99    3.90
   8   3 -12    9.49    4.55
  -8  -3  12    5.46    2.62
   8   3 -11    4.47    3.37
  -8  -3  11    0.03    0.88
   8   3 -10   27.38    7.46
  -8  -3  10   37.15    6.52
   8   3  -9    1.07    0.90
  -8  -3   9    4.53    2.40
   8   3  -8   33.35    8.15
  -8  -3   8   30.15    5.37
   8   3  -7   11.89    4.44
  -8  -3   7    9.70    2.98
   8   3  -6    4.07    2.41
   8   3  -5   42.48    8.18
   8   3  -4   -1.66    2.37
   8   3  -3   39.58    7.51
   8   3  -3   34.32    5.02
   8   3  -2    2.52    1.90
   8   3  -2    1.33    0.52
   8   3  -2    0.84    0.49
   8   3  -1    1.63    0.59
   8   3  -1    3.24    2.24
   8   3  -1    0.39    0.55
   8   3   0   15.41    4.21
   8   3   0   15.14    1.80
   8   3   0   13.84    2.92
   8   3   1   -0.26    1.44
   8   3   1    0.49    0.28
   8   3   1    0.72    0.53
   8   3   2    3.44    1.98
   8   3   2    3.19    1.41
   8   3   2    2.25    0.80
   8   3   3    1.01    0.35
   8   3   3    1.17    0.83
   8   3   4    3.55    1.82
   8   3   4    6.63    1.95
   8   3   5    0.75    0.75
   8   3   5    0.67    0.76
   8   3   6    7.77    2.26
   8   3   6    9.83    2.29
   8   3   6    9.74    2.87
   8   3   7    4.83    2.04
   8   3   7    7.16    2.08
   8   3   7    7.14    2.35
   8   3   8   -0.59    1.26
  -8  -3  -8   -0.10    0.34
   8   3   9   22.89    4.00
  -8  -3  -9   17.58    2.66
  -8  -3  -9   24.61    5.59
   8   3  10    1.63    1.84
  -8  -3 -10    1.56    1.05
  -8  -3 -10    0.54    0.92
  -8  -3 -11   23.77    3.64
   8   3  11   29.81    4.56
  -8  -3 -11   22.75    5.33
  -8  -3 -12    4.75    1.82
  -8  -3 -12    7.14    3.28
   8   3  12    7.91    2.37
  -8  -3 -13    3.00    1.96
  -8  -3 -14   12.68    4.07
  -8  -3 -15    1.11    0.37
  -8  -3 -16   15.15    4.55
   8   4 -15   19.52    6.91
   8   4 -14   30.49    9.00
  -8  -4  14   19.74    5.99
   8   4 -13   33.06    9.18
  -8  -4  13   16.14    4.97
   8   4 -12    4.02    3.27
  -8  -4  12   -0.47    1.22
   8   4 -11   16.52    6.11
  -8  -4  11    7.36    2.93
   8   4 -10   22.14    7.33
  -8  -4  10   25.25    5.69
  -8  -4   9   86.74    9.98
   8   4  -9   82.67   13.60
  -8  -4   8   68.02    8.42
   8   4  -8   58.18   11.08
   8   4  -7   14.92    5.28
  -8  -4   7   23.08    4.70
   8   4  -6   43.38    9.01
  -8  -4   6   51.19    6.82
   8   4  -5   30.10    7.28
   8   4  -5   43.94    4.36
  -8  -4   5   44.87    6.13
   8   4  -4  277.75   11.44
   8   4  -4  294.24   22.29
   8   4  -3  121.45    9.73
   8   4  -3  129.14   14.26
   8   4  -2  104.61    8.72
   8   4  -2  104.69   12.43
   8   4  -2   91.90    6.00
   8   4  -1  125.64    6.64
   8   4  -1  138.78    9.61
   8   4  -1  133.80   13.51
   8   4   0   11.25    3.83
   8   4   0    9.69    1.63
   8   4   0    7.64    2.21
   8   4   1  499.34   12.46
   8   4   1  494.93   17.47
   8   4   1  531.92   25.07
   8   4   2   72.91    6.58
   8   4   2   81.79    5.10
   8   4   2   87.98    9.77
   8   4   3  198.96   10.75
   8   4   3  208.32    8.49
   8   4   3  207.79   14.41
   8   4   4   80.59    6.90
   8   4   4   78.87    5.58
   8   4   4   97.55    9.44
   8   4   5    1.47    1.20
   8   4   5    0.20    0.60
  -8  -4  -5    2.00    2.24
   8   4   6  365.26   15.04
  -8  -4  -6  427.34   24.09
   8   4   6  435.15   18.70
   8   4   7    6.92    2.35
   8   4   7    8.02    2.48
  -8  -4  -7    9.67    4.05
  -8  -4  -8  150.58   14.16
   8   4   8  157.39   10.44
  -8  -4  -8  142.90    7.87
   8   4   9   15.80    3.19
  -8  -4  -9   12.28    4.12
  -8  -4  -9    9.89    2.05
  -8  -4 -10   10.04    2.28
   8   4  10   11.82    2.74
  -8  -4 -10   13.08    4.21
  -8  -4 -11  138.18    9.29
  -8  -4 -11  145.04   14.08
   8   4  11  153.31    9.72
  -8  -4 -12    0.61    0.88
  -8  -4 -12    4.26    2.84
  -8  -4 -13   44.68    6.03
  -8  -4 -13   48.27    8.15
  -8  -4 -14    1.87    1.28
  -8  -4 -14    0.39    1.01
  -8  -4 -15    1.97    1.30
  -8  -4 -15    3.19    2.41
  -8  -4 -16   36.33    7.50
  -8  -5  13    1.56    1.15
  -8  -5  12   26.44    6.44
  -8  -5  11    0.55    2.92
  -8  -5  10    3.32    1.89
  -8  -5   9   12.45    3.99
  -8  -5   8    2.56    2.16
  -8  -5   7   75.49    8.88
  -8  -5   6    0.68    1.01
  -8  -5   5   23.41    4.57
  -8  -5   4    1.20    1.07
   8   5  -4    1.69    0.91
   8   5  -4    1.17    0.95
   8   5  -3   10.16    2.33
   8   5  -3   10.61    3.12
   8   5  -2   55.63    6.60
   8   5  -2   46.44    4.70
   8   5  -1   29.20    3.57
   8   5  -1   32.66    4.87
   8   5   0    8.84    1.94
   8   5   0    7.13    3.36
   8   5   0    6.97    2.05
   8   5   1   18.21    2.75
   8   5   1   18.65    4.85
   8   5   1   21.09    3.69
  -8  -5  -1   19.72    5.38
   8   5   2    7.16    2.56
   8   5   2    7.62    2.31
   8   5   2    9.71    1.96
  -8  -5  -2   11.62    4.14
   8   5   3    1.61    1.77
   8   5   3    1.76    0.82
  -8  -5  -3    2.15    2.21
   8   5   4   39.94    5.12
   8   5   4   43.13    4.46
  -8  -5  -4   47.25    8.18
   8   5   4   43.35    6.49
   8   5   5    4.87    2.02
   8   5   5    5.15    1.95
   8   5   5    5.94    1.79
  -8  -5  -5    6.46    3.47
   8   5   6   67.81    6.80
  -8  -5  -6   69.98   10.08
   8   5   6   68.40    6.29
   8   5   6   74.89    7.74
   8   5   7    1.89    1.69
   8   5   7    0.22    0.83
  -8  -5  -7    0.48    0.62
   8   5   8   16.59    3.33
  -8  -5  -8   21.60    5.62
  -8  -5  -8   18.92    3.13
  -8  -5  -9   20.60    3.38
  -8  -5  -9   22.99    5.78
   8   5   9   24.35    3.92
  -8  -5 -10   31.81    4.42
  -8  -5 -10   41.32    7.70
   8   5  10   35.90    4.56
  -8  -5 -11   41.01    5.28
  -8  -5 -11   53.31    8.70
   8   5  11   53.28    5.38
  -8  -5 -12    5.94    2.10
  -8  -5 -12    5.30    2.80
  -8  -5 -13   21.21    4.28
  -8  -5 -13   20.93    5.81
  -8  -5 -14    4.11    2.05
  -8  -5 -14    2.16    1.63
  -8  -5 -15   20.33    5.75
  -8  -5 -15   17.40    4.19
  -8  -5 -16   12.65    3.75
  -8  -5 -17    2.14    1.32
  -8  -6  12    0.27    1.41
  -8  -6  11    6.23    3.04
  -8  -6  10   19.25    5.32
  -8  -6   9    4.49    2.44
  -8  -6   9    4.24    2.14
  -8  -6   8   60.62    8.59
  -8  -6   8   83.82    9.74
  -8  -6   7    3.43    2.03
  -8  -6   7    2.30    1.45
  -8  -6   6    1.69    1.01
  -8  -6   6    3.64    2.26
   8   6  -5    4.95    2.31
  -8  -6   5    4.74    2.24
  -8  -6   5    5.69    2.92
   8   6  -4    4.21    2.27
  -8  -6   4    5.85    2.20
  -8  -6   4    5.05    2.81
   8   6  -3   34.81    5.46
  -8  -6   3   32.71    6.87
   8   6  -2   16.56    3.81
  -8  -6   2   14.34    4.55
   8   6  -1    6.93    2.36
  -8  -6   1    6.89    3.12
   8   6   0    1.05    0.70
  -8  -6   0    1.63    1.48
   8   6   1    0.30    0.77
  -8  -6  -1    2.28    2.27
   8   6   2   12.71    3.03
  -8  -6  -2   11.32    4.05
   8   6   3   17.43    4.57
   8   6   3   14.44    2.76
   8   6   3   12.99    2.99
  -8  -6  -3   16.05    5.25
   8   6   4   22.48    4.86
   8   6   4   18.09    3.38
  -8  -6  -4   18.21    5.42
   8   6   5    0.73    1.25
   8   6   5    1.28    1.08
  -8  -6  -5   -1.00    1.70
   8   6   6    0.96    1.08
   8   6   6    3.12    1.65
  -8  -6  -6    3.70    2.23
   8   6   7   20.40    4.07
   8   6   7   19.79    3.87
  -8  -6  -7   19.03    5.13
   8   6   8    4.17    1.69
   8   6   8    5.86    2.06
  -8  -6  -8    5.80    3.05
   8   6   9    4.09    1.48
  -8  -6  -9    4.70    2.92
  -8  -6  -9    2.52    1.29
   8   6  10    6.20    1.91
  -8  -6 -10    9.57    3.80
  -8  -6 -10    5.98    2.08
  -8  -6 -11    2.96    1.74
  -8  -6 -11    3.39    1.57
  -8  -6 -12   29.81    4.92
  -8  -6 -12   29.87    7.07
  -8  -6 -13    5.00    2.32
  -8  -6 -13    2.19    1.35
  -8  -6 -14    1.22    1.11
  -8  -6 -15    4.33    2.19
  -8  -6 -16    7.89    3.03
  -8  -6 -17   16.31    4.64
  -8  -6 -18    6.36    2.92
  -8  -7  11    4.06    2.18
  -8  -7  10    2.26    2.34
  -8  -7   9   48.77    8.38
  -8  -7   8   -0.23    0.77
  -8  -7   8   -0.26    0.20
  -8  -7   7    4.28    2.11
  -8  -7   7    6.89    2.73
  -8  -7   6   11.98    3.56
  -8  -7   6   11.60    3.83
   8   7  -5    2.06    1.38
  -8  -7   5    2.76    1.75
  -8  -7   5    1.32    1.44
  -8  -7   4   83.59    9.04
   8   7  -4   89.31    9.57
  -8  -7   4   79.91   10.72
   8   7  -3    0.97    0.46
  -8  -7   3    0.71    0.73
  -8  -7   3    1.04    0.53
   8   7  -2    2.02    1.65
  -8  -7   2    2.71    2.21
   8   7  -1    7.18    2.41
  -8  -7   1    3.93    2.47
   8   7   0    3.98    1.57
  -8  -7   0    0.41    0.95
   8   7   1   47.10    6.04
  -8  -7  -1   27.12    6.86
   8   7   2    2.93    1.67
  -8  -7  -2    0.96    1.00
   8   7   3    5.07    2.12
  -8  -7  -3    3.26    1.84
   8   7   4   -0.12    1.03
  -8  -7  -4    2.22    2.90
   8   7   5   21.84    4.11
  -8  -7  -5   23.97    6.66
   8   7   6    8.59    2.77
   8   7   6    8.51    2.58
  -8  -7  -6    9.80    4.17
   8   7   7    0.09    0.77
   8   7   7    0.04    0.86
  -8  -7  -7   -1.20    1.87
   8   7   8   29.32    4.95
  -8  -7  -8   33.39    8.01
   8   7   8   31.48    4.98
   8   7   9    0.72    0.49
  -8  -7  -9   -0.07    0.96
  -8  -7  -9    0.22    0.46
  -8  -7 -10   34.12    5.06
  -8  -7 -10   43.37    9.13
   8   7  10   36.81    4.61
  -8  -7 -11   -0.02    1.77
  -8  -7 -11    4.51    1.82
  -8  -7 -12    5.00    2.33
  -8  -7 -13   18.20    4.22
  -8  -7 -14    3.98    2.16
  -8  -7 -15   15.78    4.43
  -8  -7 -16    4.39    2.68
  -8  -7 -17    5.60    2.56
  -8  -7 -18    4.11    2.77
  -8  -8  10   20.88    5.95
  -8  -8   9    9.77    3.80
  -8  -8   8   31.46    6.75
  -8  -8   7   40.76    7.27
  -8  -8   7   45.34    7.69
  -8  -8   6    0.98    1.23
  -8  -8   6    0.83    0.48
  -8  -8   5   72.15    8.89
  -8  -8   5   83.21   11.17
   8   8  -5   71.53    9.06
   8   8  -4   30.22    5.74
  -8  -8   4   23.88    6.15
  -8  -8   4   21.18    4.71
  -8  -8   3  144.70   11.78
   8   8  -3  131.56   11.75
  -8  -8   3  129.24   14.71
   8   8  -2   86.93    9.21
  -8  -8   2   70.15   11.19
   8   8  -1   23.28    4.71
  -8  -8   1   16.10    5.45
   8   8   0  167.45   12.25
  -8  -8   0  139.48   16.37
   8   8   1    4.78    2.28
  -8  -8  -1    8.42    4.21
   8   8   2  241.51   14.26
  -8  -8  -2  214.42   20.84
   8   8   3   60.25    7.17
  -8  -8  -3   56.76   10.82
   8   8   4   61.68    7.12
  -8  -8  -4   55.70   10.74
   8   8   5  125.15   10.33
  -8  -8  -5  143.03   17.67
   8   8   6   -0.20    1.08
  -8  -8  -6    1.59    2.86
   8   8   7  183.72   12.62
  -8  -8  -7  206.65   21.69
   8   8   8   10.08    3.01
  -8  -8  -8    9.38    4.09
   8   8   8   12.62    3.42
   8   8   9   40.42    6.19
   8   8   9   55.93    6.46
  -8  -8 -10   37.32    5.57
  -8  -8 -11    6.38    2.36
  -8  -8 -12   68.66    8.03
  -8  -8 -13   -0.12    0.64
  -8  -8 -14   14.09    3.92
  -8  -8 -15    1.19    0.36
  -8  -8 -16    3.76    1.97
  -8  -8 -17    7.20    3.14
  -8  -9   9    0.16    0.79
  -8  -9   8    6.97    3.23
  -8  -9   7    1.66    1.84
  -8  -9   6   46.32    7.64
   8   9  -5    3.57    1.84
  -8  -9   5    4.18    2.30
   8   9  -4    5.79    2.52
  -8  -9   4    6.56    2.57
   8   9  -3    4.94    2.56
  -8  -9   3    1.92    1.69
  -8  -9   2    2.41    1.71
   8   9  -2    3.87    2.04
   8   9  -1   47.94    6.98
   8   9   0   29.53    5.41
   8   9   1    2.15    1.55
   8   9   2    7.38    2.76
   8   9   3    2.43    1.42
   8   9   4    3.02    2.02
   8   9   5   56.55    7.16
   8   9   6   11.59    3.23
   8   9   7   27.70    5.06
   8   9   8    0.35    0.13
   8   9   9    4.52    2.19
   8   9  10   34.11    6.03
  -8  -9 -11   24.60    4.91
  -8  -9 -12   24.08    4.94
  -8  -9 -13    2.31    1.45
  -8  -9 -14    7.54    2.96
  -8  -9 -15   18.08    4.78
  -8  -9 -16   17.48    4.87
  -8 -10   8    1.01    0.50
  -8 -10   7   14.34    4.63
  -8 -10   6    3.33    1.72
   8  10  -5    5.19    2.63
  -8 -10   5    1.42    1.20
   8  10  -4    9.82    3.53
  -8 -10   4    8.66    3.23
   8  10  -3   10.31    3.68
  -8 -10   3    5.52    2.42
  -8 -10   2    2.20    1.35
   8  10  -2    3.71    1.63
   8  10  -1    0.28    1.16
   8  10   0   -0.77    1.31
   8  10   1    1.61    1.35
   8  10   2    6.49    2.81
   8  10   3    2.20    1.74
   8  10   4    0.89    1.38
   8  10   5    1.55    0.95
   8  10   6    1.06    0.43
   8  10   7    2.60    1.99
   8  10   8    3.28    1.80
   8  10   9    0.10    0.67
   8  10  10    2.37    1.74
   8  10  11    0.95    0.66
   8  10  12    4.43    2.36
  -8 -10 -12    6.35    2.58
  -8 -10 -13    6.36    3.04
  -8 -10 -14   31.76    5.95
  -8 -10 -15    3.56    1.56
  -8 -11   6   -0.84    1.79
   8  11  -5   11.99    3.86
  -8 -11   5   10.00    3.69
   8  11  -4    1.85    1.73
  -8 -11   4    3.78    2.05
   8  11  -3   29.93    6.11
  -8 -11   3   24.58    5.31
   8  11  -2    0.84    1.02
   8  11  -1   -0.42    1.28
   8  11   0   10.56    3.28
   8  11   1    2.44    1.84
   8  11   2    8.39    2.97
   8  11   3    1.75    1.48
   8  11   4    6.72    2.55
   8  11   5    1.75    1.50
   8  11   6   11.07    3.46
   8  11   7    0.85    1.18
   8  11   8    0.07    0.80
   8  11   9   15.45    4.15
   8  11  10    0.51    0.98
   8  11  11   11.78    3.65
  -8 -12   4   39.52    7.13
  -8 -12   3    6.80    3.08
   8  12  -1   38.84    7.09
   8  12   0    3.32    2.12
   8  12   1   82.01    9.96
   8  12   2    5.25    2.89
   8  12   3   48.73    7.49
   8  12   4   29.94    5.87
   8  12   5   13.30    3.94
   8  12   6   68.04    8.93
   8  12   7    3.68    2.08
   8  12   8   31.83    6.07
   9  -3  -4   10.89    4.62
   9  -3  -3   26.52    7.49
   9  -3  -2   -0.09    0.50
   9  -3  -1   35.12    8.10
   9  -3   0   12.51    4.90
   9  -3   1   28.61    6.99
   9  -3   2   17.55    5.49
   9  -3   3    3.03    2.20
   9  -3   4   50.66    9.21
   9  -3   5    1.28    3.73
   9  -2  -8   36.27    8.99
   9  -2  -7    2.26    1.74
   9  -2  -6   17.81    5.64
   9  -2  -5    9.62    3.93
   9  -2  -4    0.62    0.71
   9  -2  -3   19.36    5.88
   9  -2  -2    2.58    2.51
   9  -2  -1   15.24    5.03
   9  -2   0    4.69    2.83
   9  -2   1    3.18    2.82
   9  -2   2   17.02    4.99
   9  -2   3    2.40    2.42
   9  -2   4    5.82    3.20
   9  -2   5    1.85    2.00
   9  -2   6    1.86    1.81
   9  -2   7    9.10    3.77
   9  -2   8    0.52    1.50
   9  -2   9    0.56    0.56
   9  -2  10   -3.18    2.15
   9  -1 -10   23.71    7.42
   9  -1  -9    5.60    3.44
   9  -1  -8    1.83    1.89
   9  -1  -7    1.15    1.13
   9  -1  -6    1.78    2.00
   9  -1  -5   25.86    6.98
   9  -1  -4    1.63    1.32
   9  -1  -3    4.53    3.23
   9  -1  -2   -0.11    0.71
   9  -1  -1    0.77    1.18
   9  -1   0   31.57    7.16
   9  -1   1    2.66    1.76
   9  -1   2    7.16    3.28
   9  -1   3    0.77    0.46
   9  -1   4    7.49    3.62
   9  -1   5   34.17    6.77
   9  -1   6    5.07    2.83
   9  -1   7    8.30    3.41
   9  -1   8    0.99    0.93
   9  -1   9    0.98    0.89
   9  -1  10   23.53    5.63
   9  -1  11    5.41    2.66
   9   0 -12    3.78    2.98
   9   0 -11   -0.94    1.87
   9   0 -10    5.37    2.91
   9   0  -9    8.13    4.17
   9   0  -8    2.32    1.06
   9   0  -7   12.18    4.82
   9   0  -6    1.83    2.19
   9   0  -5   12.29    4.49
   9   0  -4    3.47    2.62
   9   0  -3    3.40    2.19
   9   0  -2   15.76    5.00
   9   0  -1    0.42    1.39
   9   0   0    7.02    3.22
   9   0   1    1.62    1.53
   9   0   2    6.52    2.93
   9   0   3    2.60    1.90
   9   0   4    2.17    1.25
   9   0   5    4.90    2.64
   9   0   6    0.81    1.04
   9   0   7    3.21    2.35
   9   0   8    1.95    1.76
   9   0   9    5.69    2.46
   9   0  10   -0.79    1.75
   9   0  11   -0.60    0.10
  -9   0 -12    2.20    1.54
  -9   0 -13    2.03    2.08
   9   1 -12    1.76    2.03
   9   1 -11    9.43    5.10
   9   1 -10   15.51    5.97
   9   1  -9   20.96    6.85
   9   1  -8   13.85    5.46
   9   1  -7    1.99    2.72
   9   1  -6   12.84    4.99
   9   1  -5   40.40    8.78
   9   1  -4   36.64    7.81
   9   1  -3   24.24    6.37
   9   1  -2    9.76    4.02
   9   1  -1    7.16    3.39
   9   1   0   55.80    8.72
   9   1   1   36.64    7.00
   9   1   2   40.13    4.50
   9   1   2   50.50    7.75
   9   1   3   11.92    3.65
   9   1   4    2.11    1.78
   9   1   5   71.57    8.90
   9   1   6   15.23    4.21
   9   1   7   46.06    7.07
   9   1   8    3.73    2.05
   9   1   9    0.40    0.51
   9   1  10   38.78    6.50
  -9  -1 -11    6.47    3.08
   9   1  11    3.41    1.85
  -9  -1 -12   29.82    6.26
  -9  -1 -13    0.53    1.54
  -9  -1 -14    3.06    2.19
  -9  -2  14   20.53    5.56
   9   2 -13   -0.08    1.38
  -9  -2  13   -0.33    1.26
   9   2 -12    9.22    4.74
  -9  -2  12    6.93    3.00
   9   2 -11   10.30    4.65
   9   2 -10    0.10    1.76
   9   2  -9   44.80    9.87
   9   2  -8    3.19    3.10
   9   2  -7   17.23    5.71
   9   2  -6   13.27    4.92
   9   2  -5    8.37    3.42
   9   2  -4   43.13    8.47
   9   2  -3    2.25    2.33
   9   2  -2   21.05    5.59
   9   2  -1    3.15    1.95
   9   2   0    9.70    3.66
   9   2   0    8.01    2.07
   9   2   1   29.50    5.92
   9   2   1   26.92    4.01
   9   2   2    4.56    2.41
   9   2   2    5.70    1.77
   9   2   3    8.79    3.36
   9   2   3    6.94    1.99
   9   2   4    5.38    2.46
   9   2   4    0.86    0.79
   9   2   5    8.45    3.10
   9   2   5    7.62    2.03
   9   2   6    7.24    2.75
   9   2   6    9.62    2.38
   9   2   7    1.94    1.08
   9   2   7    2.73    1.24
   9   2   8    3.77    2.23
   9   2   8    4.01    1.67
   9   2   9   -0.59    1.17
   9   2   9   -0.93    0.56
   9   2  10    3.67    1.77
   9   2  10    1.03    0.43
  -9  -2 -10    0.94    0.59
  -9  -2 -11    2.64    2.03
   9   2  11    3.50    1.91
  -9  -2 -12    1.32    1.76
  -9  -2 -13   -1.40    2.17
  -9  -2 -14   -0.70    0.97
  -9  -2 -15   -0.13    1.05
   9   3 -13    1.51    1.21
  -9  -3  13    4.03    2.31
   9   3 -12   -1.22    2.48
  -9  -3  12    1.69    2.00
   9   3 -11    9.12    4.65
  -9  -3  11    4.22    2.14
   9   3 -10    3.23    2.71
  -9  -3  10    1.77    1.64
   9   3  -9   42.51    9.76
   9   3  -8    3.41    3.04
   9   3  -7    6.37    2.79
   9   3  -6   17.86    6.08
   9   3  -5    0.93    0.91
   9   3  -4   87.93   12.51
   9   3  -3    1.23    1.72
   9   3  -2   20.33    5.49
   9   3  -2   21.52    4.14
   9   3  -1   15.40    4.79
   9   3  -1   12.29    2.80
   9   3   0    4.05    2.64
   9   3   0    1.85    1.27
   9   3   1  121.47    8.89
   9   3   1  146.65   13.70
   9   3   2    0.63    0.64
   9   3   2    1.39    1.03
   9   3   3   23.47    5.34
   9   3   3   24.05    3.80
   9   3   4   10.73    3.55
   9   3   4   11.41    2.68
   9   3   5    5.11    2.40
   9   3   5    4.81    1.75
   9   3   6  110.19    8.40
   9   3   6  116.07   10.52
   9   3   7    5.01    2.03
   9   3   7    3.63    1.36
   9   3   8   22.53    3.92
   9   3   8   25.44    4.79
  -9  -3  -8   26.25    6.30
   9   3   9    2.40    1.48
   9   3   9    2.10    1.01
  -9  -3  -9    4.45    2.54
   9   3  10    7.39    2.57
  -9  -3 -10    7.39    3.37
  -9  -3 -11   65.83    9.70
   9   3  11   70.06    7.77
  -9  -3 -12    8.85    3.64
  -9  -3 -13   12.20    4.08
  -9  -3 -14   -2.37    2.08
  -9  -3 -15    7.58    3.58
  -9  -3 -16   20.73    5.52
  -9  -4  13    3.38    3.02
   9   4 -12    9.46    4.66
  -9  -4  12    7.89    3.86
   9   4 -11    4.12    4.19
  -9  -4  11    1.65    1.81
   9   4 -10    0.82    1.04
  -9  -4  10    4.15    2.19
   9   4  -9   17.09    6.97
  -9  -4   9   20.08    4.97
   9   4  -8    5.97    4.63
  -9  -4   8    2.72    1.64
   9   4  -7   18.61    5.88
   9   4  -6    3.18    1.93
   9   4  -5    3.17    0.71
   9   4  -4   30.59    7.50
   9   4  -3    4.33    3.08
   9   4  -3    5.87    2.29
   9   4  -2   14.20    4.68
   9   4  -2   15.61    3.48
   9   4  -1   -0.10    1.41
   9   4  -1    1.98    1.28
   9   4   0    4.89    2.50
   9   4   0    3.80    1.71
   9   4   1   23.12    5.36
   9   4   1   23.11    4.12
   9   4   2    2.57    1.96
   9   4   2    3.34    1.64
   9   4   3    9.43    3.32
   9   4   3    6.56    2.17
   9   4   4    0.11    0.71
   9   4   4    0.66    0.62
   9   4   5    3.31    1.97
   9   4   5    5.01    1.94
   9   4   6   11.44    3.21
   9   4   6    8.50    2.32
  -9  -4  -6    9.18    3.97
   9   4   7    1.58    0.83
   9   4   7    1.07    0.70
  -9  -4  -7    2.93    2.29
   9   4   8    2.51    1.93
   9   4   8    1.55    0.85
  -9  -4  -8    2.03    1.86
   9   4   9    2.66    1.46
   9   4   9   -0.40    0.46
  -9  -4  -9    1.36    1.40
   9   4  10    2.79    1.30
  -9  -4 -10    2.76    1.68
   9   4  11    6.15    2.31
  -9  -4 -11    1.47    2.08
  -9  -4 -12    2.04    2.01
  -9  -4 -13   -0.60    0.35
  -9  -4 -14   -1.92    2.24
  -9  -4 -15    1.87    1.26
  -9  -4 -16   -0.64    1.01
   9   5 -12    3.68    4.00
  -9  -5  12    1.88    1.82
   9   5 -11    7.52    5.66
  -9  -5  11    5.93    3.13
   9   5 -10    3.46    3.08
  -9  -5  10    5.57    2.88
   9   5  -9    9.72    4.75
  -9  -5   9   14.67    4.41
   9   5  -8    9.84    5.19
  -9  -5   8   20.98    5.08
   9   5  -7    1.18    2.28
  -9  -5   7    1.56    1.68
   9   5  -6    5.90    2.97
   9   5  -5    6.75    4.02
   9   5  -4   24.88    6.95
   9   5  -4   30.62    5.50
   9   5  -3   18.57    5.56
   9   5  -3   22.03    4.48
   9   5  -2    4.88    1.82
   9   5  -2    7.14    2.87
   9   5  -1    8.07    3.32
   9   5  -1   10.02    2.83
   9   5   0    2.71    1.62
   9   5   0    5.30    1.40
   9   5   0    7.59    2.35
   9   5   1   42.40    4.16
   9   5   1   48.11    6.03
   9   5   1   46.82    8.09
   9   5   2   16.85    4.54
   9   5   2   16.82    2.66
   9   5   2   16.60    3.45
  -9  -5  -2   13.62    4.85
   9   5   3   17.58    4.48
   9   5   3   16.92    3.49
  -9  -5  -3   16.20    5.05
   9   5   4   11.34    3.70
   9   5   4   11.71    2.88
  -9  -5  -4    8.95    4.11
   9   5   5    1.76    1.43
   9   5   5    1.19    0.76
  -9  -5  -5    1.25    1.59
   9   5   6   43.56    5.71
  -9  -5  -6   49.10    8.99
   9   5   6   48.29    6.76
   9   5   7   13.21    3.47
   9   5   7   11.85    3.09
  -9  -5  -7   13.72    4.88
   9   5   8   27.09    4.70
  -9  -5  -8   27.05    6.60
   9   5   8   27.59    4.75
   9   5   9    5.44    2.22
   9   5   9    5.65    2.28
  -9  -5  -9    5.31    2.77
   9   5  10    0.54    0.77
  -9  -5 -10    1.05    1.01
  -9  -5 -10    0.48    0.10
  -9  -5 -11   36.95    7.68
  -9  -5 -12    7.26    3.65
  -9  -5 -13   18.18    5.37
  -9  -5 -14    2.63    1.77
  -9  -5 -15   -2.37    0.95
  -9  -5 -16   22.49    6.45
  -9  -6  11    1.64    1.81
  -9  -6  10   13.64    4.60
  -9  -6   9    2.63    2.06
  -9  -6   9    2.67    1.57
  -9  -6   8   52.62    8.33
  -9  -6   8   61.09    9.09
  -9  -6   7    0.18    1.05
  -9  -6   7   -0.67    0.35
  -9  -6   6    1.99    1.70
  -9  -6   6    0.43    0.56
  -9  -6   5   16.18    4.98
   9   6  -4    0.59    0.06
  -9  -6   4    0.84    1.09
   9   6  -3   57.07    7.47
  -9  -6   3   50.63    9.26
   9   6  -2    0.67    1.03
  -9  -6   2    2.82    2.31
   9   6  -1    0.89    1.00
   9   6  -1    1.73    0.98
   9   6   0    6.23    2.83
   9   6   0    4.65    1.78
  -9  -6   0    4.37    2.85
   9   6   1   -0.49    0.51
   9   6   1    1.33    1.12
  -9  -6  -1    1.43    1.72
   9   6   2   46.63    6.06
  -9  -6  -2   45.57    9.11
   9   6   2   46.12    8.16
   9   6   3   10.76    3.50
   9   6   3   10.43    2.80
  -9  -6  -3    7.67    3.63
   9   6   4    1.44    1.29
   9   6   4    2.59    1.33
  -9  -6  -4    0.74    0.59
   9   6   5    1.30    1.26
   9   6   5   -0.34    0.78
  -9  -6  -5    0.68    1.56
   9   6   6    1.55    1.23
   9   6   6    3.09    1.43
  -9  -6  -6    3.45    2.59
   9   6   7   18.58    4.03
   9   6   7   18.39    3.83
  -9  -6  -7   20.11    5.94
   9   6   8   21.29    4.34
   9   6   8   19.51    4.05
  -9  -6  -8   19.63    5.82
   9   6   9   -0.59    0.51
   9   6   9   -1.69    1.43
  -9  -6  -9    1.30    1.75
   9   6  10   -0.43    0.18
   9   6  10    0.95    0.06
  -9  -6 -11    1.89    1.65
  -9  -6 -11    0.15    0.32
  -9  -6 -12    5.98    3.23
  -9  -6 -12    3.58    1.54
  -9  -6 -13   17.24    5.96
  -9  -6 -13   13.82    3.54
  -9  -6 -14    1.36    1.37
  -9  -7  10   16.93    5.32
  -9  -7   9   -0.37    0.97
  -9  -7   8   29.80    6.52
  -9  -7   8   29.98    6.17
  -9  -7   7   16.53    4.75
  -9  -7   7   15.67    4.54
  -9  -7   6    3.24    2.07
  -9  -7   6    3.35    2.62
  -9  -7   5   50.98    7.54
   9   7  -5   47.87    7.49
  -9  -7   5   47.43    8.56
   9   7  -4   -0.02    0.94
  -9  -7   4    0.58    0.75
   9   7  -3   76.01    8.96
  -9  -7   3   51.92    9.51
   9   7  -2   25.94    5.08
  -9  -7   2   12.87    4.59
   9   7  -1   25.04    5.00
  -9  -7   1   23.07    6.41
   9   7   0   68.50    7.90
  -9  -7   0   69.69   11.49
   9   7   1    9.01    2.78
  -9  -7  -1    8.67    3.98
   9   7   2  105.01    9.57
  -9  -7  -2  116.18   14.86
   9   7   3    7.68    3.27
   9   7   3    8.92    2.80
  -9  -7  -3   12.77    4.78
   9   7   4   40.68    5.93
  -9  -7  -4   38.48    8.47
   9   7   4   42.51    7.35
   9   7   5   48.48    6.48
  -9  -7  -5   53.96   10.41
   9   7   5   53.79    8.04
   9   7   6   19.80    4.58
   9   7   6   21.98    4.40
  -9  -7  -6   18.50    6.09
   9   7   7   87.81    8.90
  -9  -7  -7  102.98   14.26
   9   7   7   92.46    9.47
   9   7   8    1.62    1.52
   9   7   8   -0.14    1.00
  -9  -7  -8    0.88    1.98
   9   7   9   33.03    5.66
  -9  -7  -9   41.64    9.03
   9   7   9   42.52    5.81
   9   7  10   19.61    4.37
  -9  -7 -10   19.74    6.33
  -9  -7 -11   18.41    6.07
  -9  -7 -11   18.78    3.91
  -9  -7 -12   48.97    6.46
  -9  -7 -12   46.39    9.89
  -9  -7 -13   -1.86    1.97
  -9  -7 -13    1.31    0.87
  -9  -7 -14   16.64    4.27
  -9  -7 -15    4.10    2.45
  -9  -8   9    0.52    1.01
  -9  -8   8   13.07    4.34
  -9  -8   7    2.26    1.53
  -9  -8   7    1.07    1.48
  -9  -8   6   12.30    4.14
  -9  -8   6   14.65    4.60
   9   8  -5    1.10    1.16
  -9  -8   5   -0.27    1.22
  -9  -8   5    1.33    1.54
  -9  -8   4    2.10    1.76
   9   8  -4    0.65    0.31
  -9  -8   4    2.19    2.25
   9   8  -3   31.52    5.96
  -9  -8   3   28.20    7.17
   9   8  -2    0.06    0.47
  -9  -8   2   -0.27    0.88
   9   8  -1   15.46    3.97
  -9  -8   1    7.44    3.56
   9   8   0   -0.45    0.93
  -9  -8   0   -0.16    0.90
   9   8   1    5.82    2.39
  -9  -8  -1    5.66    3.53
   9   8   2   19.99    4.35
  -9  -8  -2   16.15    6.14
   9   8   3    0.67    0.69
  -9  -8  -3    1.92    2.64
   9   8   4    3.64    2.02
  -9  -8  -4    3.22    2.34
   9   8   5    2.32    1.69
  -9  -8  -5    1.83    2.00
   9   8   6   19.61    4.79
   9   8   6   10.71    3.05
  -9  -8  -6   17.88    6.13
   9   8   7    5.91    2.33
   9   8   7    8.82    2.87
  -9  -8  -7    8.86    4.11
   9   8   8    0.54    0.70
   9   8   8   -1.19    1.42
  -9  -8  -8    1.55    2.11
   9   8   9    1.29    0.93
   9   8   9    0.15    0.41
  -9  -8  -9    2.94    3.02
  -9  -8 -10    0.97    1.27
   9   8  10   -2.13    1.79
   9   8  11   13.05    3.85
  -9  -8 -12    1.88    1.59
  -9  -8 -13    1.50    1.45
  -9  -8 -14    0.66    0.86
  -9  -8 -15    2.35    1.68
  -9  -8 -16    8.95    3.37
  -9  -9   7    4.98    2.83
  -9  -9   6   -3.12    2.25
  -9  -9   6    1.22    1.41
  -9  -9   5   13.17    4.63
   9   9  -5   10.24    3.73
  -9  -9   5    9.60    3.51
  -9  -9   4    2.32    2.02
   9   9  -4    1.52    1.41
  -9  -9   4    2.10    1.89
   9   9  -3    9.74    3.54
  -9  -9   3   10.24    4.38
   9   9  -2    3.27    2.29
  -9  -9   2    5.05    3.01
   9   9  -1    1.49    1.48
  -9  -9   1   -0.07    0.48
   9   9   0    9.71    3.11
  -9  -9   0    5.20    3.53
   9   9   1    0.35    1.01
  -9  -9  -1    1.35    2.45
   9   9   2   12.25    3.51
  -9  -9  -2    7.41    4.35
   9   9   3    2.28    1.80
  -9  -9  -3    1.29    0.75
   9   9   4    0.70    0.71
  -9  -9  -4   -4.54    3.41
   9   9   5    9.51    3.16
  -9  -9  -5   11.19    5.32
  -9  -9  -6   -2.50    3.53
   9   9   6    1.01    1.29
   9   9   7   15.30    3.87
   9   9   8   -0.70    1.92
   9   9   8    2.51    1.70
   9   9   9    0.13    0.97
   9   9  10   12.95    3.78
   9   9  11   -1.93    1.49
   9   9  12   18.49    4.73
  -9  -9 -13    2.67    1.87
  -9  -9 -14   -0.39    1.47
  -9  -9 -15   11.62    3.87
  -9  -9 -16   -0.16    1.44
  -9 -10   6    2.95    2.24
   9  10  -5    0.06    0.66
  -9 -10   5    0.18    1.28
  -9 -10   4   13.65    4.08
   9  10  -4   15.56    4.29
   9  10  -3    1.34    1.28
   9  10  -2   15.45    4.38
   9  10  -1    0.31    1.04
   9  10   0   -1.83    1.44
   9  10   1    6.73    2.54
   9  10   2    0.27    0.66
   9  10   3   10.51    3.41
   9  10   4    5.26    2.31
   9  10   5    1.44    0.86
   9  10   6    4.47    2.50
   9  10   7    4.83    2.22
   9  10   8    3.00    1.31
   9  10   9   11.18    3.53
   9  10  10   -1.59    1.96
   9  10  11   -6.19    2.75
  -9 -10 -14    7.60    2.97
  -9 -11   4   46.61    8.09
   9  11  -2   24.38    5.66
   9  11  -1   17.11    4.54
   9  11   0   17.11    4.66
   9  11   1   83.49   10.08
   9  11   2    6.41    2.82
   9  11   3   52.25    7.80
   9  11   4   21.61    5.09
   9  11   5   27.19    5.67
   9  11   6   64.68    8.66
   9  11   7   11.09    3.61
   9  11   8   36.39    6.50
   9  11   9    4.69    2.69
  10  -1  -4    5.23    3.35
  10  -1  -3   51.17   10.03
  10  -1  -2   35.49    8.10
  10  -1  -1   21.43    6.38
  10  -1   0   90.11   12.58
  10  -1   1    4.66    3.32
  10  -1   2   72.37   10.98
  10  -1   3   15.35    5.15
  10  -1   4   29.20    6.85
  10  -1   5   53.90    9.34
  10  -1   6    3.49    2.64
  10  -1   7   41.96    7.91
  10  -1   8    4.96    2.92
  10  -1   9   18.80    5.24
  10   0  -7    1.82    2.17
  10   0  -6   31.88    8.14
  10   0  -5    4.11    3.09
  10   0  -4   10.72    4.76
  10   0  -3   -0.13    1.45
  10   0  -2   -0.29    1.84
  10   0  -1   10.81    3.98
  10   0   0   14.30    4.89
  10   0   1    0.40    1.78
  10   0   2    3.85    2.14
  10   0   3   -0.36    1.59
  10   0   4   -0.42    0.92
  10   0   5   27.44    6.27
  10   0   6    5.20    2.80
  10   0   7   14.25    4.63
  10   0   8    1.26    0.56
  10   0   9    3.51    1.58
  10   0  10    9.84    3.67
  10   1  -8   10.73    5.08
  10   1  -7    3.94    4.35
  10   1  -6    0.22    0.79
  10   1  -5    5.35    3.51
  10   1  -4    6.52    4.16
  10   1  -3    7.60    3.78
  10   1  -2    1.46    0.69
  10   1  -1    1.74    2.50
  10   1   0    5.62    3.14
  10   1   1    2.59    1.75
  10   1   2    3.22    2.46
  10   1   3    6.46    3.33
  10   1   4    0.65    0.71
  10   1   5    0.39    1.46
  10   1   6    5.21    2.76
  10   1   7    2.57    2.01
  10   1   8    1.57    1.58
  10   1   9    1.40    0.95
  10   1  10    1.90    1.43
 -10  -1 -11    1.13    1.33
 -10  -1 -12    3.91    2.41
  10   2  -9    4.53    3.65
  10   2  -8   19.53    6.96
  10   2  -7    2.13    2.71
  10   2  -6    0.46    1.66
  10   2  -5    6.50    3.67
  10   2  -4    2.94    3.01
  10   2  -3   16.51    5.38
  10   2  -2    2.76    2.19
  10   2  -1    2.67    2.20
  10   2   0    1.59    1.99
  10   2   1    1.85    1.73
  10   2   2    6.86    3.07
  10   2   3    3.92    2.36
  10   2   4    0.15    0.64
  10   2   5   -0.35    0.98
  10   2   6    6.29    2.94
  10   2   7   -0.86    1.24
  10   2   8    0.56    1.30
  10   2   9   10.93    3.70
  10   2  10    0.35    0.24
 -10  -2 -10    1.91    1.60
 -10  -2 -11   15.26    4.91
 -10  -2 -12   -2.25    2.61
 -10  -2 -13   -0.74    0.48
  10   3  -9   51.00   11.13
  10   3  -8    9.63    5.00
  10   3  -7   11.50    4.84
  10   3  -6   32.78    8.67
  10   3  -5    1.48    2.32
  10   3  -4  172.66   18.44
  10   3  -3    9.91    4.19
  10   3  -2   59.01   10.11
  10   3  -1   62.29   10.31
  10   3   0    4.11    3.04
  10   3   0    0.71    0.54
  10   3   1  217.51   12.84
  10   3   1  225.51   18.23
  10   3   2    3.63    2.86
  10   3   2   -1.03    1.38
  10   3   3  100.89    8.34
  10   3   3   97.58   11.29
  10   3   4   29.75    6.16
  10   3   4   16.50    3.25
  10   3   5   21.91    5.09
  10   3   5   15.95    3.24
  10   3   6  141.98    9.89
  10   3   6  162.38   13.53
  10   3   7   14.72    4.19
  10   3   7    9.28    2.66
 -10  -3  -8   66.09   10.69
  10   3   8   73.98    8.90
  10   3   9    0.40    1.16
 -10  -3  -9    3.31    1.81
  10   3  10   20.27    4.60
 -10  -3 -10   22.58    6.31
 -10  -3 -11   43.49    8.55
 -10  -3 -12   13.35    4.72
 -10  -3 -13   16.09    5.09
 -10  -3 -14   -0.62    1.83
  10   4  -9    1.47    0.62
  10   4  -8    1.83    2.72
  10   4  -7   17.37    6.62
  10   4  -6    0.36    1.01
  10   4  -5   24.00    7.14
  10   4  -4    1.63    1.67
  10   4  -3    8.58    4.56
  10   4  -2    4.52    2.65
  10   4  -2    6.87    2.78
  10   4  -1   18.59    5.62
  10   4  -1   17.80    3.93
  10   4   0    3.16    2.22
  10   4   0    4.95    1.99
  10   4   1   19.59    5.45
  10   4   1   23.77    4.36
  10   4   2    5.32    2.87
  10   4   2    3.48    1.62
  10   4   3    4.50    2.31
  10   4   3    3.84    1.68
  10   4   4   10.09    3.26
  10   4   4   18.59    3.78
  10   4   5    4.53    2.20
  10   4   5    2.61    1.21
  10   4   6   30.49    5.74
  10   4   6   30.20    4.84
 -10  -4  -6   46.67    9.21
  10   4   7    2.79    1.71
  10   4   7    1.51    1.24
 -10  -4  -7    3.14    2.42
  10   4   8   22.49    4.70
  10   4   8   17.61    3.84
 -10  -4  -8   20.96    6.14
  10   4   9    7.05    4.19
  10   4   9    2.69    1.58
 -10  -4  -9    4.62    3.12
  10   4  10   10.77    3.15
  10   4  10    8.95    2.80
 -10  -4 -10   16.33    5.33
  10   4  11   11.37    3.12
 -10  -4 -11   18.34    5.45
  10   4  12    2.26    1.65
 -10  -4 -12    4.16    2.23
 -10  -4 -13    7.30    3.70
 -10  -4 -14    2.60    2.64
 -10  -5  10    8.57    4.03
  10   5  -9   16.84    6.81
  10   5  -8   23.67    7.69
  10   5  -7    8.73    4.77
  10   5  -6   -2.38    2.34
  10   5  -5    4.04    2.75
  10   5  -4   11.90    4.78
  10   5  -3   17.89    6.15
  10   5  -3    7.28    2.75
  10   5  -2   18.72    5.93
  10   5  -2   16.09    4.03
  10   5  -1    5.04    1.62
  10   5  -1    6.13    3.09
  10   5   0    1.97    2.21
  10   5   0    1.07    0.86
  10   5   1    5.63    2.78
  10   5   1    4.24    2.14
  10   5   2    4.88    2.78
  10   5   2    3.81    1.62
  10   5   3    8.42    3.41
  10   5   3   11.10    2.96
 -10  -5  -3   17.25    5.74
  10   5   4   13.26    3.99
  10   5   4   14.72    3.56
 -10  -5  -4   13.37    5.23
  10   5   5    3.03    1.73
  10   5   5    4.05    1.94
 -10  -5  -5    4.32    1.81
  10   5   6    2.18    1.12
  10   5   6    3.83    1.74
 -10  -5  -6    4.41    3.22
  10   5   7    9.44    2.98
  10   5   7    4.15    1.88
 -10  -5  -7    6.42    3.60
  10   5   8    4.32    1.83
  10   5   8    2.34    1.61
 -10  -5  -8    2.04    2.29
  10   5   9    2.82    1.65
  10   5   9    3.32    1.84
 -10  -5  -9    2.56    2.16
  10   5  10    4.29    1.79
 -10  -5 -10    7.13    3.67
  10   5  11    2.56    0.83
 -10  -5 -11    6.64    3.33
  10   5  12   10.74    3.35
 -10  -5 -12   11.34    4.38
 -10  -5 -13    2.91    2.20
 -10  -5 -14   -0.85    0.42
 -10  -6   9   24.60    6.06
  10   6  -8    1.00    1.63
 -10  -6   8    0.67    1.80
 -10  -6   8   -2.16    2.42
  10   6  -7    2.75    3.23
 -10  -6   7    5.81    3.09
  10   6  -6    7.66    4.10
 -10  -6   6    4.13    2.84
  10   6  -5    0.79    1.68
 -10  -6   5    2.26    2.39
  10   6  -4   27.48    7.80
 -10  -6   4   26.89    7.19
  10   6  -3    3.74    0.40
  10   6  -3    5.56    2.62
 -10  -6   3    3.00    2.64
  10   6  -2    4.36    3.10
  10   6  -2    4.63    1.94
 -10  -6   2    1.38    1.75
  10   6  -1    0.37    2.15
  10   6  -1    0.36    0.78
 -10  -6   1   -2.15    2.15
  10   6   0    0.83    1.62
  10   6   0    2.11    1.45
 -10  -6   0    2.46    2.59
  10   6   1   15.42    5.48
  10   6   1   15.53    3.73
 -10  -6  -1   10.91    4.13
  10   6   2    2.95    1.93
  10   6   2    1.75    1.14
 -10  -6  -2    3.05    2.62
  10   6   3    1.99    2.14
  10   6   3    0.95    1.17
 -10  -6  -3   -0.19    0.91
  10   6   4    1.31    0.88
  10   6   4    0.30    0.51
 -10  -6  -4   -0.37    0.45
  10   6   5    0.74    1.17
  10   6   5    1.65    1.07
 -10  -6  -5    4.11    2.76
  10   6   6    1.34    1.35
  10   6   6    5.65    2.23
 -10  -6  -6    1.52    1.35
  10   6   7    1.48    0.81
  10   6   7   -0.64    0.63
 -10  -6  -7    2.62    2.70
  10   6   8    8.86    3.19
  10   6   8    7.96    2.72
 -10  -6  -8    5.81    3.85
  10   6   9    1.20    0.57
  10   6   9    0.56    1.14
 -10  -6  -9    3.88    3.64
  10   6  10    7.48    2.53
 -10  -6 -10   12.45    5.01
  10   6  11    0.22    0.75
 -10  -6 -11    4.15    2.71
  10   6  12    3.92    2.33
 -10  -6 -12    4.90    2.94
 -10  -6 -13    3.10    2.32
 -10  -7   8   43.29    8.16
 -10  -7   7    8.09    3.51
 -10  -7   7   10.50    4.15
 -10  -7   6    8.51    3.64
 -10  -7   5   35.46    7.94
  10   7  -4    4.16    2.38
 -10  -7   4    5.08    3.73
  10   7  -3  113.15   11.47
 -10  -7   3   92.83   13.64
  10   7  -2   13.63    5.41
  10   7  -2   13.32    3.72
 -10  -7   2   14.19    5.50
  10   7  -1   27.03    7.46
  10   7  -1   30.02    5.62
 -10  -7   1   35.31    8.36
  10   7   0   71.27    8.52
 -10  -7   0   65.87   11.87
  10   7   0   64.64   11.19
  10   7   1   -1.15    0.76
  10   7   1   -0.48    1.25
 -10  -7  -1    2.23    2.44
  10   7   2  185.06   13.35
 -10  -7  -2  192.23   20.37
  10   7   2  195.98   18.13
  10   7   3    3.85    2.67
  10   7   3    1.80    1.59
 -10  -7  -3    2.57    2.73
  10   7   4   62.94    7.72
 -10  -7  -4   67.49   12.18
  10   7   4   62.76    9.45
  10   7   5   40.18    6.28
 -10  -7  -5   44.24    9.72
  10   7   5   38.44    7.10
  10   7   6    9.30    3.29
  10   7   6    8.63    2.83
 -10  -7  -6    7.62    4.00
  10   7   7  116.52   10.79
 -10  -7  -7  139.85   17.33
  10   7   7  136.41   12.28
  10   7   8    3.09    2.09
  10   7   8    3.40    1.91
 -10  -7  -8    6.54    4.40
  10   7   9   37.28    6.26
 -10  -7  -9   50.75   10.53
  10   7  10    5.66    2.64
 -10  -7 -10    7.21    4.09
  10   7  11    5.95    2.40
 -10  -7 -11    9.53    4.15
  10   7  12   32.75    6.32
 -10  -7 -12   46.03   10.05
  10   7  13    8.74    3.34
 -10  -8   6   20.74    5.71
 -10  -8   5    8.46    3.59
  10   8  -4    1.95    1.93
 -10  -8   4    1.45    0.33
  10   8  -3    3.21    1.97
 -10  -8   3   -7.15    3.74
  10   8  -2   12.42    3.86
 -10  -8   2    4.71    2.67
  10   8  -1   13.74    3.97
 -10  -8   1    7.98    4.47
  10   8   0   27.27    5.59
 -10  -8   0   29.91    7.93
  10   8   1   -0.04    0.59
 -10  -8  -1   -2.82    2.50
  10   8   2   10.89    4.07
  10   8   2    4.87    1.89
 -10  -8  -2    6.77    4.29
  10   8   3    3.79    2.15
  10   8   3    5.44    2.73
 -10  -8  -3    0.81    1.29
  10   8   4   -2.18    2.74
  10   8   4    0.59    1.30
 -10  -8  -4   -0.23    1.55
  10   8   5   37.04    7.27
  10   8   5   35.69    6.02
 -10  -8  -5   41.08   10.08
  10   8   6   13.98    4.46
  10   8   6   11.08    3.69
 -10  -8  -6    9.89    4.89
  10   8   7   22.22    5.25
  10   8   7   14.60    3.81
 -10  -8  -7   27.19    7.80
  10   8   8    0.33    1.12
  10   8   8   -0.53    1.22
 -10  -8  -8   -2.56    3.14
  10   8   9    8.34    3.18
 -10  -8  -9    7.95    4.56
  10   8  10   15.33    4.13
 -10  -8 -10   15.53    6.11
  10   8  11   22.13    5.22
 -10  -8 -11   31.40    9.10
  10   8  12    6.60    2.50
  10   8  13    1.20    1.18
 -10  -9   5    4.57    2.54
  10   9  -4    2.43    1.58
 -10  -9   4    2.82    2.37
  10   9  -3   10.03    3.32
 -10  -9   3    7.98    4.06
  10   9  -2    4.13    2.54
 -10  -9   2    2.76    1.87
  10   9  -1    2.84    1.95
 -10  -9   1    1.94    1.90
  10   9   0    0.92    1.74
 -10  -9   0   -3.32    2.83
  10   9   1    0.05    0.44
 -10  -9  -1    0.60    1.22
  10   9   2    3.81    1.83
 -10  -9  -2   -3.88    3.14
  10   9   3    2.41    1.84
 -10  -9  -3    0.06    1.63
  10   9   4    0.58    0.86
 -10  -9  -4    1.00    0.59
  10   9   5    0.92    0.79
  10   9   5    0.40    0.13
 -10  -9  -5    1.04    1.31
  10   9   6    0.88    0.23
 -10  -9  -6   -0.31    1.10
  10   9   7    2.12    1.27
  10   9   7    0.16    0.61
  10   9   8    1.58    1.64
 -10  -9  -8   -1.75    2.37
 -10  -9  -9   -0.62    1.20
  10   9   9    1.08    0.94
  10   9  10   -4.93    2.44
  10   9  11    2.02    0.65
  10  10  -3   18.57    4.85
  10  10  -2    1.10    1.06
 -10 -10   1    1.34    2.63
  10  10  -1    0.77    0.68
 -10 -10   0    7.19    4.45
  10  10   0    7.55    3.04
 -10 -10  -1   -1.95    2.36
  10  10   1    2.60    2.08
 -10 -10  -2    4.13    0.58
  10  10   2   14.96    4.10
 -10 -10  -3   -0.35    1.70
  10  10   3   -0.02    0.25
  10  10   4    4.82    2.61
  10  10   5    6.24    2.59
  10  10   6    4.04    2.59
  10  10   7    5.99    3.10
  10  10   8   -1.13    1.54
  10  10   9    9.82    3.51
  10  11   2    1.84    1.74
  10  11   3   58.91    8.70
  10  11   4    8.62    3.43
  11   1  -1   -0.42    0.89
  11   1   0    7.49    4.00
  11   1   1    2.27    1.25
  11   1   2    0.71    0.24
  11   1   3    8.34    5.10
  11   1   4   -1.59    2.01
  11   1   5    1.15    0.96
  11   1   6    0.30    1.33
  11   1   7   -0.42    1.65
  11   1   8    0.41    0.66
  11   2  -4   15.79    5.80
  11   2  -3    3.18    3.14
  11   2  -2    3.79    3.23
  11   2  -1    1.61    1.42
  11   2   0    4.84    3.20
  11   2   1   32.15    7.39
  11   2   2    5.98    2.88
  11   2   3    5.11    2.47
  11   2   4    2.85    1.64
  11   2   5    6.71    3.45
  11   2   6   19.95    5.40
  11   2   7   14.54    4.53
  11   2   8   10.08    3.84
  11   2   9    2.60    1.74
  11   3  -5   -2.30    2.91
  11   3  -4    9.61    4.55
  11   3  -3    3.30    3.30
  11   3  -2    9.49    4.69
  11   3  -1   -2.65    2.78
  11   3   0    0.41    1.48
  11   3   1    4.36    2.16
  11   3   2    0.76    1.69
  11   3   3    0.49    0.65
  11   3   4    2.04    2.16
  11   3   5   -0.82    1.29
  11   3   6    0.93    0.68
  11   3   7    1.06    1.15
  11   3   8    1.29    1.00
 -11  -3  -8    2.46    3.09
  11   3   9    2.32    2.02
  11   4  -5    7.40    4.50
  11   4  -4   30.26    8.14
  11   4  -3    8.03    4.40
  11   4  -2   12.19    5.06
  11   4  -1    4.05    2.32
  11   4   0    1.00    3.01
  11   4   0   -0.83    1.46
  11   4   1   32.58    7.40
  11   4   1   33.57    5.53
  11   4   2    3.64    2.88
  11   4   2    4.08    2.01
  11   4   3   12.20    4.14
  11   4   3   17.61    3.94
  11   4   4    4.48    2.50
  11   4   5    0.12    1.25
  11   4   6   33.73    6.47
 -11  -4  -6   40.28    9.16
  11   4   7    0.96    1.27
 -11  -4  -7    0.05    0.90
  11   4   8   14.15    3.97
 -11  -4  -8   14.85    5.51
 -11  -4  -9    1.83    3.21
  11   5  -5    5.25    3.95
  11   5  -4    1.75    2.75
  11   5  -3   15.01    5.90
  11   5  -2    6.58    3.66
  11   5  -2    7.26    3.00
  11   5  -1    0.09    0.92
  11   5  -1    1.65    1.11
  11   5   0    3.81    2.72
  11   5   0    2.14    1.26
  11   5   1    4.24    3.10
  11   5   1    5.21    2.45
  11   5   2    9.81    4.17
  11   5   2   10.10    3.16
  11   5   3    7.98    3.26
  11   5   3   10.11    2.99
 -11  -5  -3   11.60    5.34
  11   5   4    3.35    2.45
  11   5   4   -0.20    1.10
 -11  -5  -4    2.03    2.07
  11   5   5    1.15    0.71
  11   5   5    1.32    0.77
 -11  -5  -5   -2.02    2.16
  11   5   6    2.56    1.60
  11   5   6    5.63    2.36
 -11  -5  -6    9.31    4.74
  11   5   7    2.66    2.26
  11   5   7    1.74    1.00
 -11  -5  -7    2.86    2.59
  11   5   8    7.14    2.90
  11   5   8    7.14    2.77
 -11  -5  -8    9.19    4.61
  11   5   9   -0.06    0.37
 -11  -5  -9   -1.43    1.15
 -11  -6   8   26.44    7.11
 -11  -6   7    2.22    1.01
 -11  -6   6    2.95    2.63
  11   6  -5   12.18    5.25
 -11  -6   5    9.92    4.88
  11   6  -4    3.61    3.81
 -11  -6   4    2.87    2.48
  11   6  -3   44.91   10.63
 -11  -6   3   24.76    7.30
  11   6  -2    3.40    3.01
  11   6  -2   -0.50    1.39
 -11  -6   2    0.75    1.95
  11   6  -1   15.47    5.62
  11   6  -1   13.57    3.93
 -11  -6   1   13.75    5.92
  11   6   0   26.06    7.14
  11   6   0   18.91    4.52
 -11  -6   0   24.43    7.29
  11   6   1   12.19    5.11
  11   6   1   14.35    3.65
 -11  -6  -1   11.25    5.22
  11   6   2   51.97    7.31
  11   6   2   49.73    9.11
 -11  -6  -2   42.56    9.95
  11   6   3    2.90    3.02
  11   6   3    1.73    1.35
 -11  -6  -3    5.71    3.29
  11   6   4   18.82    5.31
  11   6   4   19.16    4.25
 -11  -6  -4   12.56    5.57
  11   6   5    9.96    3.66
  11   6   5   12.55    3.36
 -11  -6  -5   12.29    5.16
  11   6   6   17.89    4.67
  11   6   6   20.18    4.60
 -11  -6  -6   20.93    6.62
  11   6   7   31.49    5.64
 -11  -6  -7   36.80    9.15
  11   6   7   39.37    6.89
  11   6   8    3.40    2.18
  11   6   8    6.60    2.92
 -11  -6  -8    8.37    4.25
  11   6   9   12.97    3.79
 -11  -6  -9   13.00    5.32
  11   6  10   -1.73    1.39
  11   6  11   16.63    4.30
  11   6  12    8.23    3.25
  11   6  13    4.21    2.48
 -11  -7   7    0.43    0.89
 -11  -7   6    3.99    3.00
 -11  -7   5   -2.41    2.21
  11   7  -4   -5.62    4.34
 -11  -7   4    0.68    1.09
  11   7  -3   12.41    5.84
  11   7  -3   15.84    4.46
 -11  -7   3   15.42    5.69
  11   7  -2    0.82    1.36
  11   7  -2   -1.41    1.59
 -11  -7   2    0.58    1.14
  11   7  -1    8.95    4.29
  11   7  -1    6.44    2.72
 -11  -7   1    8.29    4.74
  11   7   0   -0.96    1.26
  11   7   0    1.91    1.18
 -11  -7   0    1.54    2.01
  11   7   1    1.20    0.17
  11   7   1    2.64    1.46
 -11  -7  -1    5.38    4.11
  11   7   2    6.67    2.89
  11   7   2   12.07    3.63
 -11  -7  -2   18.53    6.61
  11   7   3   -0.37    1.23
  11   7   3    0.00    1.04
 -11  -7  -3    0.16    1.01
  11   7   4    1.41    0.96
  11   7   4    2.20    1.41
 -11  -7  -4    0.65    0.71
  11   7   5    3.49    2.27
  11   7   5    1.24    1.32
 -11  -7  -5    0.97    2.26
  11   7   6    4.66    2.29
  11   7   6    5.57    2.36
 -11  -7  -6    4.82    2.87
  11   7   7    6.32    2.66
  11   7   7    7.31    2.75
 -11  -7  -7    4.12    2.11
  11   7   8    0.93    1.88
 -11  -7  -8   -0.07    1.29
  11   7   9   -2.15    1.86
  11   7  10   -2.04    1.56
  11   7  11    7.88    3.23
  11   7  12    1.79    1.65
  11   7  13   -0.54    1.56
 -11  -8   6   -0.27    0.37
 -11  -8   5    5.94    3.46
  11   8  -4    2.46    2.04
 -11  -8   4    1.72    1.52
  11   8  -3   10.35    5.12
  11   8  -3   12.00    3.65
 -11  -8   3   10.28    4.60
  11   8  -2    8.95    4.45
  11   8  -2    2.14    1.69
  11   8  -1    2.28    2.12
  11   8  -1    0.96    1.13
 -11  -8   1   -1.91    2.12
  11   8   0    2.86    3.39
  11   8   0    5.21    2.41
 -11  -8   0    4.65    2.75
  11   8   1   -1.74    1.91
  11   8   1    0.99    1.36
 -11  -8  -1    0.66    0.59
  11   8   2   15.62    5.71
  11   8   2   12.68    3.71
 -11  -8  -2   10.50    4.51
  11   8   3    1.82    2.38
  11   8   3    0.75    0.15
 -11  -8  -3   -0.19    2.78
  11   8   4    1.40    2.09
  11   8   4    1.28    2.01
 -11  -8  -4    2.55    2.73
  11   8   5    4.50    3.02
  11   8   5    4.56    2.30
 -11  -8  -5    3.55    2.83
  11   8   6    2.02    2.50
  11   8   6    1.69    1.32
 -11  -8  -6   -0.33    0.58
  11   8   7   17.40    4.65
  11   8   7   14.15    3.99
 -11  -8  -7   14.61    6.30
  11   8   8    1.66    1.89
  11   8   9    2.03    1.86
  11   8  10    4.75    2.60
  11   8  11   -3.38    2.11
 -11  -9   5   -1.41    1.71
 -11  -9   4    9.02    4.21
  11   9  -3    0.28    1.25
 -11  -9   3    3.02    3.17
  11   9  -2   10.46    3.86
 -11  -9   2   16.21    6.29
  11   9  -1    0.54    0.48
 -11  -9   1    2.89    3.40
  11   9   0   -1.44    0.63
 -11  -9   0    3.60    3.40
  11   9   1   -0.93    2.96
  11   9   1    7.99    3.25
 -11  -9  -1    4.12    3.28
  11   9   2   -0.03    0.91
  11   9   2    0.64    0.86
 -11  -9  -2    2.29    2.52
  11   9   3    5.96    3.47
  11   9   3    6.56    2.83
 -11  -9  -3   10.02    5.71
  11   9   4    1.61    1.20
  11   9   4    5.86    2.37
 -11  -9  -4    3.52    0.47
  11   9   5   -0.55    0.75
  11   9   5   -0.67    0.64
 -11  -9  -5   -1.78    4.05
  11   9   6   -0.01    1.28
  11   9   6    1.94    1.73
 -11  -9  -6    2.49    2.69
  11   9   7    6.91    3.22
  11   9   8    2.42    1.73
  11   9   9    7.78    2.89
 -11 -10   3   11.79    6.00
 -11 -10   2   14.58    6.20
 -11 -10   1    5.35    3.85
 -11 -10   0   11.15    5.69
 -11 -10  -1   29.32    9.78
  11  10   2   13.76    4.19
 -11 -10  -2   16.08    7.27
  11  10   3   34.24    6.56
 -11 -10  -3   32.74   10.61
  11  10   4   -5.39    3.25
  11  10   4    4.40    2.22
  11  10   5   28.99    7.17
  11  10   5   28.02    6.13
  12   3   4    4.92    2.44
  12   3   5    0.97    1.34
  12   3   6   22.22    5.92
  12   4   1    4.94    3.09
  12   4   2    1.70    2.22
  12   4   3   -0.43    0.42
  12   4   4    3.21    2.50
  12   4   5    0.27    0.74
  12   4   6    0.70    1.13
  12   4   7    1.57    2.14
  12   5   0    4.73    3.49
  12   5   1    1.61    2.39
  12   5   2    1.03    1.71
  12   5   3    0.02    1.84
  12   5   4   -1.25    2.16
  12   5   5   -0.14    1.56
  12   5   6    1.69    1.75
  12   5   7   -0.26    0.46
  12   6  -1   22.76    5.17
  12   6   0   20.66    6.76
  12   6   0   17.20    4.54
  12   6   1   15.67    5.72
  12   6   1    6.19    2.61
  12   6   2   72.85    9.08
  12   6   2   89.08   12.90
  12   6   3    5.99    4.09
  12   6   3    2.51    1.91
  12   6   4   29.75    6.99
  12   6   4   30.70    5.90
  12   6   5    6.63    3.37
  12   6   5    8.52    3.00
  12   6   6   15.90    4.91
  12   6   7   43.73    7.72
 -12  -7   3    1.13    1.99
  12   7  -2    9.07    3.73
  12   7  -1    0.62    0.51
  12   7   0   23.32    7.65
  12   7   0   16.10    4.63
  12   7   1   -0.09    0.78
  12   7   1    1.15    1.18
  12   7   2   10.62    4.54
  12   7   2    8.64    3.25
  12   7   3    1.10    0.96
  12   7   3    2.32    1.39
  12   7   4    5.39    3.61
  12   7   4    3.29    2.14
  12   7   5   13.11    4.79
  12   7   5   11.35    3.67
  12   7   6    5.48    2.86
  12   7   6    8.04    2.97
  12   7   7    7.77    3.27
  12   7   8    4.14    2.61
  12   7   9   11.90    3.81
  12   8  -2    1.68    0.86
  12   8  -1    3.46    1.85
  12   8   0    0.47    1.27
  12   8   1   -0.29    0.76
  12   8   1    1.56    1.61
  12   8   2    7.61    4.00
  12   8   2    2.40    1.60
  12   8   3   -0.69    2.09
  12   8   3    0.63    1.25
  12   8   4    1.04    2.09
  12   8   4    0.88    1.24
  12   8   5   -0.54    0.94
  12   8   5   -0.17    0.64
  12   8   6    5.91    3.25
  12   8   6    1.75    2.10
  12   8   7    3.55    2.36
  12   8   8    0.65    1.30
  12   9   2    3.74    3.13
  12   9   3    5.04    3.15
  12   9   4    4.59    2.95
  12   9   5    1.73    1.59
   0   0   0    0.00    0.00
;
_shelx_hkl_checksum              77233
loop_
_space_group_symop_operation_xyz
'x, y, z'
'-x, -y, -z'
loop_
_atom_site_label
_atom_site_type_symbol
_atom_site_fract_x
_atom_site_fract_y
_atom_site_fract_z
_atom_site_U_iso_or_equiv
_atom_site_adp_type
_atom_site_occupancy
_atom_site_site_symmetry_order
_atom_site_calc_flag
_atom_site_refinement_flags_posn
_atom_site_refinement_flags_adp
Pb1 Pb -0.12789(7) -0.69524(6) 0.28922(4) 0.0312(2) Uani 1 1 d . .
Pb2 Pb 0.12874(7) -1.18899(6) 0.29855(4) 0.0313(2) Uani 1 1 d . .
I1 I -0.50136(14) -0.45420(15) 0.30583(10) 0.0681(5) Uani 1 1 d . .
I2 I -0.00201(16) -0.44412(13) 0.31464(10) 0.0535(4) Uani 1 1 d . .
I3 I 0.25433(12) -0.92719(12) 0.27524(8) 0.0391(3) Uani 1 1 d . .
I4 I -0.24169(12) -0.95048(11) 0.27595(8) 0.0392(3) Uani 1 1 d . .
I5 I -0.1271(2) -0.7600(2) 0.49849(9) 0.0811(5) Uani 1 1 d . .
I6 I -0.13109(13) -0.60256(13) 0.09668(7) 0.0448(3) Uani 1 1 d . .
I7 I 0.15329(12) -1.18430(13) 0.10060(7) 0.0384(3) Uani 1 1 d . .
N1 N 0.270(2) -0.8377(19) -0.0036(17) 0.093(8) Uani 1 1 d . .
H1 H 0.2187 -0.8610 0.0398 0.111 Uiso 1 1 calc R U
N2 N 0.342(2) -0.7935(19) -0.1337(15) 0.077(5) Uani 1 1 d . U
H2 H 0.3456 -0.7809 -0.1883 0.093 Uiso 1 1 calc R U
N3 N 0.2587(18) -0.5861(16) 0.1300(10) 0.050(4) Uani 1 1 d . .
H3A H 0.1929 -0.5923 0.0939 0.076 Uiso 1 1 calc R U
H3B H 0.2239 -0.4911 0.1377 0.076 Uiso 1 1 calc R U
H3C H 0.2582 -0.6427 0.1794 0.076 Uiso 1 1 calc R U
C1 C 0.4011(17) -0.8060(17) -0.0033(13) 0.042(4) Uani 1 1 d . U
C2 C 0.4429(16) -0.7837(15) -0.0832(10) 0.027(3) Uani 1 1 d . U
H2A H 0.5322 -0.7636 -0.1016 0.032 Uiso 1 1 calc R U
C3 C 0.237(2) -0.8249(19) -0.0871(16) 0.049(5) Uani 1 1 d . U
H3 H 0.1506 -0.8373 -0.1068 0.059 Uiso 1 1 calc R U
C4 C 0.493(2) -0.796(2) 0.0712(13) 0.048(4) Uiso 1 1 d . .
H4A H 0.4871 -0.8662 0.1202 0.058 Uiso 1 1 calc R U
H4B H 0.6067 -0.8259 0.0556 0.058 Uiso 1 1 calc R U
C5 C 0.423(2) -0.6386(19) 0.0956(12) 0.045(4) Uani 1 1 d . .
H5A H 0.4945 -0.6376 0.1371 0.054 Uiso 1 1 calc R U
H5B H 0.4244 -0.5684 0.0456 0.054 Uiso 1 1 calc R U
C8 C 0.321(6) -0.621(6) 0.496(4) 0.191(15) Uiso 1 1 d . U
N4 N 0.486(7) -0.931(5) 0.498(4) 0.222(15) Uiso 1 1 d . U
C7 C 0.302(6) -0.869(6) 0.496(3) 0.191(16) Uiso 1 1 d . U
C6 C 0.484(8) -0.789(8) 0.494(4) 0.216(15) Uiso 1 1 d . U
N5 N 0.333(6) -0.742(6) 0.502(3) 0.209(16) Uiso 1 1 d . U
loop_
_atom_site_aniso_label
_atom_site_aniso_U_11
_atom_site_aniso_U_22
_atom_site_aniso_U_33
_atom_site_aniso_U_23
_atom_site_aniso_U_13
_atom_site_aniso_U_12
Pb1 0.0359(4) 0.0323(4) 0.0248(4) -0.0037(3) 0.0002(2) -0.0143(3)
Pb2 0.0356(4) 0.0325(4) 0.0255(4) -0.0032(3) -0.0006(3) -0.0145(3)
I1 0.0399(7) 0.0586(8) 0.0712(11) 0.0010(8) 0.0062(6) 0.0063(6)
I2 0.0764(9) 0.0468(7) 0.0551(9) -0.0126(6) 0.0057(6) -0.0421(7)
I3 0.0359(6) 0.0361(6) 0.0450(8) -0.0003(5) -0.0005(5) -0.0171(5)
I4 0.0348(6) 0.0350(6) 0.0489(8) -0.0056(5) -0.0061(5) -0.0151(5)
I5 0.1134(13) 0.1153(14) 0.0206(9) -0.0007(9) -0.0021(8) -0.0575(11)
I6 0.0487(7) 0.0498(7) 0.0218(7) -0.0007(5) -0.0016(5) -0.0091(5)
I7 0.0411(6) 0.0574(7) 0.0249(7) -0.0063(5) 0.0027(4) -0.0291(5)
N1 0.056(11) 0.046(10) 0.16(3) -0.026(13) 0.060(13) -0.015(9)
N2 0.066(11) 0.061(10) 0.093(15) -0.018(10) 0.004(9) -0.014(8)
N3 0.075(10) 0.049(8) 0.030(10) -0.012(7) 0.025(8) -0.032(8)
C1 0.020(7) 0.032(8) 0.066(11) -0.013(8) 0.002(7) -0.004(6)
C2 0.021(7) 0.030(7) 0.032(9) -0.007(7) 0.004(6) -0.012(6)
C3 0.044(10) 0.039(9) 0.079(14) -0.035(9) 0.005(8) -0.024(7)
C5 0.065(11) 0.044(9) 0.041(12) 0.000(9) -0.008(9) -0.039(9)
loop_
_atom_type_symbol
_atom_type_description
_atom_type_scat_dispersion_real
_atom_type_scat_dispersion_imag
_atom_type_scat_source
C C 0.0033 0.0016 'International Tables Vol C Tables 4.2.6.8 and 6.1.1.4'
H H 0.0000 0.0000 'International Tables Vol C Tables 4.2.6.8 and 6.1.1.4'
N N 0.0061 0.0033 'International Tables Vol C Tables 4.2.6.8 and 6.1.1.4'
I I -0.4742 1.8119 'International Tables Vol C Tables 4.2.6.8 and 6.1.1.4'
Pb Pb -3.3944 10.1111 'International Tables Vol C Tables 4.2.6.8 and 6.1.1.4'
loop_
_geom_angle_atom_site_label_1
_geom_angle_atom_site_label_2
_geom_angle_atom_site_label_3
_geom_angle
_geom_angle_site_symmetry_1
_geom_angle_site_symmetry_3
I6 Pb1 I4 92.73(4) . .
I6 Pb1 I1 91.57(4) . .
I4 Pb1 I1 91.23(4) . .
I6 Pb1 I3 88.90(3) . .
I4 Pb1 I3 91.42(3) . .
I1 Pb1 I3 177.28(4) . .
I6 Pb1 I2 90.62(4) . .
I4 Pb1 I2 176.40(4) . .
I1 Pb1 I2 89.98(4) . .
I3 Pb1 I2 87.34(3) . .
I6 Pb1 I5 173.97(4) . .
I4 Pb1 I5 92.92(4) . .
I1 Pb1 I5 86.19(4) . .
I3 Pb1 I5 93.08(4) . .
I2 Pb1 I5 83.78(4) . .
I7 Pb2 I4 88.78(3) . .
I7 Pb2 I5 172.59(4) . 2_536
I4 Pb2 I5 96.36(4) . 2_536
I7 Pb2 I2 88.59(3) . 1_545
I4 Pb2 I2 87.07(3) . 1_545
I5 Pb2 I2 86.35(4) 2_536 1_545
I7 Pb2 I3 89.51(3) . .
I4 Pb2 I3 91.83(3) . .
I5 Pb2 I3 95.65(4) 2_536 .
I2 Pb2 I3 177.82(4) 1_545 .
I7 Pb2 I1 86.28(4) . 1_645
I4 Pb2 I1 173.11(4) . 1_645
I5 Pb2 I1 88.14(4) 2_536 1_645
I2 Pb2 I1 88.02(4) 1_545 1_645
I3 Pb2 I1 92.92(4) . 1_645
Pb1 I1 Pb2 172.55(6) . 1_465
Pb2 I2 Pb1 168.37(5) 1_565 .
Pb2 I3 Pb1 86.38(3) . .
Pb1 I4 Pb2 88.52(3) . .
Pb2 I5 Pb1 178.03(6) 2_536 .
C1 N1 C3 105.8(18) . .
C3 N2 C2 107(2) . .
C2 C1 N1 105.8(17) . .
C2 C1 C4 123.4(15) . .
N1 C1 C4 130.8(19) . .
C1 C2 N2 111.1(15) . .
N2 C3 N1 109.8(18) . .
C5 C4 C1 113.1(15) . .
N3 C5 C4 115.1(13) . .
N5 C8 C6 47(4) . .
N4 N4 C6 170(9) 2_636 .
N4 N4 C7 97(6) 2_636 .
C6 N4 C7 93(4) . .
N4 N4 N5 146(7) 2_636 .
C6 N4 N5 43(3) . .
C7 N4 N5 50(3) . .
N5 C7 N4 76(3) . .
N5 C6 N4 86(5) . .
N5 C6 C8 43(4) . .
N4 C6 C8 129(5) . .
C8 N5 C6 90(6) . .
C8 N5 C7 163(7) . .
C6 N5 C7 104(5) . .
C8 N5 N4 141(6) . .
C6 N5 N4 50(4) . .
C7 N5 N4 54(3) . .
loop_
_geom_bond_atom_site_label_1
_geom_bond_atom_site_label_2
_geom_bond_distance
_geom_bond_site_symmetry_2
Pb1 I6 3.0582(13) .
Pb1 I4 3.1769(11) .
Pb1 I1 3.2258(12) .
Pb1 I3 3.2534(11) .
Pb1 I2 3.2633(11) .
Pb1 I5 3.2989(15) .
Pb2 I7 3.1515(12) .
Pb2 I4 3.1798(11) .
Pb2 I5 3.1992(15) 2_536
Pb2 I2 3.2069(11) 1_545
Pb2 I3 3.2286(11) .
Pb2 I1 3.2560(12) 1_645
I1 Pb2 3.2560(12) 1_465
I2 Pb2 3.2068(11) 1_565
I5 Pb2 3.1993(15) 2_536
N1 C1 1.35(2) .
N1 C3 1.37(3) .
N2 C3 1.27(3) .
N2 C2 1.32(2) .
N3 C5 1.45(2) .
C1 C2 1.31(2) .
C1 C4 1.55(2) .
C4 C5 1.53(2) .
C8 N5 1.15(6) .
C8 C6 1.70(8) .
N4 N4 1.28(8) 2_636
N4 C6 1.40(6) .
N4 C7 1.51(6) .
N4 N5 1.81(6) .
C7 N5 1.44(6) .
C6 N5 1.25(6) .
loop_
_geom_torsion_atom_site_label_1
_geom_torsion_atom_site_label_2
_geom_torsion_atom_site_label_3
_geom_torsion_atom_site_label_4
_geom_torsion
_geom_torsion_site_symmetry_1
C3 N1 C1 C2 -2.8(18) .
C3 N1 C1 C4 177.5(16) .
N1 C1 C2 N2 2.6(18) .
C4 C1 C2 N2 -177.7(15) .
C3 N2 C2 C1 -1(2) .
C2 N2 C3 N1 -1(2) .
C1 N1 C3 N2 2(2) .
C2 C1 C4 C5 90.5(19) .
N1 C1 C4 C5 -90(2) .
C1 C4 C5 N3 66(2) .
N4 N4 C7 N5 174(7) 2_636
C6 N4 C7 N5 -6(5) .
C7 N4 C6 N5 7(6) .
C7 N4 C6 C8 5(8) .
N5 N4 C6 C8 -2(5) .
N5 C8 C6 N4 4(7) .
C6 C8 N5 C7 -144(24) .
C6 C8 N5 N4 -3(7) .
N4 C6 N5 C8 -177(6) .
N4 C6 N5 C7 -8(6) .
C8 C6 N5 C7 170(8) .
C8 C6 N5 N4 177(6) .
N4 C7 N5 C8 150(22) .
N4 C7 N5 C6 7(6) .
N4 N4 N5 C8 -178(13) 2_636
C6 N4 N5 C8 4(9) .
C7 N4 N5 C8 -167(10) .
N4 N4 N5 C6 178(15) 2_636
C7 N4 N5 C6 -171(7) .
N4 N4 N5 C7 -11(12) 2_636
C6 N4 N5 C7 171(7) .
