#------------------------------------------------------------------------------
#$Date: 2017-02-04 00:26:14 +0200 (Sat, 04 Feb 2017) $
#$Revision: 191252 $
#$URL: file:///home/coder/svn-repositories/cod/cif/4/34/51/4345104.cif $
#------------------------------------------------------------------------------
#
# This file is available in the Crystallography Open Database (COD),
# http://www.crystallography.net/
#
# All data on this site have been placed in the public domain by the
# contributors.
#
data_4345104
loop_
_publ_author_name
'Mazzuca, Lidia'
'Ca\~nadillas-Delgado, Laura'
'Rodr\'iguez-Velamaz\'an, J Alberto'
'Fabelo, Oscar'
'Scarrozza, Marco'
'Stroppa, Alessandro'
'Picozzi, Silvia'
'Zhao, Jiong-Peng'
'Bu, Xian-He'
'Rodr\'iguez-Carvajal, Juan'
_publ_section_title
;
 Magnetic Structures of Heterometallic M(II)-M(III) Formate Compounds.
;
_journal_issue                   1
_journal_name_full               'Inorganic chemistry'
_journal_page_first              197
_journal_page_last               207
_journal_paper_doi               10.1021/acs.inorgchem.6b01866
_journal_volume                  56
_journal_year                    2017
_chemical_formula_sum            'C8 H14 Co Fe N O12'
_chemical_formula_weight         430.97
_chemical_name_systematic
;
 ?
;
_space_group_crystal_system      trigonal
_space_group_IT_number           163
_space_group_name_Hall           '-P 3 2c'
_space_group_name_H-M_alt        'P -3 1 c'
_symmetry_space_group_name_Hall  '-P 3 2c'
_symmetry_space_group_name_H-M   'P -3 1 c'
_atom_sites_solution_hydrogens   geom
_audit_creation_method           SHELXL-2014
_cell_angle_alpha                90
_cell_angle_beta                 90
_cell_angle_gamma                120
_cell_formula_units_Z            2
_cell_length_a                   8.21360(10)
_cell_length_b                   8.21360(10)
_cell_length_c                   13.6935(2)
_cell_measurement_reflns_used    6373
_cell_measurement_temperature    95(2)
_cell_measurement_theta_max      32.462
_cell_measurement_theta_min      5.581
_cell_volume                     800.041(18)
_computing_cell_refinement       'CrysAlis PRO software program'
_computing_data_collection       'CrysAlis PRO software program'
_computing_data_reduction        'CrysAlis PRO software program'
_computing_molecular_graphics    'Mercury (McRae, 2006)'
_computing_publication_material  'WINGX (Farrugia, 1999)'
_computing_structure_refinement  'SHELXL-2014 (Sheldrick, 2014)'
_computing_structure_solution    'SHELXL-2014 (Sheldrick, 2014)'
_diffrn_ambient_temperature      95(2)
_diffrn_measured_fraction_theta_full 0.809
_diffrn_measured_fraction_theta_max 0.862
_diffrn_measurement_device_type  'CRISTAL beamline, SOLEIL synchrotron'
_diffrn_radiation_type           synchrotron
_diffrn_radiation_wavelength     0.66951
_diffrn_reflns_av_R_equivalents  0.0790
_diffrn_reflns_av_unetI/netI     0.0304
_diffrn_reflns_Laue_measured_fraction_full 0.809
_diffrn_reflns_Laue_measured_fraction_max 0.862
_diffrn_reflns_limit_h_max       12
_diffrn_reflns_limit_h_min       -12
_diffrn_reflns_limit_k_max       13
_diffrn_reflns_limit_k_min       -13
_diffrn_reflns_limit_l_max       19
_diffrn_reflns_limit_l_min       -19
_diffrn_reflns_number            9172
_diffrn_reflns_point_group_measured_fraction_full 0.809
_diffrn_reflns_point_group_measured_fraction_max 0.862
_diffrn_reflns_theta_full        23.685
_diffrn_reflns_theta_max         32.462
_diffrn_reflns_theta_min         5.581
_diffrn_source                   synchrotron
_exptl_absorpt_coefficient_mu    1.616
_exptl_absorpt_correction_T_max  1.00000
_exptl_absorpt_correction_T_min  0.96143
_exptl_absorpt_correction_type   multi-scan
_exptl_absorpt_process_details
;
CrysAlisPro, Agilent Technologies,
Version 1.171.37.33 (release 27-03-2014 CrysAlis171 .NET)
(compiled Mar 27 2014,17:12:48)
Empirical absorption correction using spherical harmonics,
 implemented in SCALE3 ABSPACK scaling algorithm.
;
_exptl_crystal_colour            red
_exptl_crystal_density_diffrn    1.789
_exptl_crystal_description       prism
_exptl_crystal_F_000             436
_exptl_crystal_size_max          0.09
_exptl_crystal_size_mid          0.07
_exptl_crystal_size_min          0.06
_refine_diff_density_max         0.557
_refine_diff_density_min         -0.520
_refine_diff_density_rms         0.110
_refine_ls_extinction_method     none
_refine_ls_goodness_of_fit_ref   1.230
_refine_ls_hydrogen_treatment    refU
_refine_ls_matrix_type           full
_refine_ls_number_parameters     41
_refine_ls_number_reflns         1005
_refine_ls_number_restraints     0
_refine_ls_restrained_S_all      1.230
_refine_ls_R_factor_all          0.0447
_refine_ls_R_factor_gt           0.0431
_refine_ls_shift/su_max          0.000
_refine_ls_shift/su_mean         0.000
_refine_ls_structure_factor_coef Fsqd
_refine_ls_weighting_details
'w=1/[\s^2^(Fo^2^)+(0.0938P)^2^+0.1936P] where P=(Fo^2^+2Fc^2^)/3'
_refine_ls_weighting_scheme      calc
_refine_ls_wR_factor_gt          0.1371
_refine_ls_wR_factor_ref         0.1467
_reflns_Friedel_coverage         0.000
_reflns_number_gt                962
_reflns_number_total             1005
_reflns_threshold_expression     'I > 2\s(I)'
_cod_data_source_file            FeCo_95K.cif
_cod_data_source_block           shelx
_cod_original_cell_volume        800.04(2)
_cod_database_code               4345104
_shelx_space_group_comment
;
The symmetry employed for this shelxl refinement is uniquely defined
by the following loop, which should always be used as a source of
symmetry information in preference to the above space-group names.
They are only intended as comments.
;
_shelxl_version_number           2014-3
_shelx_res_file
;
TITL FeCo_warm6 in P-31c
CELL  0.66951   8.2136   8.2136  13.6935   90.000   90.000  120.000
ZERR     2.00   0.0001   0.0001   0.0002    0.000    0.000    0.000
LATT   1
SYMM  - Y,   X - Y,   Z
SYMM  - X + Y, - X,   Z
SYMM  - Y, - X, 1/2 - Z
SYMM  - X + Y,   Y, 1/2 - Z
SYMM    X,   X - Y, 1/2 - Z
SFAC  C        2.31000 20.84392  1.02000 10.20751   1.58860   0.56870 =
         0.86500  51.65125   0.21560   0.003   0.001     5.315   0.770  12.011
SFAC  H        0.49300 10.51091  0.32291 26.12573   0.14019   3.14236 =
         0.04081  57.79977   0.00304   0.000   0.000     0.000   0.320   1.008
SFAC  N       12.21261  0.00570  3.13220  9.89331   2.01250  28.99754 =
         1.16630   0.58260 -11.52901   0.005   0.003    10.897   0.700  14.007
SFAC  O        3.04850 13.27711  2.28680  5.70111   1.54630   0.32390 =
         0.86700  32.90894   0.25080   0.009   0.005    20.072   0.660  15.999
SFAC  FE      11.76951  4.76111  7.35731  0.30720   3.52220  15.35351 =
         2.30450  76.88058   1.03690   0.338   0.760  2867.351   1.260  55.845
SFAC  CO      12.28411  4.27910  7.34091  0.27840   4.00340  13.53591 =
         2.34880  71.16927   1.01180   0.346   0.876  3304.255   1.260  58.933
UNIT  16   28   2    24   2    2
MERG   2
FMAP   2
PLAN   20
ACTA
L.S.   8
WGHT    0.093800    0.193600
FVAR      24.16689
CO1   6    0.666667    0.333333    0.250000    10.16667    0.01164    0.01164 =
         0.01735    0.00000    0.00000    0.00582
FE1   5    1.000000    0.000000    0.000000    10.16667    0.01084    0.01084 =
         0.01523    0.00000    0.00000    0.00542
O1    4    0.883188    0.343125    0.168165    11.00000    0.02183    0.02064 =
         0.03365   -0.00703    0.00656    0.00989
O2    4    1.012798    0.208809    0.082923    11.00000    0.01907    0.01974 =
         0.02808   -0.00413    0.00277    0.01058
C1    1    0.873539    0.209733    0.120725    11.00000    0.01870    0.02028 =
         0.02514   -0.00525   -0.00035    0.01148
AFIX  43
H1    2    0.755764    0.103590    0.112587    11.00000    0.03732
AFIX   0
C2    1    1.333333    0.666667    0.152152    10.33333    0.03293    0.03293 =
         0.66977    0.00000    0.00000    0.01647
N1    3    1.278161    0.556323    0.250000    10.16700    0.04274    0.02054 =
         0.44489    0.00000   -0.10052    0.01027
HKLF    4  1.0  0.00  1.00  0.00  1.00  0.00  0.00  0.00  0.00 -1.00

REM  FeCo_warm6 in P-31c
REM R1 =  0.0431 for     962 Fo > 4sig(Fo)  and  0.0447 for all    1005 data
REM     41 parameters refined using      0 restraints

END

WGHT      0.0938      0.1936

REM Highest difference peak  0.557,  deepest hole -0.520,  1-sigma level  0.110
Q1    1   0.9994  0.0949  0.0442  11.00000  0.05    0.56
Q2    1   1.3333  0.6667  0.2500  10.16667  0.05    0.53
Q3    1   0.9422  0.1691  0.1235  11.00000  0.05    0.50
Q4    1   1.3271  0.5526  0.1690  11.00000  0.05    0.48
Q5    1   1.3333  0.6667  0.0914  10.33333  0.05    0.46
Q6    1   0.7752  0.3393  0.2010  11.00000  0.05    0.45
Q7    1   0.6220  0.2642  0.2937  11.00000  0.05    0.43
Q8    1   1.0904  0.1465  0.0901  11.00000  0.05    0.41
Q9    1   1.0000  0.0000  0.1490  10.33333  0.05    0.41
Q10   1   0.9254  0.3020  0.1861  11.00000  0.05    0.39
Q11   1   0.6000  0.2001  0.2500  10.50000  0.05    0.38
Q12   1   0.9114  0.2980  0.1360  11.00000  0.05    0.36
Q13   1   1.0020  0.1028 -0.0422  11.00000  0.05    0.34
Q14   1   0.7964  0.2073  0.1551  11.00000  0.05    0.33
Q15   1   0.8626  0.3355  0.0792  11.00000  0.05    0.32
Q16   1   1.2357  0.6983  0.0146  11.00000  0.05    0.31
Q17   1   1.0962  0.2469  0.0048  11.00000  0.05    0.31
Q18   1   1.0642  0.2881  0.1226  11.00000  0.05    0.31
Q19   1   1.2478  0.7225  0.1088  11.00000  0.05    0.31
Q20   1   0.9409  0.3361  0.0732  11.00000  0.05    0.31
;
_shelx_res_checksum              2166
_shelx_hkl_file
;
   0   0   3 152.398 143.088   1
   0   0  -3 86.2492 129.793   1
   0   0   5 2928.83 434.796   1
   0   0  -5 13.3627 85.7561   1
   0   0  -6 91200.8 2702.91   1
   0   0   6 89830.2 2701.21   1
   0   0   7 221.544 151.012   1
   0   0  -7 138.893 227.680   1
   0   0   9 467.419 346.189   1
   0   0  -9 84.0260 165.249   1
   0   0 -10 33187.2 2149.07   1
   0   0  10 23345.1 1834.30   1
   0   0  11 156.873 377.077   1
   0   0 -11-148.787 232.602   1
   0   0  13-176.045 107.759   1
   0   0 -13 341.141 295.285   1
   1   0   4 7746.80 447.143   1
   0   1   4 7099.01 502.978   1
  -1   1  -4 8298.30 728.301   1
   0  -1   4 6614.70 747.677   1
   1  -1  -4 7271.83 727.940   1
  -1   0   4 5430.68 751.831   2
  -1   0  -4 5735.63 733.015   2
  -1   1   4 5300.87 507.981   2
  -1   1   4 6844.33 691.870   1
   0   1  -4 8000.34 811.002   1
   1  -1   4 7216.03 697.108   1
   0  -1  -4 5474.49 454.692   1
  -1   0  -4 6093.94 398.212   1
  -1   0   4 6038.00 733.131   1
   1   0  -4 5598.11 719.284   1
   1   0   5 21779.1 882.165   1
  -1   1   5 29246.2 1564.47   1
   1  -1   5 26914.4 1399.23   1
  -1   1   5 19639.2 1110.66   2
   0   1  -5 26670.0 1632.21   1
  -1   0  -5 23226.6 892.070   1
   1  -1  -5 29006.2 1564.58   1
  -1   0   5 24841.4 1608.20   2
   0  -1  -5 25398.4 1102.42   1
   1   0  -5 22114.4 1520.52   1
  -1   1  -5 24342.2 1344.71   1
   0  -1   5 26586.2 1551.73   1
   0   1   5 27345.4 1117.58   1
  -1   0   5 23704.5 1596.66   1
   1   0   6 102703. 2217.37   1
  -1   0   6 97039.4 3385.03   1
   0  -1   6 87697.6 3100.40   1
   1   0  -6 95515.6 3320.13   1
  -1   1  -6 95215.1 2883.51   1
   1  -1   6 99916.3 3024.16   1
   0   1   6 102148. 2443.19   1
  -1   0   6 89808.1 3316.65   2
  -1   0  -6 82499.4 2013.66   1
   1  -1  -6 88674.1 2933.87   1
   0  -1  -6 99355.5 2463.07   1
  -1   1   6 95872.7 2785.49   2
   0   1  -6 77360.2 2951.23   1
   1  -1   7 235464. 4903.87   1
  -1   1   7 158210. 3834.12   2
  -1   0   7 237038. 5547.79   1
   1  -1  -7 204455. 4789.39   1
   0   1  -7 208650. 5110.04   1
  -1   0   7 151962. 4734.92   2
  -1   1  -7 225651. 4885.95   1
  -1   1   7 219656. 4996.92   1
   0  -1   7 190454. 4899.87   1
  -1   0   8 81122.5 3504.26   1
   1   0  -8 101225. 3836.05   1
   1  -1  -8 94023.2 3448.24   1
  -1   0   8 102722. 4140.78   2
   0   1  -8 126879. 4209.90   1
  -1   0  -8 89539.7 2577.17   1
   0  -1  -8 78826.6 2603.62   1
   0   1   8 87010.9 2754.82   1
  -1   1  -8 100455. 3362.09   1
  -1   1   8 75034.6 3095.44   1
  -1   1   8 66154.1 2726.93   2
   1  -1   8 98535.7 3336.93   1
   1   0   8 99159.9 2794.54   1
   0  -1   8 79488.2 3354.88   1
  -1   0  -9 293928. 5181.04   1
  -1   0   9 310909. 7118.18   1
   1   0 -11 321113. 7917.72   1
   0   1  11 338413. 6627.61   1
  -1   0  11 342075. 8198.14   1
  -1   0  11 321413. 8166.82   2
   0  -1  11 331142. 7883.80   1
   1  -1 -12 109919. 4572.33   1
  -1   1 -12 102819. 4221.03   1
   0   1 -12 115195. 4888.50   1
   1   0 -12 95046.9 4579.44   1
  -1   1  12 70704.3 3558.67   2
   0   1  12 101868. 3845.16   1
  -1   0  12 82254.9 4421.86   2
  -1   1  12 127383. 4877.58   1
   0  -1  12 99418.8 4567.43   1
  -1   0  12 88789.1 4322.07   1
   1  -1  12 107198. 4369.31   1
   0  -1  13 203097. 6832.48   1
   1  -1 -13 216182. 6938.50   1
  -1   0  13 203933. 7127.61   2
  -1   0  13 192775. 6663.02   1
   0   1 -13 238630. 7341.10   1
   1   0 -13 272716. 7904.25   1
   1  -1  13 217758. 6586.20   1
  -1   1  13 237671. 7064.89   1
   0   1 -14 612029. 12288.5   1
   1   0 -14 582209. 12018.4   1
  -2   1  15 190.716 431.026   1
  -2   1  14 44941.6 3391.81   1
   1  -2  14 37548.2 3044.41   1
   2  -1 -14 48127.0 3602.10   1
  -1   2 -14 48202.9 3455.49   1
  -1   2 -13 167.145 251.167   1
   2  -1 -13-8.82160 148.331   1
  -2   1  13-209.601 372.126   1
   1  -2  13 88.7990 214.694   1
  -2   1  13 12.9343 473.419   2
  -2   1  11 230.863 247.236   2
   1  -2  11-91.8020 186.350   1
  -2   1  11-235.903 367.392   1
   2  -1 -11 178.147 259.890   1
  -1   2 -11 474.157 298.533   1
   2  -1 -10 268862. 7123.77   1
  -2   1  10 183833. 5625.68   2
   1  -2  10 210258. 6092.33   1
  -1   2 -10 282745. 7128.89   1
  -2   1  10 203983. 6233.51   1
   1   1   9 62.0801 69.6739   1
  -1  -1  -9 111.437 74.4854   1
   1  -2   9 509.838 318.133   1
  -1   2  -9 276.370 244.153   1
   2  -1  -9-319.325 130.906   1
  -2   1   9 266.644 330.488   1
  -2   1   9-54.7189 183.754   2
   2  -1  -7-131.364 199.344   1
   1  -2   7-149.280 213.057   1
  -2   1   7 65.0240 225.457   2
  -1   2  -7-180.757 162.056   1
  -2   1   7 117.821 265.983   1
  -2   1   6 28558.9 1930.70   1
   1  -2   6 37926.7 2194.64   1
  -1   2  -6 34707.6 2075.91   1
  -2   1   6 30804.2 1863.62   2
   2  -1  -6 32993.0 2106.92   1
   1  -2   5 73.5979 109.207   1
  -2   1   5 277.822 185.340   1
  -1   2  -5 161.157 194.940   1
  -1  -1  -5 621.557 220.764   2
  -2   1   5-105.471 108.214   2
   2  -1  -5 51.3366 181.568   1
  -2   1   3-93.8703 112.761   2
  -1  -1  -3 600.006 148.637   2
   2  -1  -3 67.3684 169.324   1
  -1   2  -3 72.5015 261.779   1
   1  -2   3-148.109 168.179   1
  -2   1   3-200.786 244.116   1
  -2   1   1 95.6112 175.915   2
  -2   1   1-216.003 214.798   1
  -1  -1  -1 403.935 213.661   2
   1  -2   1-68.9171 232.166   1
  -1  -1  -1-594.272 211.195   1
  -1   2  -1 351.683 219.485   1
   1   1   1 85.3016 94.6508   1
   2  -1  -1 232.800 123.060   1
   1  -2  -1 15.3997 138.992   1
  -1  -1   1 346.178 228.059   2
   2  -1   1-89.8039 184.770   1
  -2   1  -1 69.0292 155.635   2
  -1   2   1-89.6826 188.283   1
  -2   1  -1-202.617 185.242   1
   1   1  -1 218.611 134.900   1
  -1  -1   1 346.841 225.409   1
   2  -1   3 103.414 108.523   1
  -2   1  -3 408.444 209.783   1
  -1   2   3 390.989 173.555   1
  -1   2   3 436.163 100.931   2
  -2   1  -3 186.700 106.306   2
  -1  -1   3 110.405 171.800   1
   1   1  -3 356.618 211.690   1
  -1  -1   3 274.763 321.298   2
   1  -2  -3 296.478 203.491   1
  -1   2   5-40.7679 127.062   1
  -1  -1   5 324.074 252.847   1
  -1  -1   5 63.3227 257.019   2
  -2   1  -5-225.094 209.518   2
   2  -1   5 225.128 138.630   1
   1   1  -5 252.185 187.926   1
   1  -2  -5 196.751 170.011   1
  -2   1  -5 74.4364 90.2145   1
   1   1  -6 4801.48 852.248   1
  -1  -1   6 5306.55 828.253   1
   2  -1   6 6034.49 682.435   1
  -1   2   6 3195.59 302.900   2
  -1   2   6 4041.83 647.565   1
   1  -2  -6 4248.58 672.510   1
  -2   1  -6 6630.05 731.342   1
   1   1  -7-95.6971 243.038   1
   2  -1   7-110.233 116.030   1
  -1   2   7 227.415 215.646   1
   1  -2  -7 31.6458 101.067   1
  -1   2   7 61.4246 67.1695   2
  -2   1  -7 60.1654 85.3896   1
  -1  -1   7 73.7327 261.821   1
   1   1  -9 164.732 327.455   1
  -2   1  -9-0.95877 137.018   1
  -1  -1   9 367.634 344.228   2
  -1   2   9-5.33906 105.837   2
  -1  -1   9 309.516 363.579   1
  -1   2   9 75.4682 122.429   1
   1  -2  -9 131.364 217.938   1
  -1  -1  10 92732.8 4336.09   1
  -2   1 -10 103601. 3503.59   1
   1   1 -10 93234.1 4320.76   1
   1  -2 -10 103764. 3925.86   1
   2  -1  10 99831.5 3424.14   1
  -1  -1  10 90882.6 4864.71   2
  -1   2  10 113615. 3985.54   1
  -1   2  11 288.027 341.581   1
  -1  -1  11-83.2742 399.040   1
   1   1 -11-35.5242 240.691   1
  -1  -1  11-14.1743 282.583   2
  -2   1 -11 55.3057 98.6326   1
   1  -2 -11 137.133 168.951   1
   2  -1  11 124.601 145.721   1
  -1  -1  13-172.148 260.013   2
   1   1 -13 413.555 483.372   1
  -1  -1  13-441.019 540.357   1
  -1  -1  14 15182.0 2052.77   2
  -1  -1  14 9461.17 1647.12   1
   1   1 -14 12224.0 1823.69   1
   1   1 -15-39.2279 425.351   1
  -1  -1  15-237.642 382.431   2
  -1  -1  15-78.8382 381.416   1
  -1  -1  16 207834. 8578.21   2
   0  -2  -1 118381. 2935.52   1
   2  -2   1 202029. 4185.44   1
   2  -2  -7 224353. 5590.50   1
   2  -2   7 224838. 5444.93   1
   0  -2   7 205781. 5617.08   1
  -2   2   7 200226. 5343.92   1
  -2   2  -7 234111. 5385.04   1
   2   0  -7 218893. 5930.26   1
  -2   0   7 211541. 5908.88   1
  -2   0   7 197986. 5722.89   2
   0   2  -7 241262. 6202.32   1
   2  -2   8 8356.18 1122.20   1
  -2   2   8 7884.00 895.723   2
  -2   2   8 7701.87 1104.07   1
   0   2   8 7459.05 746.661   1
   2   0   8 7557.68 547.372   1
   0  -2  -8 9711.69 806.920   1
  -2   0   8 7564.81 1097.23   2
  -2   0  -8 7882.43 537.338   1
  -2   0   8 7946.06 1189.76   1
   0  -2   8 7662.82 1080.41   1
   0   2  -8 8691.23 1248.94   1
   2  -2  -8 5259.48 1019.66   1
   2   0  -8 9955.54 1332.98   1
  -2   2  -8 10167.4 1217.01   1
  -2   2   9 120620. 4462.22   1
   0  -2   9 117998. 4671.84   1
  -2   0   9 105335. 4515.18   1
  -2   0   9 121585. 4787.47   2
   2  -2  -9 151242. 5037.99   1
   0   2  -9 91244.4 4158.05   1
  -2   2  -9 119947. 4155.97   1
   2  -2   9 109559. 4167.45   1
   0  -2  -9 87278.6 2640.11   1
   0   2   9 122375. 3154.83   1
  -2   2   9 106947. 3461.73   2
   2   0   9 98690.2 2206.77   1
   2   0  -9 87971.9 4142.06   1
   0  -2  10 468336. 9649.21   1
  -2   0  10 410669. 9276.79   1
  -2   0  11 407311. 9573.44   1
   2   0 -12 141283. 5853.78   1
  -2   2 -12 127081. 4953.61   1
  -2   2  12 148506. 5569.83   1
   0   2 -12 129949. 5639.23   1
   0  -2  12 118894. 5241.54   1
  -2   0  12 141657. 5928.70   2
   2  -2  12 140221. 5171.08   1
  -2   0  12 104252. 4984.87   1
   0  -2  13 150066. 6210.04   1
  -2   0  13 151115. 6224.85   1
   2  -2  13 208634. 6604.48   1
   0   2 -13 185917. 6901.96   1
   2   0 -13 194690. 7050.90   1
   2  -2 -13 142225. 5796.89   1
  -2   0  13 167652. 6672.46   2
   0   2 -14 353148. 9765.36   1
   2   0 -14 376870. 10267.2   1
  -2   0  14 370466. 10133.2   1
  -2   0  15 7182.86 1446.28   1
   2   0 -15 5480.26 1161.21   1
   0   2 -15 5053.13 1165.65   1
   0  -2  15 8629.18 1543.77   1
  -2   0  16 2841.15 996.562   1
   0  -2  16 3336.80 1011.91   2
  -3   1  16 171870. 7501.09   1
  -3   1  15 59784.8 4315.48   1
   3  -1 -15 58219.9 4417.46   1
   1  -3  15 57340.8 4152.92   1
  -1   3 -15 59095.7 4229.41   1
  -3   2  14 168390. 6915.37   1
  -1   3 -14 231610. 8169.81   1
   3  -1 -14 157910. 6829.78   1
   3  -2 -14 322975. 9768.49   1
   2  -3  14 237226. 7874.13   1
   1  -3  14 235228. 8208.30   1
  -3   1  14 253731. 8514.19   1
  -1   3 -13 38660.8 3182.01   1
   2  -3  13 35792.8 2925.54   1
  -2   3 -13 35222.4 2887.30   1
  -3   2  13 38823.5 3203.15   1
   1  -3  13 31967.2 2905.01   1
  -3   1  13 31969.1 2920.59   2
   3  -2 -13 39260.6 3328.00   1
  -3   1  13 38795.8 3227.06   1
  -3   1  12 1584.22 746.079   1
  -3   2  12 1661.45 638.306   2
   3  -2 -12 1160.49 664.733   1
  -3   2  12 1172.47 483.960   1
   1  -3  12 2061.54 748.945   1
  -2   3 -12 2036.97 602.245   1
   3  -1 -12 1156.72 406.370   1
   2  -3  12 1751.73 577.891   1
  -1   3 -12 1743.72 717.388   1
  -3   1  12 1898.37 711.335   2
  -3   2  11 109964. 4969.65   1
   2  -3  11 101871. 4657.52   1
  -3   2  11 98275.8 4317.39   2
   1  -3  11 93470.9 4507.41   1
  -3   1  11 88443.8 4450.39   2
  -2   3 -11 114688. 4948.49   1
  -1   3 -11 114559. 5132.51   1
   3  -2 -11 70674.3 4161.36   1
   3  -1 -11 87342.6 4565.09   1
  -3   1  11 93217.6 4749.90   1
  -3   2  10 325347. 7671.89   2
   3  -2 -10 377694. 9227.23   1
  -3   1  10 424776. 9687.21   1
   3  -1 -10 365631. 8914.23   1
  -3   1  10 314833. 8068.60   2
   1  -3  10 345759. 8522.23   1
   2  -3  10 342738. 8413.26   1
  -1   3 -10 310828. 8208.34   1
  -2   3 -10 382904. 8665.97   1
  -3   2  10 338485. 8461.77   1
  -1   3  -8 62474.4 3363.50   1
   2  -3   8 60058.2 3271.48   1
   1  -3   8 62212.9 3450.14   1
  -2  -1  -8 52296.2 2626.19   2
  -3   2   8 51877.8 3156.88   1
  -2   3  -8 68613.5 3517.16   1
  -3   2   8 56704.4 2918.05   2
  -3   1   8 52058.6 3157.11   1
   3  -2  -8 74168.8 3825.54   1
   3  -1  -8 61889.9 3457.37   1
  -3   1   8 49090.6 2965.18   2
   1  -3   5 482233. 8810.30   1
   2  -3   3 75310.6 3199.60   1
  -1  -2  -3 53493.5 1785.81   1
  -2   3  -3 69732.5 2958.10   1
   2   1   3 71324.4 1960.34   1
  -2  -1  -3 76503.0 1962.45   1
  -1  -2  -3 56232.6 1983.02   2
  -1   3  -3 79183.3 3225.57   1
  -3   2   3 61649.4 2838.84   1
   1  -3   3 71171.0 3148.49   1
   3  -2  -3 75527.2 3171.62   1
  -3   1   3 63472.4 2831.22   1
   3  -1  -3 64687.7 2932.69   1
  -3   2   3 71399.6 2783.24   2
  -3   1   3 64778.8 2845.75   2
  -2  -1  -3 64269.4 2488.46   2
   1   2   3 84967.3 2293.80   1
   3  -1  -1 266930. 5586.62   1
  -3   1   0 1246.76 342.225   2
  -3   1   0 1297.70 338.256   1
  -1  -2   0 1427.33 451.323   2
  -3   2   0 1276.05 349.066   2
   1  -3   0 1995.99 516.309   1
  -1   3   0 1651.52 437.979   1
   2   1   0 1574.79 412.384   1
   3  -2   0 1683.17 464.754   1
   3  -1   0 1929.30 418.311   1
  -3   2   0 1551.78 387.869   1
   1   2   0 1331.56 364.726   1
  -2  -1   0 1337.54 368.188   2
  -2  -1   0 1005.69 303.535   1
   2  -3   0 2258.76 585.144   1
  -1  -2   0 1331.59 368.588   1
  -2   3   0 1333.73 318.684   1
  -1  -2   2 233386. 5165.65   1
  -3   1  -2 237706. 4601.06   1
   2   1  -2 236043. 5369.26   1
  -1  -2   2 241078. 5609.81   2
  -1  -2   7 379465. 8197.15   1
  -2  -1   7 387777. 8479.26   1
  -2   3   7 385335. 7478.62   1
  -1  -2   9 172306. 6386.90   2
  -1   3   9 143591. 4269.83   1
  -3   1  -9 128791. 3272.68   1
   2  -3  -9 135713. 4694.65   1
   1  -3  -9 143849. 4233.24   1
  -2  -1   9 124206. 5363.07   2
   1   2  -9 160422. 5736.14   1
  -3   2  -9 145027. 4450.36   1
  -2   3   9 171979. 5338.39   1
   3  -2   9 138985. 4423.60   1
   3  -1   9 130264. 3411.39   1
  -2   3   9 87780.5 2407.75   2
   2   1  -9 167750. 5925.58   1
  -1  -2   9 140687. 5418.33   1
  -2  -1   9 115786. 4981.15   1
  -2  -1  10 514077. 10912.5   1
   2   1 -11 9223.06 1534.14   1
  -1   3  11 8560.89 1121.44   1
  -3   2 -11 8837.96 1199.50   1
  -2  -1  11 12469.3 1682.68   1
   1   2 -11 10275.7 1536.50   1
   2  -3 -11 8606.07 1301.42   1
  -1  -2  11 7896.26 1363.23   2
  -1  -2  11 7174.73 1344.32   1
   3  -2  11 8426.51 1148.20   1
  -2  -1  11 9577.94 1611.54   2
  -2   3  11 11439.8 1491.65   1
  -2   3  12 4590.39 944.026   1
  -1  -2  12 3394.58 1023.54   2
   2  -3 -12 3492.70 876.277   1
  -2  -1  12 4921.92 1039.75   2
  -1  -2  12 2517.60 763.824   1
   2   1 -12 2974.28 822.756   1
  -2  -1  12 3067.04 1009.49   1
   1   2 -12 3591.57 1008.33   1
  -2  -1  13 29576.9 2886.29   1
   1   2 -13 37035.3 3180.61   1
  -2  -1  13 36694.9 3290.99   2
   2   1 -13 31768.6 2966.47   1
  -1  -2  13 34677.2 3124.00   1
  -1  -2  13 29249.8 3066.42   2
  -1  -2  14 117229. 6287.24   2
   1   2 -14 174890. 7245.93   1
   2   1 -14 125718. 6195.21   1
  -2  -1  14 141875. 6637.09   2
  -2  -1  14 175248. 7206.13   1
  -1  -2  14 168834. 7109.09   1
   2   1 -15 239897. 8858.88   1
  -2  -1  15 231694. 8943.22   2
  -1  -2  15 291135. 9629.26   1
  -1  -2  15 254521. 9616.94   2
   1   2 -15 248525. 8934.18   1
  -2  -1  15 296008. 9676.54   1
  -1  -2  16-124.324 518.402   2
   1   2 -16 40.2164 469.926   1
  -2  -1  16 118.912 252.003   1
  -1  -2  16 237.305 277.377   1
  -2  -1  16 528.997 301.840   2
   2   1 -16 281.719 317.319   1
  -1  -2  17 114048. 6723.37   2
  -2  -1  17 154843. 7402.22   1
  -3   3   1 2720.37 557.409   1
   0   3   1 2568.38 530.091   1
  -3   0   1 3271.47 576.903   1
  -3   0  -1 2373.49 460.325   1
   0  -3  -1 2939.59 592.543   1
  -3   0  -1 2227.81 516.258   2
   3  -3  -1 2413.63 589.183   1
  -3   3  -1 2662.81 594.701   2
   3   0   1 1877.03 428.686   1
   3  -3   1 1847.83 505.286   1
   3   0  -1 2414.39 551.354   1
   0  -3   1 2560.43 568.878   1
   0   3  -1 2029.03 560.827   1
  -3   3   1 2584.08 550.267   2
  -3   0   1 1904.08 506.831   2
  -3   3  -2 49314.1 2510.01   1
  -3   0  -2 46340.4 2009.39   1
   0   3   2 42902.9 2096.42   1
   3   0  -2 53138.5 2631.21   1
   3  -3  -2 59174.1 2763.08   1
   3  -3   2 47130.6 2509.22   1
   0   3  -2 48935.0 2592.87   1
   3   0   2 51726.6 2184.13   1
   0  -3  -2 63260.6 2275.94   2
  -3   3   2 54514.8 2404.69   2
  -3   3   2 49004.7 2514.43   1
  -3   0  -2 54944.2 2630.43   2
  -3   0   2 58101.9 2892.75   2
  -3   0   2 49354.2 2547.39   1
   0  -3   2 57706.1 2812.61   1
  -3   3  -2 52729.5 2744.35   2
   0  -3   3 39730.5 2380.18   1
   3  -3   3 45758.2 2454.36   1
   0  -3  -3 33370.0 1804.58   1
   0   3   3 59015.7 2320.77   1
  -3   0   3 42012.1 2372.70   2
  -3   3   3 46505.7 2511.26   1
  -3   0  -3 44404.0 2375.60   2
   0  -3  -3 55823.7 1924.99   2
  -3   3  -3 44064.6 2652.95   2
  -3   0  -3 39635.5 1712.53   1
   3   0  -3 46040.1 2600.58   1
  -3   0   3 48160.9 2591.52   1
   3  -3  -3 53778.3 2711.08   1
   0   3  -3 48431.8 2630.63   1
   3   0   3 49212.8 2004.49   1
  -3   3   3 51434.2 2281.56   2
  -3   3  -3 46840.7 2445.05   1
   3   0  -5 24360.9 2073.69   1
  -3   3   5 20793.1 1797.29   1
   3  -3   5 24472.0 1902.97   1
   0   3  -5 25663.4 2033.81   1
  -3   0  -5 25061.2 1824.57   2
  -3   3  -5 18915.0 1624.87   1
   0   3   5 28159.5 1585.59   1
   0  -3   5 24569.2 2063.47   1
  -3   3   5 21480.6 1531.31   2
   0  -3  -5 29634.5 1640.61   1
  -3   0   5 21393.1 1857.03   2
   3   0   5 21191.4 1066.41   1
  -3   0  -5 25212.7 1156.64   1
  -3   0   5 23151.0 1981.89   1
   3  -3  -5 21145.1 1807.29   1
   3  -3  -6 2651.77 648.016   1
   0  -3   6 2723.37 696.217   1
   0   3   6 2471.27 453.251   1
   3  -3   6 3540.50 775.662   1
  -3   0   6 2387.85 631.031   1
  -3   3   6 2647.39 664.224   1
  -3   3   6 1455.80 417.343   2
  -3   3  -6 4371.12 829.288   1
  -3   0  -6 1404.23 445.593   2
   0   3  -6 2878.99 743.339   1
  -3   0   6 1984.47 744.033   2
   0  -3  -6 2433.62 488.754   1
   3   0  -6 3934.96 870.289   1
   3   0   6 2762.69 349.917   1
  -3   0  -6 2799.60 328.153   1
  -3   3   7 28474.4 1816.66   2
  -3   3   7 17570.2 1781.66   1
  -3   3  -7 23430.7 1935.46   1
  -3   0   7 18874.8 1912.97   2
  -3   0   7 21920.1 2087.41   1
   0  -3  -7 23622.9 1376.34   1
   3  -3  -7 30805.2 2297.94   1
   3  -3   7 21521.7 1904.04   1
   0  -3   7 22748.7 1995.86   1
  -3   0  -7 19388.9 1721.66   2
   3   0  -7 17622.2 1837.65   1
   0   3   7 26549.5 1451.67   1
   0   3  -7 23772.8 2064.55   1
   0  -3  -9 17903.3 1181.47   1
   0   3   9 15294.1 1128.47   1
  -3   3   9 16455.5 1817.38   1
  -3   3  -9 20128.4 1882.87   1
  -3   0   9 15721.6 1874.86   2
   3  -3  -9 14217.3 1723.77   1
  -3   3   9 12428.2 1244.76   2
   0   3  -9 16815.9 1927.84   1
   0  -3   9 16092.8 1896.42   1
   3   0  -9 17884.2 1913.34   1
  -3   0   9 14541.0 1774.54   1
   3  -3   9 14854.7 1662.66   1
  -3   0  10 2058.99 770.560   1
  -3   0  10 971.934 487.233   2
  -3   3  10 1986.32 639.174   1
   0  -3  10 3009.45 798.910   1
  -3   3  10 2269.91 554.106   2
   3  -3  10 910.047 316.167   1
   0   3 -10 1222.07 563.684   1
   3   0 -10 2381.66 754.028   1
   3  -3 -10 1370.46 610.224   1
   0  -3  11 1291.73 714.649   1
   3  -3  11 1456.49 524.520   1
  -3   0  11 371.537 375.423   1
   3   0 -11 1807.70 764.898   1
  -3   3 -11 1851.92 630.818   1
   0   3 -11 1309.32 513.290   1
  -3   3  11 844.790 508.832   1
  -3   0  11 2346.23 733.560   2
   3  -3 -11 1888.07 764.926   1
   3  -3  12 737123. 12700.4   1
  -3   0  12 626773. 13013.8   1
   3  -3 -13 574.802 457.255   1
   0   3 -13 318.211 446.554   1
  -3   0  13 57.1751 212.359   1
  -3   0  13 174.630 242.360   2
  -3   3  13 85.1321 229.322   1
   0  -3  13 541.258 499.155   1
   3   0 -13 508.378 432.738   1
  -3   3  14 579.767 476.429   1
   0   3 -14 814.973 507.908   1
   3   0 -14 706.098 479.968   1
  -3   0  14 312.108 484.851   1
   0  -3  14 225.842 401.116   1
  -3   0  14 486.591 343.518   2
  -3   0  15 510.770 390.842   2
  -3   0  15 27.9603 302.727   1
   0   3 -15 359.337 364.104   1
   0  -3  15 932.999 691.947   1
   3   0 -15 494.234 243.900   1
   0   3 -16 417352. 12036.0   1
  -3   0  16 427083. 12080.1   1
   0  -3  17 1056.98 663.465   2
  -3   0  17 645.437 309.934   1
   0  -3  18 354.186 824.094   2
   4  -2 -16 498643. 13548.4   1
  -4   2  16 573801. 14198.0   1
  -4   2  15 357.919 458.064   1
   2  -4  15 248.713 417.789   1
   4  -2 -15-76.4585 291.890   1
   2  -4  14 71514.2 4542.91   1
  -4   2  14 65610.7 4492.06   1
   4  -2 -14 61177.3 4619.06   1
  -2   4 -14 66248.0 4444.45   1
   4  -2 -13 91.9913 286.463   1
  -2   4 -13-40.2132 365.011   1
   2  -4  13-149.372 417.018   1
  -4   2  13 159.018 269.240   1
  -4   2  12 101661. 5272.66   1
   4  -2 -12 120676. 5930.58   1
  -4   2  12 103953. 5303.96   2
   2  -4  12 112691. 5394.45   1
  -4   2  11-161.566 190.015   2
   4  -2 -11 182.454 425.404   1
  -4   2  11-460.576 523.527   1
  -2   4 -11-48.7006 333.609   1
   2  -4  11 605.314 317.877   1
  -4   2  10 259815. 7481.18   2
  -4   2  10 265730. 8004.32   1
   4  -2 -10 277086. 8278.69   1
   2  -4  10 251393. 7705.36   1
   4  -2  -9-147.804 200.075   1
  -2   4  -9 194.043 383.771   1
   2  -4   9 58.9686 239.660   1
  -4   2   9-94.9913 161.451   1
  -4   2   9-25.8150 352.710   2
   2  -4   7 688.503 167.889   1
  -2   4  -7 269.892 405.117   1
  -4   2   7 43.9236 223.884   2
  -2  -2  -7 58.6481 190.274   2
   4  -2  -7-27.8940 327.600   1
  -4   2   7 33.0874 244.369   1
  -2  -2  -6 10020.3 1029.25   2
  -4   2   6 10114.4 1304.55   2
  -4   2   6 6801.69 1122.12   1
   4  -2  -6 6105.05 1104.19   1
  -2   4  -6 9144.41 1265.10   1
   2  -4   6 9452.76 1374.58   1
  -2   4  -5-49.7730 255.632   1
   2  -4   5 223.805 314.879   1
  -4   2   5-126.834 261.851   2
   4  -2  -5 485.315 351.850   1
  -2  -2  -5 156.605 47.7929   1
  -2  -2  -5-165.791 167.938   2
  -4   2   5 115.087 296.696   1
   2   2   5 26.6786 43.1095   1
  -4   2   3 155.634 234.006   1
   2   2   3 266.301 217.880   1
   2  -4   3 279.866 429.332   1
  -2  -2  -3 354.044 233.936   1
  -2   4  -3 442.816 378.148   1
  -4   2   3 18.6174 265.382   2
   4  -2  -3 172.879 362.900   1
  -2  -2  -3 113.906 181.214   2
   2  -4   1 92.0486 283.899   1
   2   2   1-193.817 271.025   1
  -4   2   1 324.528 281.999   1
  -2  -2  -1 943.846 415.847   2
   4  -2  -1-204.539 315.383   1
  -2  -2  -1 963.480 370.795   1
   2   2  -1-26.9601 214.287   1
  -4   2  -1 494.141 244.026   1
  -2  -2   1-5.71475 185.292   2
  -4   2  -1 311.755 278.751   2
   2  -4  -1 105.860 264.511   1
  -2  -2   1 279.604 200.599   1
   4  -2   1 140.942 201.043   1
  -2   4   1-38.3792 339.153   1
  -4   2  -3 561.813 323.888   1
  -2   4   3 533.842 403.946   1
  -2  -2   3 75.0317 191.623   2
   2  -4  -3 39.0048 179.426   1
   2   2  -3 242.635 372.820   1
  -2  -2   3 423.586 289.017   1
  -4   2  -3 222.632 369.241   2
  -4   2  -5 65.0438 266.848   1
   4  -2   5-111.492 174.517   1
  -2   4   5 54.9563 258.391   1
   2   2  -5 173.299 192.823   1
  -2  -2   5-454.469 437.481   1
   2  -4  -5 74.0003 186.524   1
  -2  -2   5-140.792 401.473   2
  -4   2  -5 273.081 334.880   2
  -2  -2   6 3490.93 841.518   2
  -2  -2   6 2945.33 734.954   1
   4  -2   6 2906.14 623.477   1
   2  -4  -6 3472.38 721.999   1
  -2   4   6 3316.94 731.036   1
   2   2  -6 3369.69 784.607   1
  -4   2  -6 2890.78 565.771   1
  -4   2  -6 3737.50 879.264   2
  -2   4   7-220.986 303.043   1
  -4   2  -7 324.296 234.273   1
  -2  -2   7 818.619 562.072   2
  -2  -2   7-160.387 320.710   1
   2   2  -7 48.7467 187.885   1
  -4   2  -7 479.135 345.968   2
   4  -2   7 62.2473 113.587   1
   2  -4  -7 125.371 307.523   1
   2   2  -9 183.207 348.022   1
  -2  -2   9 79.0856 149.149   1
  -4   2  -9-19.1544 168.117   1
   4  -2   9 503.874 401.240   1
  -2  -2   9 665.514 411.119   2
   2  -4  -9 160.204 172.777   1
  -2  -2  10 297528. 9010.41   2
  -2  -2  10 304422. 8669.05   1
   2   2 -10 318496. 8891.44   1
   2  -4 -11-179.583 227.124   1
   2   2 -11 433.324 311.284   1
  -2  -2  11-314.711 322.921   1
  -2   4  11-85.6681 234.353   1
   2   2 -12 118968. 5790.86   1
  -2  -2  12 139075. 6251.24   1
  -2  -2  13 26.1526 406.646   1
  -2  -2  13-157.756 251.428   2
   2   2 -13 148.930 226.897   1
  -2  -2  14 166401. 7351.54   1
  -2  -2  14 174100. 7715.97   2
  -2  -2  15 534.015 611.133   1
  -2  -2  15 503.905 473.833   2
   2   2 -15-988.781 767.253   1
  -2  -2  16 545419. 14023.2   1
  -2  -2  16 539938. 14340.7   2
  -2  -2  17 212.508 296.856   1
  -2  -2  17 71.0660 472.238   2
   2   2 -17 243.570 206.130   1
  -4   1  17 145950. 7333.42   1
  -4   1  16 98421.5 5893.82   1
   1  -4  16 97937.7 5848.97   1
   4  -1 -16 108489. 6633.32   1
  -1   4 -16 102605. 6111.19   1
  -4   3  15 56111.8 4266.02   1
   4  -3 -15 44640.2 3922.78   1
  -1   4 -15 49556.5 4134.26   1
   4  -1 -15 54814.4 4528.31   1
   1  -4  15 62226.5 4545.68   1
  -4   1  14 403582. 11341.4   1
  -4   3  14 579551. 13291.8   1
   4  -1 -14 551200. 13456.6   1
  -1   4 -14 493516. 12467.3   1
  -4   1  14 500424. 12451.9   2
   3  -4  14 532345. 12210.3   1
   1  -4  14 453309. 11770.2   1
  -4   3  13 23341.6 2544.03   1
  -4   1  13 19884.0 2457.78   1
  -4   1  13 14089.1 2106.92   2
   4  -3 -13 10674.0 1856.89   1
  -3   4 -13 11248.5 1781.20   1
   3  -4  13 14902.9 1968.46   1
   1  -4  13 14117.6 1950.89   1
  -1   4 -13 17690.1 2249.85   1
   4  -1 -13 12326.3 1880.53   1
   1  -4  12 11012.0 1706.21   1
   4  -1 -12 11551.9 1870.15   1
  -4   1  12 12961.3 1892.02   1
  -4   3  12 13597.7 1948.33   1
  -1   4 -12 15536.2 2009.36   1
   4  -3 -12 14017.2 1940.59   1
   3  -4  12 13111.3 1860.57   1
  -4   1  12 11102.5 1813.32   2
  -3   4 -12 19366.4 2187.80   1
  -4   1  11 300240. 8919.63   1
  -3   4 -11 303328. 8621.01   1
   4  -3 -11 360147. 9736.74   1
   1  -4  11 313240. 8928.91   1
   4  -1 -11 291566. 8727.28   1
  -4   3  11 294048. 8647.48   1
  -4   3  11 275690. 7477.35   2
   3  -4  11 260515. 8002.56   1
  -1   4 -11 258127. 8234.81   1
  -4   1  11 255849. 8058.78   2
  -4   3  10 254863. 7825.28   1
  -3   4 -10 226967. 7281.79   1
  -4   1  10 242268. 7579.77   2
   3  -4  10 243700. 7401.42   1
   1  -4  10 215572. 7312.94   1
   4  -3 -10 275425. 8215.68   1
  -4   1  10 274740. 8229.94   1
  -4   3  10 243834. 6833.99   2
  -1   4 -10 230418. 7590.79   1
   4  -1 -10 291073. 8471.94   1
  -1   4  -9 615849. 11990.8   1
  -4   3   8 11286.4 1575.31   1
   4  -1  -8 16091.3 1905.66   1
   1  -4   8 14266.6 1839.73   1
  -1   4  -8 15213.7 1866.21   1
  -4   1   8 15059.6 1807.61   2
   4  -3  -8 19832.3 2105.31   1
  -4   3   8 14976.8 1621.21   2
  -3  -1  -8 12501.1 1481.48   2
   3  -4   8 21830.9 2138.15   1
  -3   4  -8 15763.7 1760.71   1
  -4   1   8 21756.5 2162.98   1
  -4   3   7 430543. 9347.42   1
   4  -3  -7 415596. 9297.29   1
  -4   1   7 439842. 9535.46   1
  -1   4  -7 439653. 9590.13   1
  -3  -1  -5 80435.2 2092.38   1
  -4   3   5 63238.4 3457.30   1
  -4   3   5 70824.4 3324.38   2
  -1   4  -5 76917.1 3703.42   1
   1   3   5 50297.3 2033.74   1
   4  -1  -5 78566.5 3836.52   1
  -3   4  -5 70665.0 3470.18   1
  -1  -3  -5 64717.6 2321.06   2
   1  -4   5 76660.6 3829.39   1
  -4   1   5 67761.6 3476.12   2
   3   1   5 62599.8 1927.16   1
   3  -4   5 75050.5 3700.82   1
  -3  -1  -5 69141.7 3178.84   2
  -4   1   5 68888.9 3567.41   1
  -1  -3  -5 69855.8 2360.12   1
   4  -3  -5 84140.8 3934.90   1
  -4   1   4 464876. 8977.76   1
   3   1   3 95443.8 2998.19   1
   1   3   3 131052. 3717.47   1
  -1   4  -3 111704. 4349.82   1
  -3  -1  -3 108073. 3100.27   1
   4  -3  -3 101136. 4063.66   1
  -1  -3  -3 102925. 3283.09   1
  -1  -3  -3 115695. 3376.91   2
   1  -4   3 103166. 4224.37   1
   4  -1  -3 109014. 4345.18   1
  -4   1   3 95593.5 3974.37   1
  -3  -1  -3 137485. 4365.25   2
  -4   3   3 110448. 4019.88   2
  -3   4  -3 102123. 4028.80   1
  -4   1   3 111180. 4301.54   2
   3  -4   3 111674. 4377.95   1
  -4   3   3 107085. 4226.03   1
  -3  -1   0 136059. 4231.25   1
   1   3   0 139059. 4309.91   1
  -1  -3   0 172006. 4793.54   1
   4  -3   0 129788. 4375.46   1
   1  -4   0 111906. 4126.42   1
   3   1   0 126457. 4062.30   1
   4  -1   0 120834. 4155.42   1
  -4   3   0 131696. 4470.68   2
  -1  -3   0 99022.1 3631.79   2
  -4   1   0 119516. 4417.81   2
  -3  -1   0 147377. 4728.13   2
  -4   3   0 147592. 4620.22   1
  -3   4   0 153895. 4746.39   2
  -4   1   0 132630. 4281.84   1
  -1   4   0 146819. 4578.93   1
  -3   4   0 109452. 4117.62   1
   3  -4   0 124203. 4454.97   1
   4  -1   3 453519. 7231.68   1
  -4   3  -4 42001.8 2426.69   1
  -1  -3   4 32169.6 2357.90   1
  -3   4   4 33993.0 2348.54   1
  -1  -3   4 40508.9 2812.89   2
  -4   1  -4 36150.2 2453.11   2
  -1   4   4 31327.6 2035.09   1
   3  -4  -4 32161.3 2276.84   1
  -3   4   4 45678.9 2207.17   2
  -4   1  -4 41591.5 2117.73   1
  -4   3  -4 45236.5 2899.52   2
   3   1  -4 38678.7 2583.47   1
   1  -4  -4 30108.4 1998.45   1
   1   3  -4 38077.5 2601.31   1
   4  -1   4 46256.7 2211.01   1
  -3  -1   4 42408.1 2756.89   2
  -3  -1   4 39296.0 2655.12   1
   4  -3   4 36168.0 2375.40   1
  -4   1  -8 364505. 8929.84   2
  -1  -3   8 382734. 9395.46   1
  -3  -1   8 403223. 9571.82   2
   3  -4  -8 542916. 10079.6   1
   1   3  -8 475865. 10353.0   1
  -1  -3   8 470694. 10921.8   2
  -3  -1   8 442161. 9940.48   1
  -3   4   9 17173.3 1849.08   1
   1  -4  -9 21350.8 1692.19   1
  -1  -3   9 26219.4 2641.69   2
   3  -4  -9 29398.1 2376.65   1
  -1   4   9 27765.5 1965.75   1
  -4   1  -9 22072.5 2173.02   2
   4  -3   9 27066.4 2233.45   1
  -1  -3   9 20333.0 2235.77   1
  -4   3  -9 25875.2 2094.04   1
  -3  -1   9 27273.7 2536.64   1
  -3  -1   9 22338.1 2333.82   2
   1   3  -9 22225.2 2243.11   1
   3   1  -9 23096.0 2356.94   1
  -3  -1  11 22811.5 2472.32   1
  -1  -3  11 18442.0 2271.21   1
  -3   4  11 15476.1 1879.45   1
  -3  -1  11 20705.7 2389.13   2
  -4   3 -11 15085.0 1768.20   1
   3  -4 -11 26182.8 2456.44   1
  -1  -3  11 21726.0 2549.66   2
   1   3 -11 25135.9 2600.60   1
   3   1 -11 16840.9 2155.52   1
   4  -3  11 21575.9 2029.19   1
  -3   4  12 43520.9 3205.51   1
  -1  -3  12 26512.0 2737.16   1
   1   3 -12 25342.2 2718.26   1
  -3  -1  12 27420.0 3054.22   2
   3  -4 -12 37815.6 3008.09   1
  -3  -1  12 20617.8 2390.57   1
   3   1 -12 32680.0 3022.81   1
  -1  -3  12 25084.0 2856.29   2
  -3  -1  13 406736. 11370.3   2
   3   1 -13 401847. 11009.4   1
  -1  -3  13 339034. 9985.14   1
   1   3 -13 324547. 9953.41   1
  -3   4  13 420597. 10304.4   1
  -1  -3  13 410577. 11860.1   2
  -3  -1  13 308808. 9852.98   1
   3   1 -14 168436. 7476.60   1
  -3  -1  14 145581. 6873.35   2
  -1  -3  14 137706. 6615.86   1
  -3  -1  14 147987. 6853.99   1
  -1  -3  14 128521. 6841.18   2
   1   3 -14 107526. 5855.54   1
  -3  -1  15 261851. 9523.61   2
   3   1 -15 326534. 10628.7   1
  -1  -3  15 218276. 8580.99   1
  -1  -3  15 209580. 8977.06   2
  -3  -1  15 279326. 9640.53   1
   1   3 -15 178151. 7830.52   1
  -3  -1  16 2157.18 833.548   1
  -3  -1  16 3413.35 1307.77   2
   1   3 -16 4426.69 1283.39   1
  -1  -3  16 4091.85 1438.86   2
   3   1 -16 3086.33 1157.14   1
  -1  -3  16 3999.42 1250.85   1
  -1  -3  17 27435.0 3211.41   1
  -3  -1  17 26072.5 3166.07   1
   3   1 -17 25792.2 3150.36   1
   1   3 -17 22898.5 2919.27   1
  -1  -3  17 17098.9 2843.46   2
  -3  -1  18 158324. 7942.36   1
  -1  -3  18 131722. 7677.80   2
  -4   0   0 121615. 4189.91   1
   0  -4   0 103656. 4053.00   1
  -4   4   0 112221. 4301.27   2
   4  -4   0 109514. 4456.96   1
   4   0   0 108980. 4016.17   1
  -4   0   0 115575. 4447.90   2
  -4   4   0 113570. 4402.44   1
   0  -4  -4 274725. 6085.63   1
  -4   4  -4 322091. 7421.49   1
   4   0  -4 273458. 7173.40   1
   0   4  -4 259300. 7078.94   1
  -4   0   4 306350. 7500.07   1
   4  -4   4 302208. 7422.75   1
   4  -4  -4 250380. 6673.71   1
  -4   0  -4 226151. 6304.36   2
  -4   0  -4 226663. 4873.82   1
  -4   4   4 280053. 6373.97   2
   4   0   4 236991. 4964.70   1
   0   4   4 296187. 6233.76   1
  -4   0   4 259096. 7142.50   2
   0  -4   4 263012. 7097.58   1
  -4   4   4 283632. 7201.71   1
   4   0   5 182983. 4038.87   1
   0   4   5 185075. 4804.61   1
   0  -4   5 189671. 6124.46   1
   4  -4   5 180199. 5877.65   1
  -4   0  -5 186622. 4048.43   1
   4  -4  -5 138837. 5049.68   1
   0   4  -5 180199. 5983.45   1
  -4   0   5 172788. 5853.13   2
  -4   4   5 192137. 5994.48   1
  -4   4   5 139934. 4432.04   2
   0  -4  -5 184805. 4907.31   1
   4   0  -5 204184. 6329.58   1
  -4   0   5 178640. 5899.71   1
  -4   0  -5 205693. 5945.41   2
  -4   4  -5 195177. 5995.34   1
   0   4  -6 84603.0 4240.58   1
   0   4   6 80317.5 3083.58   1
   0  -4  -6 126136. 3978.77   1
  -4   4  -6 107537. 4447.41   1
   0  -4  -6 77516.1 1734.34   2
  -4   0  -6 94229.0 2665.33   1
   4  -4  -6 95906.0 4274.79   1
  -4   0  -6 108984. 4497.97   2
   4   0  -6 97074.0 4588.03   1
  -4   0   6 80825.9 4136.49   1
   0  -4   6 82096.7 4225.66   1
  -4   4   6 79251.0 3306.19   2
  -4   0   6 90728.5 4341.84   2
   4   0   6 100782. 2745.58   1
  -4   4   6 104410. 4596.37   1
   4  -4   6 93890.0 4282.38   1
  -4   0  -7 6882.55 1205.18   2
  -4   0   7 8187.55 1375.92   2
   0   4   7 12914.4 1199.70   1
   4   0   7 5910.34 585.644   1
   0  -4  -7 7235.65 924.296   1
   0  -4   7 7853.82 1319.79   1
  -4   0   7 7377.79 1200.61   1
  -4   4   7 6784.06 939.250   2
   4  -4  -7 7124.82 1178.11   1
  -4   4   7 9372.36 1406.71   1
   0   4  -7 7536.10 1288.89   1
  -4   4  -7 8250.28 1192.40   1
   4  -4   7 7190.37 1210.96   1
   4   0  -7 8753.51 1349.97   1
  -4   4   8 4340.35 811.888   2
   4  -4   8 6054.44 1036.98   1
   4  -4  -8 3624.25 971.793   1
  -4   0   8 4349.93 983.661   2
   0   4   8 4746.47 734.001   1
  -4   4   8 4605.84 987.985   1
   0  -4   8 5778.86 1078.46   1
   0   4  -8 5497.68 1113.44   1
   0  -4  -8 5450.51 789.831   1
  -4   0   8 3801.39 977.973   1
  -4   4  -8 5345.83 1037.80   1
   4   0  -8 5025.23 1104.42   1
  -4   0  -8 3624.93 897.305   2
   4  -4  -9 85287.4 4454.83   1
  -4   0   9 119723. 5371.45   1
   4   0  -9 88352.4 4671.90   1
   0   4  -9 108766. 5174.23   1
   4  -4   9 113790. 5038.36   1
  -4   4   9 79658.7 3536.17   2
  -4   0   9 94677.8 4857.57   2
  -4   4   9 78948.9 4332.23   1
  -4   0  -9 109215. 4927.08   2
   0  -4   9 114289. 5280.93   1
  -4   4  -9 103601. 4706.37   1
   4  -4  11 502014. 11029.4   1
  -4   0  11 583213. 12749.2   1
   0   4 -11 540251. 12208.9   1
   0  -4  11 498891. 11498.9   1
  -4   4  11 434845. 10734.4   1
  -4   4 -11 537635. 11344.2   1
  -4   0  11 467162. 11476.4   2
   4   0 -12 147741. 6534.18   1
   0  -4  12 150844. 6539.15   1
  -4   0  12 146411. 6592.10   1
   4  -4  12 166583. 6552.75   1
  -4   4  12 132275. 6019.04   1
  -4   0  12 142786. 6452.34   2
  -4   4 -12 154310. 6347.51   1
   0   4 -12 180151. 7186.47   1
   4  -4 -12 155489. 6557.30   1
  -4   0  13 310217. 9788.17   1
   0   4 -13 189741. 7774.43   1
   0  -4  13 305005. 9678.17   1
   4   0 -13 254281. 8985.39   1
   4  -4 -13 258253. 8719.64   1
  -4   4  13 346178. 10046.7   1
  -4   0  13 308471. 9878.75   2
  -4   4  14 569115. 13290.2   1
  -4   0  14 520042. 13422.3   2
  -4   0  14 517953. 12949.6   1
   4   0 -14 492396. 12916.8   1
   0  -4  14 506351. 12763.6   1
   0   4 -14 586749. 13898.4   1
  -4   0  15 54194.1 4352.63   1
   4   0 -15 49586.2 4204.90   1
   0  -4  15 56585.2 4333.39   1
   0  -4  15 42896.4 3970.87   2
   0   4 -15 55688.8 4472.78   1
  -4   0  15 54444.8 4398.82   2
  -4   0  16 4246.06 1136.74   1
   0   4 -16 4303.20 1359.31   1
   4   0 -16 2374.74 840.938   1
   0  -4  16 4090.34 1304.94   1
   0  -4  16 3350.10 1331.27   2
   0   4 -17 12310.9 2137.51   1
  -4   0  17 13780.3 2258.91   1
   4   0 -17 10879.3 2116.07   1
   0  -4  17 17468.2 2529.15   1
   0  -4  17 13914.4 2469.58   2
   0  -4  18 16938.6 2720.81   2
  -4   0  18 36711.4 3807.54   1
   0  -4  19 12551.7 2422.59   2
  -5   2  17 35622.8 3779.05   1
   5  -2 -16 6684.41 1744.90   1
  -5   3  16 8493.76 1675.43   1
   2  -5  16 10336.0 1893.95   1
  -5   2  16 12794.4 2233.05   1
   3  -5  15 93963.0 5622.53   1
   5  -2 -15 83319.5 5514.14   1
   2  -5  15 93443.8 5595.80   1
  -2   5 -15 103387. 6018.71   1
  -5   2  15 95007.5 5786.11   1
   5  -3 -15 94179.4 6036.81   1
  -3   5 -14 170373. 7460.24   1
  -2   5 -14 173209. 7665.71   1
   3  -5  14 193846. 7803.16   1
   2  -5  14 198473. 7886.96   1
   5  -2 -14 204302. 8415.36   1
   5  -3 -14 128798. 6741.28   1
  -5   3  14 156210. 7227.54   1
  -3   5 -13 121869. 6141.37   1
   3  -5  13 116287. 5952.04   1
   2  -5  13 125207. 6217.83   1
   5  -3 -13 182487. 7660.20   1
  -2   5 -13 154648. 7022.76   1
  -5   3  13 106681. 5853.47   1
  -5   2  13 114442. 6017.07   1
  -5   2  13 138876. 6654.03   2
   5  -2 -13 178579. 7625.40   1
  -5   2  12 57943.7 4290.31   2
  -5   2  12 65593.0 4412.38   1
  -3   5 -12 70295.9 4453.28   1
   3  -5  12 70052.0 4495.24   1
   5  -3 -12 81082.6 4989.20   1
  -2   5 -12 82703.2 4983.54   1
  -5   3  12 59121.7 4163.45   1
   5  -2 -12 56785.7 4202.77   1
   2  -5  12 67848.7 4437.32   1
  -5   3  11 33730.4 3012.53   2
   5  -2 -11 44300.6 3666.95   1
  -2   5 -11 40338.5 3381.89   1
  -3   5 -11 43219.1 3441.15   1
  -5   3  11 44877.3 3555.31   1
  -5   2  11 45631.1 3597.76   2
   3  -5  11 38867.8 3289.71   1
   2  -5  11 37024.4 3180.69   1
   5  -3 -11 42859.9 3477.18   1
  -5   2  11 45367.3 3553.45   1
   3  -5  10 447475. 10719.7   1
  -5   3  10 548617. 12197.6   1
   2  -5  10 522518. 11827.8   1
  -5   2  10 551240. 12130.8   1
  -2   5 -10 482897. 11314.4   1
   5  -2 -10 468715. 11413.0   1
  -5   3  10 471566. 10675.3   2
   5  -3 -10 490774. 11594.1   1
  -5   2  10 486131. 11232.0   2
   5  -3  -9 77173.9 4588.93   1
  -5   2   9 78720.9 4435.66   1
  -5   3   9 85899.9 4406.16   2
   3  -5   9 108432. 5199.85   1
   2  -5   9 93023.8 4893.33   1
   5  -2  -9 122343. 5674.65   1
  -5   2   9 87669.5 4662.19   2
  -3   5  -9 85003.5 4577.89   1
  -2   5  -9 96701.0 5024.13   1
  -5   3   9 79371.7 4543.65   1
   3  -5   8 71733.2 4136.88   1
  -5   3   8 68115.8 3824.97   2
  -3   5  -8 74327.8 4202.59   1
   5  -2  -8 64905.7 4071.57   1
  -5   2   8 72824.0 4087.28   2
  -5   3   8 78766.4 4327.13   1
   2  -5   8 77280.5 4332.52   1
  -2   5  -8 77574.9 4338.22   1
  -3  -2  -8 66700.7 3272.28   2
   5  -3  -8 62871.2 3989.54   1
  -5   2   8 77170.5 4307.25   1
  -5   3   7 419245. 10099.4   1
  -5   3   7 477031. 10036.2   2
  -2   5  -7 462991. 10345.9   1
  -5   2   7 518721. 10714.7   2
   2  -5   7 548106. 11390.1   1
   3  -5   7 416209. 10049.7   1
  -5   3   4 104532. 4527.83   2
   2   3   4 105801. 3399.35   1
  -2  -3  -4 125636. 3669.68   1
   3  -5   4 94605.2 4501.44   1
   5  -2  -4 96110.8 4503.87   1
  -3  -2  -4 87550.9 3780.92   2
   3   2   4 99637.4 3203.64   1
   2  -5   4 108396. 4849.99   1
  -5   2   4 107604. 4611.15   1
  -2   5  -4 106248. 4713.10   1
  -3  -2  -4 85407.5 2941.62   1
  -3   5  -4 106568. 4550.31   1
  -5   2   4 88396.5 4246.25   2
   5  -3  -4 100858. 4558.08   1
  -2  -3  -4 111432. 3932.65   2
  -5   3   4 91065.4 4329.05   1
   5  -3  -3 525520. 10265.5   1
  -5   2   3 577907. 10585.4   1
  -2   5  -1 259558. 6841.38   1
  -3   5  -1 352545. 7997.47   1
   3  -5   1 305391. 7691.13   1
  -2  -3  -1 318220. 6710.06   1
   2   3   1 243259. 6048.12   1
   5  -3  -1 307228. 7383.89   1
   3   2   1 317609. 6770.69   1
  -3  -2  -1 261629. 6705.17   2
   5  -2  -1 312305. 7630.45   1
   2  -5   1 344724. 8164.54   1
  -5   3   1 322819. 7740.82   2
  -5   3   1 314483. 7587.97   1
  -5   2   1 326317. 7970.76   2
  -2  -3   0 52082.4 2826.13   1
  -3  -2   0 42052.6 2732.46   2
   5  -2   0 47984.4 2906.48   1
  -5   2   0 51781.6 3023.78   1
   5  -3   0 47505.4 2803.80   1
   3  -5   0 55242.3 3259.24   1
  -5   2   0 51536.8 3210.91   2
  -3   5   0 45979.3 2834.15   1
   2  -5   0 35228.2 2574.61   1
  -5   3   0 48452.6 2910.49   1
  -2   5   0 43118.1 2696.18   1
  -2  -3   0 45622.2 2744.64   2
   2   3   0 46001.9 2748.23   1
  -3  -2   0 58810.3 3005.85   1
   3   2   0 43490.4 2644.36   1
  -5   3   0 49423.2 3031.10   2
   5  -2   1 144231. 4884.14   1
  -5   2  -1 133886. 5053.09   2
  -5   3  -1 136186. 5100.70   2
  -5   2  -1 143873. 4921.46   1
  -2  -3   1 143091. 5061.59   2
  -3  -2   1 149085. 4963.41   1
  -5   3  -1 153060. 5086.38   1
  -2  -3   1 158264. 5066.66   1
  -2   5   1 114587. 4543.05   1
   5  -3   1 154182. 5137.36   1
   2   3  -1 177034. 5519.58   1
   2  -5  -1 155592. 5426.13   1
  -3   5   1 164286. 5377.01   1
   3   2  -1 144222. 4937.79   1
  -3  -2   1 142416. 5057.22   2
  -3   5   3 208043. 6175.05   1
  -2   5   3 285976. 6924.52   1
  -5   3  -3 261436. 6602.83   1
   5  -3   3 302676. 7136.70   1
  -2  -3   3 301117. 7416.74   1
  -5   3  -3 313631. 7857.18   2
   2  -5  -3 212362. 6223.25   1
  -5   2  -3 330154. 7948.40   2
  -3  -2   3 305892. 7737.77   2
   2   3  -3 292450. 7462.54   1
  -5   2  -3 286756. 6631.40   1
   3  -5  -3 256020. 6876.41   1
  -3  -2   3 320715. 7761.97   1
  -2  -3   3 361162. 8574.26   2
   3   2  -3 266334. 7204.88   1
  -5   2  -4 247664. 6085.50   1
  -2  -3   4 291600. 7889.45   2
  -2  -3   4 279227. 7508.90   1
   2   3  -4 226172. 6694.95   1
  -5   3  -4 318478. 8175.12   2
   2  -5  -4 315626. 7474.17   1
  -2   5   4 298284. 7129.82   1
   3  -5  -4 245764. 6851.13   1
   5  -3   4 283815. 7075.01   1
   5  -2   4 236608. 6017.96   1
  -5   2  -4 305628. 7923.96   2
  -3  -2   4 288020. 7531.37   1
   3   2  -4 264669. 7327.23   1
  -3  -2   4 262081. 7544.92   2
  -5   3  -4 200141. 5836.92   1
  -5   2  -5 474543. 9965.20   2
  -2  -3   5 404047. 9663.06   2
  -2   5   5 461788. 8939.04   1
  -3  -2   5 412847. 9497.17   2
   2   3  -5 429649. 9441.52   1
  -3  -2   5 432931. 9612.65   1
  -5   2  -5 362876. 7442.28   1
   5  -3   5 399465. 8341.51   1
   5  -2   5 348558. 7480.51   1
  -2  -3   7 286158. 8183.29   1
  -5   3  -7 288055. 8517.58   2
  -5   2  -7 299135. 6488.24   1
  -2   5   7 347259. 7867.33   1
  -3  -2   7 329193. 8766.00   1
  -3  -2   7 292060. 8353.36   2
  -2  -3   7 290212. 8569.61   2
  -3   5   7 327307. 8148.49   1
   3   2  -7 290985. 8260.22   1
  -5   2  -7 293643. 8214.22   2
   5  -3   7 341302. 7897.24   1
   3  -5  -7 338644. 8446.12   1
  -5   3  -7 354114. 7781.28   1
   2   3  -7 320565. 8709.10   1
  -5   2  -8 83757.9 3511.15   1
   3  -5  -8 90427.1 4360.73   1
   2  -5  -8 100177. 4326.75   1
  -5   3  -8 107817. 4347.72   1
   5  -3   8 83169.9 4018.97   1
   2   3  -8 66693.1 4080.38   1
  -3   5   8 63544.9 3731.02   1
   5  -2   8 76153.5 3417.57   1
  -3  -2   8 74566.8 4337.88   1
  -3  -2   8 68392.2 4236.89   2
  -2  -3   8 72667.0 4195.92   1
   3   2  -8 83728.7 4552.44   1
  -5   3  -8 61968.2 4016.26   2
  -2  -3   8 78882.5 4639.10   2
  -2   5   8 82177.4 3906.39   1
  -5   2  -8 68290.9 4108.88   2
  -2  -3   9 420673. 10491.6   1
  -3   5   9 339311. 8672.24   1
  -3  -2   9 419596. 10749.2   2
  -5   2  -9 283775. 8764.20   2
   2  -5  -9 351745. 8324.51   1
  -3  -2   9 426525. 10604.8   1
  -2   5   9 384920. 8628.95   1
  -2  -3   9 402294. 10720.2   2
   3  -5  -9 485436. 10194.3   1
   2   3  -9 336929. 9477.49   1
   3   2  -9 334090. 9314.66   1
  -3  -2  10 357008. 9879.52   1
  -2   5  10 345704. 8314.89   1
  -2  -3  10 391248. 10918.2   2
   3   2 -10 310883. 9257.53   1
  -3   5  10 342999. 8819.07   1
   2  -5 -10 371035. 8689.92   1
   5  -3  10 342357. 8231.13   1
  -3  -2  10 341261. 9928.72   2
  -2  -3  10 350988. 9848.25   1
   3   2 -11 207529. 7767.13   1
  -3  -2  11 245541. 8484.84   1
  -3   5  11 261598. 7888.44   1
  -2  -3  11 227783. 8092.00   1
  -2  -3  11 219301. 8457.17   2
  -3  -2  11 240939. 8676.19   2
   3  -5 -11 183120. 6602.89   1
   2   3 -11 212011. 7902.67   1
  -3  -2  12 8955.25 1513.23   1
   2   3 -12 9902.17 1772.96   1
   3   2 -12 6864.44 1464.92   1
  -2  -3  12 6865.32 1475.35   1
  -3  -2  12 11855.2 1936.51   2
  -2  -3  12 9737.62 1800.20   2
  -2  -3  13 36688.3 3484.67   1
  -2  -3  13 40967.7 3766.80   2
  -3  -2  13 44895.2 3775.62   1
  -3  -2  13 41855.5 3732.48   2
   3   2 -13 33191.0 3209.34   1
   2   3 -13 47264.4 3906.30   1
  -3  -2  14 265314. 9506.46   1
   3   2 -14 268194. 9514.16   1
   2   3 -14 338998. 10690.2   1
  -2  -3  14 261970. 9514.97   1
  -3  -2  14 307890. 10518.5   2
  -2  -3  14 334254. 10988.9   2
  -3  -2  15 35245.3 3577.89   1
  -2  -3  15 34728.7 3626.52   2
   3   2 -15 43631.3 3941.04   1
  -3  -2  15 33235.1 3558.05   2
  -2  -3  15 35481.4 3571.93   1
  -2  -3  16 41087.7 3952.93   1
   2   3 -16 54661.7 4469.24   1
   3   2 -16 47833.8 4250.00   1
  -3  -2  16 42440.9 3955.57   1
  -2  -3  16 50820.1 4469.68   2
  -3  -2  16 39252.7 3915.84   2
  -2  -3  17 46985.0 4358.67   1
   2   3 -17 56080.7 4761.16   1
  -3  -2  17 57367.7 4731.80   1
   3   2 -17 65946.1 5055.10   1
  -2  -3  17 70214.9 5399.41   2
  -3  -2  17 59267.6 4993.56   2
  -2  -3  18 106039. 6808.20   2
  -3  -2  18 127979. 7219.60   1
   3   2 -18 109220. 6828.93   1
   2   3 -18 100502. 6489.04   1
  -2  -3  18 141310. 7643.44   1
   1  -5  19 201.357 227.148   2
  -5   1  18 10321.8 2031.60   1
   1  -5  18 7004.39 1802.24   2
  -5   1  17 2171.09 1042.68   1
   5  -1 -17 1247.08 650.662   1
   1  -5  17 280.401 427.934   1
  -1   5 -16 197764. 8779.26   1
  -5   1  16 229791. 9191.94   1
   5  -1 -16 223806. 9629.66   1
   5  -4 -15 230.159 255.003   1
  -1   5 -15 558.143 566.209   1
  -5   1  15 1482.50 658.067   1
   5  -1 -15-92.5876 242.983   1
   1  -5  15 1201.24 425.601   1
  -5   4  15 652.217 374.882   1
  -1   5 -14 12847.2 2077.70   1
   5  -4 -14 12784.2 2122.36   1
  -5   1  14 12795.5 2099.46   1
  -5   4  14 15100.5 2235.45   1
   1  -5  14 13137.9 2005.87   1
   5  -1 -14 11492.9 2002.16   1
  -5   1  14 12015.5 2168.96   2
   5  -4 -13 521.814 480.279   1
  -5   1  13 130.059 242.403   1
  -4   5 -13-44.5125 203.085   1
  -5   1  13-683.691 681.016   2
  -5   4  13 615.012 502.850   1
   4  -5  13 397.537 452.555   1
   1  -5  13 775.133 534.585   1
   5  -1 -13 421.693 536.432   1
  -1   5 -13 287.310 366.482   1
  -1   5 -11 4923.78 1146.17   1
   5  -1 -11 8039.37 1501.14   1
  -5   4  11 6558.74 1330.88   1
   1  -5  11 5588.26 1281.34   1
  -5   1  11 4972.64 1098.38   2
   5  -4 -11 7811.83 1552.23   1
  -5   1  11 6656.84 1333.02   1
   4  -5  11 6044.27 1342.17   1
  -4   5 -11 8028.66 1541.01   1
  -4  -1 -10 16619.1 1972.33   2
  -5   1  10 12466.9 1880.46   1
   5  -1 -10 18568.0 2225.95   1
  -4   5 -10 16690.4 2087.13   1
   4  -5  10 17368.0 2076.73   1
  -1   5 -10 16445.6 2181.63   1
  -5   4  10 15142.5 1892.95   2
   5  -4 -10 12485.6 1872.25   1
   1  -5  10 16587.6 2102.30   1
  -5   1  10 16383.3 2122.21   2
  -5   4  10 14421.9 1911.33   1
  -4  -1  -9 5144.78 1106.26   2
  -5   4   9 5271.17 1159.22   1
   5  -1  -9 5444.06 1205.13   1
  -5   1   9 4159.32 946.386   1
   4  -5   9 5138.99 1197.04   1
  -5   1   9 4990.97 1144.64   2
  -5   4   9 5176.29 1078.68   2
   5  -4  -9 4552.97 1178.58   1
   1  -5   9 5050.68 1150.46   1
  -4   5  -9 6335.08 1258.16   1
  -1   5  -9 4118.73 1133.61   1
  -5   1   8 457693. 10550.9   1
  -5   4   8 393309. 9124.76   2
   1  -5   8 399307. 10116.2   1
  -4   5  -8 402498. 9742.85   1
   5  -1  -8 417990. 10267.4   1
  -5   4   8 475031. 10769.5   1
  -5   1   8 442094. 10533.1   2
  -1   5  -7 40096.9 3129.76   1
  -5   1   7 46044.7 3290.27   2
  -4  -1  -7 46550.2 2997.83   2
  -5   4   7 51766.1 3435.31   1
   5  -4  -7 49698.0 3419.63   1
  -4   5  -7 39392.7 2994.16   1
   1   4   7 51567.8 2353.81   1
   1  -5   7 50779.0 3438.23   1
   5  -1  -7 40552.0 3150.95   1
   4  -5   7 58183.0 3768.28   1
  -5   4   7 44352.8 2972.82   2
  -5   1   7 45710.0 3348.16   1
  -4  -1  -6 44556.0 1786.81   1
  -5   1   6 34120.4 2839.64   2
  -5   4   6 35973.8 2625.43   2
  -5   4   6 24595.7 2448.26   1
  -4   5  -6 39163.1 2850.36   1
   1   4   6 41106.9 2202.99   1
   1  -5   6 40226.5 2982.74   1
  -1  -4  -6 22420.3 1497.88   2
  -1   5  -6 36850.2 2918.77   1
   5  -1  -6 42087.9 3074.55   1
  -4  -1  -6 38216.1 2681.51   2
   4  -5   6 34804.7 2846.96   1
   5  -4  -6 39601.7 2924.30   1
  -1  -4  -6 42454.0 2198.94   1
   4   1   6 40729.6 1752.83   1
  -5   1   6 35820.9 2817.05   1
   5  -1  -5 8280.89 1442.41   1
   1   4   5 7616.92 980.138   1
  -1  -4  -5 13362.7 1209.13   2
  -1  -4  -5 9814.79 1067.06   1
   4   1   5 10089.3 1003.39   1
  -1   5  -5 11117.3 1577.28   1
  -4   5  -5 9799.96 1434.52   1
   1  -5   5 8992.53 1400.08   1
   4  -5   5 10673.3 1546.14   1
  -4  -1  -5 8431.95 892.764   1
  -5   4   5 9594.90 1328.76   2
  -5   1   5 9088.77 1428.12   1
  -4  -1  -5 11614.0 1530.55   2
   5  -4  -5 10397.5 1477.72   1
  -5   4   5 8134.98 1351.28   1
  -5   1   5 9942.89 1454.15   2
  -4  -1  -3 14639.0 1374.99   1
  -5   1   3 13328.2 1672.39   2
  -5   4   3 14414.5 1681.11   1
   4  -5   3 16171.8 1798.82   1
   5  -1  -3 13796.1 1679.38   1
  -1  -4  -3 14381.2 1392.02   2
   4   1   3 13934.4 1408.32   1
  -1   5  -3 14724.3 1749.14   1
  -5   1   3 16149.2 1762.03   1
  -4  -1  -3 15634.5 1609.66   2
  -1  -4  -3 21543.1 1804.12   1
   1  -5   3 14857.9 1821.69   1
   5  -4  -3 16147.2 1744.48   1
   1   4   3 14429.3 1494.57   1
  -4   5  -3 12796.2 1563.68   1
  -5   4   3 13813.8 1553.90   2
  -1  -4  -2 197575. 5338.05   2
   1   4   2 154443. 4998.37   1
  -1   5  -2 174095. 5885.78   1
  -4   5  -2 205558. 6163.90   1
   4   1   2 201310. 5430.11   1
   5  -4  -2 196319. 6200.55   1
  -5   4   2 206073. 6101.05   2
  -4  -1  -2 215008. 5472.57   1
  -5   1   2 206546. 6533.36   2
  -4  -1  -2 235485. 6632.94   2
  -1  -4  -2 220639. 5849.46   1
  -5   4   2 181306. 5960.42   1
   1  -5   2 193761. 6437.36   1
  -5   1   2 198024. 6155.64   1
   4  -5   2 210187. 6485.81   1
   5  -1  -2 180952. 6001.92   1
  -1  -4  -1 20885.3 1811.17   2
   5  -4  -1 25145.4 2186.93   1
  -4  -1  -1 27771.7 2277.54   2
  -5   4   1 24605.0 2195.78   2
   4   1   1 19553.0 1775.09   1
  -5   4   1 24602.6 2179.15   1
   5  -1  -1 24321.2 2169.95   1
   1  -5   1 17707.6 1901.66   1
  -1  -4  -1 31541.7 2244.27   1
  -4  -1  -1 24914.5 1912.43   1
  -1   5  -1 15163.3 1673.29   1
  -4   5  -1 25386.8 2201.14   1
   4  -5   1 22603.5 2076.51   1
   1   4   1 16638.6 1670.29   1
  -5   1   1 20799.2 2001.30   2
  -5   1   1 20205.6 1961.38   1
  -5   1  -1-84.1049 211.206   1
  -4  -1   1-8.27842 307.068   2
   1  -5  -1 509.406 318.984   1
   5  -1   1-140.283 314.998   1
  -5   4  -1 124.560 346.884   2
  -5   4  -1 172.461 198.764   1
  -1  -4   1 201.140 215.837   2
  -4   5   1 94.3640 320.757   2
  -4   5   1 411.242 369.968   1
  -1   5   1 377.381 315.934   1
   5  -4   1-84.2581 358.632   1
  -5   1  -1 289.941 271.472   2
  -1  -4   1 678.223 307.675   1
  -4  -1   1 43.7604 369.585   1
   1   4  -1 28.5007 135.196   1
   4   1  -1 195.619 313.025   1
   4  -5  -1 1035.72 676.733   1
  -1   5   2 81055.6 3718.21   1
  -5   1  -2 97234.7 3926.12   1
  -5   4  -2 83351.0 4181.37   2
  -1  -4   2 83196.6 4015.62   1
  -5   4  -2 84376.3 3994.87   1
  -4  -1   2 89806.5 4108.04   1
   4  -5  -2 70320.5 3826.62   1
   1  -5  -2 65462.2 3467.57   1
   1   4  -2 85885.7 4012.40   1
   5  -1   2 81595.4 3646.45   1
  -4   5   2 92919.4 4044.35   2
   4   1  -2 85917.9 4061.15   1
  -4  -1   2 77790.1 3990.87   2
   5  -4   2 91654.9 4239.00   1
  -5   1  -2 85695.6 4146.82   2
  -1  -4   2 83856.0 4134.11   2
  -4   5   2 90569.4 4202.63   1
  -4  -1   3 4829.64 1051.49   2
  -4   5   3 4897.56 971.465   1
  -5   4  -3 4455.15 948.317   1
  -1  -4   3 5911.69 1140.47   1
   4  -5  -3 3135.45 782.162   1
   5  -1   3 5598.80 905.521   1
   1  -5  -3 6092.61 1023.41   1
  -5   1  -3 5409.14 1104.98   2
  -5   1  -3 6399.72 980.781   1
   1   4  -3 6896.95 1157.15   1
  -1  -4   3 7251.55 1284.79   2
   4   1  -3 4657.33 944.716   1
  -4  -1   3 4586.18 874.180   1
  -1   5   3 5913.76 950.332   1
  -4   5   3 3899.01 863.901   2
  -5   4  -3 5494.04 1065.75   2
   5  -4   3 6191.91 1106.75   1
  -5   1  -5 43765.7 3015.49   2
  -1  -4   5 59040.6 3486.78   1
   1   4  -5 45332.7 3108.61   1
  -1   5   5 53958.4 3011.50   1
   5  -4   5 57642.8 3391.12   1
  -4  -1   5 52200.2 3347.06   1
   4  -5  -5 31547.2 2588.02   1
  -5   1  -5 44317.6 2465.54   1
   5  -1   5 53258.5 2630.83   1
   1  -5  -5 33819.7 1765.37   2
  -4   5   5 57652.2 2926.51   2
  -5   4  -5 55959.8 3731.42   2
   4   1  -5 48179.1 3327.59   1
  -1  -4   5 62137.4 3907.08   2
  -4   5   5 46396.2 3047.79   1
  -5   4  -5 58484.8 3273.45   1
  -4  -1   5 46412.5 3152.17   2
   4   1  -6 48925.8 3336.01   1
  -1  -4   6 46772.2 3488.99   2
  -5   1  -6 43956.9 2398.09   1
  -5   4  -6 59064.8 3787.60   2
   1  -5  -6 49926.4 2941.75   1
  -1  -4   6 42203.8 3005.72   1
   5  -4   6 52179.6 3288.76   1
  -4   5   6 30753.3 2144.76   2
  -5   1  -6 38392.1 2911.23   2
   1   4  -6 38814.6 2937.93   1
  -4  -1   6 43019.4 3182.97   1
   4  -5  -6 41086.8 3013.09   1
  -5   4  -6 31901.3 2497.85   1
  -1   5   6 40661.1 2610.51   1
   5  -1   6 39804.6 2304.43   1
  -4  -1   6 43052.0 3169.72   2
  -4   5   7 7089.87 968.354   2
  -1   5   7 6386.16 1081.87   1
  -1  -4   7 6103.24 1238.66   1
  -5   4  -7 8078.92 1301.70   1
   4  -5  -7 6271.41 1236.10   1
  -4  -1   7 8743.45 1459.47   2
   5  -1   7 7136.19 916.845   1
  -5   1  -7 5317.57 1186.18   2
   1   4  -7 5597.29 1117.58   1
   1  -5  -7 8565.60 1192.67   1
   5  -4   7 8162.15 1334.21   1
  -4  -1   7 6597.86 1312.54   1
  -4   5   7 6409.36 1253.50   1
  -1  -4   7 6360.48 1312.14   2
   4   1  -7 4218.58 1005.45   1
  -5   1  -7 7713.13 938.430   1
  -4  -1   8 355655. 9675.01   2
   4   1  -8 395591. 10076.8   1
  -5   4  -8 410262. 9144.19   1
  -1  -4   8 494635. 11923.7   2
  -1   5   8 278033. 6991.50   1
  -4  -1   8 458851. 10720.2   1
  -4   5   8 532982. 11180.9   1
   4  -5  -8 348078. 8946.80   1
   1   4  -8 494586. 11000.3   1
  -1  -4   8 426889. 10272.9   1
  -4   5   9 13821.9 1817.64   1
   4  -5  -9 14716.2 1864.83   1
   5  -4   9 17245.3 1975.87   1
  -1  -4   9 12785.9 1812.66   1
  -5   1  -9 10951.7 1686.63   2
   4   1  -9 13658.8 1875.99   1
  -4  -1   9 13944.2 1919.92   1
  -1   5   9 8530.85 1250.67   1
  -1  -4   9 14763.2 2052.37   2
   1   4  -9 12223.2 1814.45   1
  -5   4  -9 13971.2 1768.41   1
  -4  -1   9 12422.2 1876.14   2
   4   1 -10 8800.94 1610.06   1
  -1  -4  10 10338.5 1785.23   2
  -5   4 -10 9972.38 1487.85   1
   4  -5 -10 7462.89 1365.86   1
  -4  -1  10 9827.40 1591.03   2
  -4  -1  10 8024.87 1444.66   1
   5  -4  10 9950.77 1563.23   1
  -4   5  10 4849.51 1093.31   1
  -5   1 -10 10492.3 1675.92   2
  -1  -4  10 4287.22 1158.45   1
   1   4 -10 8905.37 1584.31   1
   5  -4  11 1703.90 674.899   1
  -4  -1  11 1432.23 694.047   2
  -4   5  11 707.086 432.788   1
  -5   4 -11 1169.87 530.782   1
   4  -5 -11 1456.88 539.890   1
   4   1 -11 1469.22 837.738   1
   1   4 -11 1573.66 559.249   1
  -4  -1  11 1828.64 864.153   1
  -1  -4  11 1756.57 613.080   2
  -1  -4  11 1432.26 726.383   1
  -4  -1  13 273.484 229.094   1
  -4   5  13 29.4247 310.428   1
  -1  -4  13 153.755 336.634   1
  -4  -1  13 31.7294 218.205   2
   1   4 -13 12.8732 219.520   1
   4   1 -13 484.716 452.361   1
  -1  -4  13-32.1620 290.254   2
  -4  -1  14 3708.19 1181.30   1
  -1  -4  14 5373.46 1373.21   2
   1   4 -14 4579.67 1243.54   1
   4   1 -14 6456.36 1453.29   1
  -1  -4  14 4806.33 1353.79   1
  -4  -1  14 5887.25 1515.61   2
  -4  -1  15 963.871 690.935   1
  -1  -4  15 701.419 486.985   1
   4   1 -15 788.014 685.965   1
  -1  -4  15 898.530 690.029   2
   1   4 -15 1336.24 781.593   1
  -4  -1  15 755.447 652.789   2
  -4  -1  16 125800. 6798.96   1
  -1  -4  16 125143. 7248.55   2
  -1  -4  16 144590. 7408.09   1
   4   1 -16 148789. 7584.39   1
   1   4 -16 128036. 6869.13   1
  -4  -1  16 133204. 7297.06   2
  -1  -4  17 1708.26 974.951   2
   1   4 -17 1854.87 877.254   1
  -4  -1  17 3021.27 1155.73   1
  -1  -4  17 2639.65 1110.62   1
   4   1 -17 1531.23 783.821   1
  -4  -1  18 3024.48 1030.18   1
   4   1 -18 2846.16 1100.41   1
  -1  -4  18 2312.04 1024.21   1
  -1  -4  18 1863.36 766.292   2
  -1  -4  19 996.360 555.130   2
  -5   5   0 356617. 8542.30   2
   5   0   0 318295. 7767.73   1
  -5   0   0 339253. 8578.84   2
  -5   5   0 357911. 8581.12   1
  -5   0   0 353168. 8011.57   1
   0  -5   0 298531. 7750.23   1
   0   5   0 338460. 8180.25   1
   0  -5   0 320919. 8149.11   2
   5  -5   0 349922. 8639.05   1
  -5   5   3 531998. 10828.9   1
   5  -5   3 525400. 10565.5   1
  -5   0  -4 30173.7 2076.11   1
   0   5  -4 27577.3 2486.29   1
   0  -5   4 22296.7 2183.82   1
  -5   5  -4 23923.9 2164.73   1
  -5   5   4 22606.0 2094.25   2
  -5   5   4 21239.7 2150.51   1
  -5   0   4 20323.2 2113.87   1
   5  -5   4 20345.5 2124.08   1
   5   0   4 22433.9 1822.49   1
   0  -5  -4 21712.3 1952.88   1
   5   0  -4 23626.2 2360.81   1
   5  -5  -4 25957.9 2393.37   1
   0  -5  -4 23094.9 1682.99   2
  -5   0  -4 18923.1 2036.12   2
   0   5   4 28755.3 2292.82   1
  -5   0   4 26791.4 2540.14   2
   0  -5  -5 34855.1 1887.24   2
   5   0   5 36047.2 2185.48   1
  -5   5   5 29604.0 2653.08   1
   0   5  -5 34410.1 2743.36   1
  -5   0  -5 39595.9 2875.01   2
  -5   0  -5 33134.0 2095.82   1
   5   0  -5 29920.0 2574.36   1
   0  -5   5 33405.4 2762.03   1
   5  -5   5 31900.8 2638.47   1
   0   5   5 31964.5 2278.08   1
  -5   5   5 25309.9 2169.54   2
   5  -5  -5 35814.6 2776.11   1
  -5   0   5 27045.2 2476.79   1
  -5   0   5 27384.5 2602.33   2
  -5   5  -5 30792.5 2588.23   1
  -5   5   6 3933.29 926.880   1
  -5   0  -6 2829.96 847.116   2
   5  -5   6 3633.99 992.929   1
   5  -5  -6 3231.21 888.008   1
  -5   5  -6 3094.97 873.008   1
   5   0   6 3072.03 596.600   1
  -5   0  -6 3056.21 581.555   1
  -5   5   6 3594.20 873.859   2
  -5   0   6 2452.26 799.016   1
   5   0  -6 3545.24 900.305   1
   0  -5   6 3006.88 871.615   1
   0   5   6 2112.16 557.409   1
   0  -5  -6 2090.77 605.516   1
  -5   0   6 2490.31 808.526   2
   0   5  -6 2586.01 798.875   1
   0  -5   7 1664.95 734.866   1
   5  -5   7 1823.96 682.773   1
  -5   5   7 1554.18 415.771   2
  -5   0   7 2315.29 921.025   2
   0   5   7 2114.88 550.664   1
  -5   5   7 1558.81 592.177   1
   0   5  -7 2412.18 878.505   1
  -5   5  -7 2303.54 756.485   1
  -5   0  -7 2718.39 655.448   2
  -5   0   7 1235.09 618.610   1
   0  -5  -7 1935.57 547.368   1
   5   0  -7 1951.12 744.756   1
   5  -5  -7 2291.65 721.576   1
  -5   5   8 6256.59 1292.98   1
   5   0  -8 6505.35 1299.01   1
   5  -5   8 6248.06 1213.62   1
   0  -5   8 5285.99 1170.13   1
  -5   0   8 4908.88 1149.23   1
  -5   0  -8 3849.83 999.110   2
  -5   5  -8 5589.02 1182.25   1
   5  -5  -8 4846.34 1094.84   1
  -5   0   8 6567.53 1346.21   2
   0   5  -8 5258.39 1204.32   1
  -5   5   8 7013.85 1123.35   2
  -5   0   9 149235. 6383.27   1
   0  -5   9 144966. 6235.26   1
  -5   5  -9 132449. 5840.37   1
  -5   0   9 151744. 6508.08   2
   5  -5  -9 187983. 6859.49   1
   5   0  -9 186597. 7230.03   1
  -5   0  -9 144752. 6127.76   2
   5  -5   9 153343. 6356.12   1
  -5   5   9 169479. 6673.61   1
   0   5  -9 167695. 6755.16   1
  -5   5  10 708640. 14023.4   1
  -5   0 -11 411401. 11284.5   2
   0  -5  11 349613. 10182.1   1
  -5   5 -11 438434. 10960.1   1
  -5   5  11 433933. 11181.0   1
   5  -5 -11 472689. 11481.8   1
   5   0 -11 461689. 11991.9   1
   5  -5  11 395554. 10459.4   1
  -5   0  11 363750. 10393.1   1
  -5   0  11 388514. 10951.3   2
   0   5 -11 463568. 11867.9   1
   0  -5  12 154143. 6834.81   1
  -5   5  12 154636. 6825.56   1
  -5   5 -12 143317. 6479.34   1
  -5   0  12 160822. 7130.93   1
   5  -5  12 158665. 6786.75   1
   5   0 -12 158512. 7149.64   1
   0   5 -12 160385. 7143.17   1
  -5   0  12 155985. 7180.09   2
  -5   0  13 253980. 9349.34   2
  -5   0  13 244674. 9000.45   1
  -5   5  13 257447. 9048.46   1
   5  -5 -13 279166. 9315.66   1
   5   0 -13 239385. 9006.82   1
   0   5 -13 254199. 9161.74   1
   0  -5  14 519098. 13435.9   1
   0  -5  14 429639. 12992.6   2
  -5   5  14 613235. 14193.4   1
   0   5 -14 431260. 12323.9   1
  -5   0  14 345964. 10885.4   1
   5   0 -14 562987. 14193.1   1
  -5   0  14 437216. 12714.0   2
   5   0 -15 58970.4 4609.22   1
   0  -5  15 59249.4 4553.24   1
  -5   0  15 51304.1 4328.40   1
   0   5 -15 61940.0 4853.21   1
  -5   0  15 44913.6 4329.13   2
   0  -5  15 50064.1 4536.86   2
   0  -5  16 3865.67 1355.23   2
  -5   0  16 6349.24 1491.64   1
   5   0 -16 4238.18 1239.83   1
   0  -5  16 5668.92 1521.76   1
   0   5 -16 5584.69 1513.47   1
  -5   0  17 10191.7 2007.22   1
   0  -5  17 10918.2 2074.20   1
   0   5 -17 12035.1 2219.83   1
   5   0 -17 10757.2 2037.30   1
   0  -5  17 8070.70 1912.22   2
  -5   0  18 14492.2 2433.55   1
   5   0 -18 13445.9 2487.76   1
   0  -5  18 14370.3 2438.91   1
   0  -5  18 6292.91 1773.19   2
   0  -5  19 5157.30 1489.41   2
  -6   3  17 213.562 392.741   1
   6  -3 -16 159714. 8254.84   1
  -6   3  16 240008. 9601.36   1
   6  -3 -15 204.292 513.702   1
  -3   6 -15 75.4476 437.103   1
   3  -6  15 167.744 394.233   1
  -6   3  15-398.018 202.852   1
   6  -3 -14 181198. 8144.35   1
  -3   6 -14 167776. 7775.42   1
   3  -6  13 411.536 467.428   1
  -6   3  13 21.4710 252.214   1
   6  -3 -13 31.5706 291.495   1
  -3   6 -13 624.425 635.720   1
   3  -6  12 364959. 10934.5   1
   6  -3 -12 383239. 11322.3   1
  -6   3  12 380333. 10780.5   2
  -3   6 -11 84.5441 192.438   1
   3  -6  11 204.195 398.055   1
  -6   3  11-306.449 426.387   1
   6  -3 -11 190.730 249.712   1
  -6   3  10 592693. 13108.9   2
  -6   3  10 477569. 11961.1   1
  -3   6 -10 446211. 11576.7   1
   3  -6  10 535824. 12514.7   1
   6  -3 -10 518659. 12553.3   1
   3  -6   9 401.132 341.611   1
  -3   6  -9 1351.10 618.473   1
   6  -3  -9 367.735 248.471   1
  -6   3   9-238.145 570.154   1
  -6   3   9 148.492 301.892   2
  -6   3   7-355.285 503.119   2
  -3   6  -7 337.720 339.823   1
   6  -3  -7 347.473 354.604   1
  -6   3   7 326.563 503.724   1
  -3  -3  -7 31.8703 290.395   2
   3  -6   7 224.382 342.880   1
   6  -3  -6 150628. 6275.39   1
  -3   6  -6 128286. 5621.10   1
  -6   3   6 151409. 6198.78   1
   3  -6   6 151735. 6264.87   1
  -6   3   6 135362. 5824.14   2
   6  -3  -5-68.9472 294.330   1
   3   3   5 288.104 209.060   1
  -6   3   5-150.448 442.219   2
  -6   3   5 14.0993 318.421   1
  -3  -3  -5 146.887 167.538   1
   3  -6   5 216.723 538.728   1
  -3  -3  -5 890.833 300.695   2
  -3   6  -5 151.537 402.145   1
  -6   3   3-176.570 451.218   1
  -3  -3  -3-278.813 396.393   2
  -3   6  -3-117.765 448.034   1
   3   3   3 227.744 263.907   1
   6  -3  -3 625.425 527.632   1
  -3  -3  -3 5.05202 138.651   1
  -6   3   3 76.5701 196.992   2
   3  -6   3 574.500 217.487   1
  -3   6  -2 454737. 9915.90   1
  -6   3   2 464763. 10134.4   1
  -3  -3  -1-185.477 239.910   2
  -6   3   1 537.080 423.915   1
  -6   3   1 229.902 255.084   2
   6  -3  -1-196.685 326.716   1
  -3  -3  -1-350.101 297.988   1
   3   3   1-49.6221 248.621   1
  -3   6  -1 205.612 287.575   1
   3  -6   1-335.357 437.920   1
   3  -6   0 221895. 7184.14   1
  -3   6   0 180409. 6266.28   1
  -6   3   0 247703. 7084.52   1
   3   3   0 194511. 6198.29   1
  -6   3   0 243033. 7313.76   2
  -3  -3   0 204036. 6327.54   2
   6  -3   0 222046. 6711.01   1
  -3  -3   0 235941. 6645.25   1
  -3   6   1 593.832 375.559   1
   3   3  -1-462.867 436.528   1
   6  -3   1-154.889 430.768   1
  -3  -3   1-0.59382 237.884   1
   3  -6  -1 75.7247 190.038   1
  -6   3  -1 1.19073 181.051   1
  -3  -3   1 273.145 458.100   2
  -6   3  -1-393.417 494.875   2
   3   3  -2 368091. 8917.05   1
  -3  -3   2 320994. 8335.65   2
  -6   3  -2 425853. 9748.64   2
  -3  -3   2 372616. 8873.00   1
  -3   6   2 357028. 8620.69   1
   6  -3   2 372129. 8620.08   1
   3  -6  -2 325129. 8454.46   1
  -6   3  -2 326462. 8086.05   1
   3   3  -3-197.542 435.646   1
  -3  -3   3-498.657 401.080   2
   6  -3   3-121.932 291.215   1
  -3   6   3 60.2085 370.672   1
  -3  -3   3 222.736 339.608   1
  -6   3  -3 228.986 499.191   2
   3  -6  -3 278.806 184.248   1
   6  -3   5 386.428 278.061   1
   3  -6  -5 88.2993 353.311   1
  -6   3  -5-98.2123 310.587   2
   3   3  -5 650.040 639.914   1
  -6   3  -5 113.547 212.629   1
  -3  -3   5-2.85798 281.966   1
  -3   6   5 442.758 340.451   1
  -3  -3   5-267.480 447.392   2
  -3   6   6 112703. 4962.66   1
  -3  -3   6 144415. 5951.61   1
   3   3  -6 128923. 5732.62   1
   3  -6  -6 153120. 5788.26   1
  -3  -3   6 111622. 5457.95   2
  -6   3  -6 129186. 5682.70   2
  -6   3  -6 133291. 5040.27   1
   6  -3   6 144075. 5399.88   1
  -3  -3   7-193.958 464.664   1
  -3  -3   7 264.208 351.821   2
  -6   3  -7 74.0516 247.623   2
   6  -3   7-309.772 273.031   1
  -6   3  -7 931.849 457.578   1
   3  -6  -7-123.145 339.815   1
  -3   6   7-391.726 339.771   1
   3   3  -7-318.849 398.336   1
   3  -6  -9 319.770 387.726   1
  -3   6   9 396.070 466.578   1
  -3  -3   9 498.537 329.727   2
   3   3  -9 163.821 249.546   1
  -6   3  -9 291.644 436.599   2
  -3  -3   9 913.419 670.282   1
   3   3 -10 740964. 14681.0   1
  -3  -3  10 726769. 15154.3   2
  -3  -3  11 986.810 627.637   2
   3   3 -11-454.772 334.194   1
  -3  -3  11 333.649 380.349   1
   3   3 -12 319612. 10120.0   1
  -3  -3  12 323268. 10550.7   2
  -3  -3  13 509.342 270.206   2
  -3  -3  13 807.268 495.098   1
   3   3 -13 13.3590 459.847   1
   3   3 -14 251042. 9577.99   1
  -3  -3  14 228393. 8997.07   1
  -3  -3  15-388.861 543.097   2
  -3  -3  15 100.357 306.039   1
   3   3 -15 273.816 452.240   1
  -3  -3  16 256562. 10254.4   2
   3   3 -16 266640. 10263.8   1
  -3  -3  17-139.299 370.809   1
   3   3 -17-252.478 549.724   1
  -3  -3  17 1.29334 485.034   2
  -3  -3  18 3478.67 1263.73   2
   3   3 -18 4254.79 1417.42   1
  -3  -3  18 4033.02 1299.90   1
   3   3 -19 545.999 863.643   1
  -3  -3  19 357.484 397.631   1
  -6   2  18 82427.3 5993.62   1
  -6   2  17 44847.0 4198.67   1
   6  -2 -17 32009.3 3723.67   1
  -6   4  16 902.321 768.715   1
   6  -4 -16 365.800 430.089   1
  -6   2  16 984.962 672.034   1
  -2   6 -16 644.569 533.095   1
   2  -6  16 629.914 361.739   1
   6  -2 -16 1072.62 769.524   1
  -6   2  15 49656.7 4277.60   1
   6  -2 -15 50982.6 4459.26   1
  -2   6 -15 58342.9 4717.49   1
   2  -6  15 60611.1 4693.19   1
   6  -2 -14 160735. 7651.61   1
  -6   4  14 154342. 7527.56   1
   4  -6  14 160232. 7486.41   1
  -4   6 -14 167419. 7764.84   1
  -6   2  14 173324. 7814.74   1
   2  -6  14 164756. 7519.00   1
  -2   6 -13 63840.1 4710.51   1
  -6   2  13 66000.0 4928.36   2
  -6   4  13 84176.6 5410.64   1
   6  -2 -13 55322.9 4451.62   1
  -4   6 -13 67905.2 4818.91   1
   2  -6  13 63443.1 4572.36   1
   4  -6  13 70947.5 4825.35   1
   6  -4 -13 75193.0 5101.59   1
  -6   2  13 72523.1 4863.74   1
  -6   2  12 35385.6 3409.64   1
  -6   4  12 31761.5 3242.25   1
   6  -4 -12 34179.5 3471.20   1
  -2   6 -12 37154.8 3512.50   1
   2  -6  12 38961.5 3487.25   1
  -4   6 -12 47435.4 3963.60   1
   4  -6  12 41438.6 3522.63   1
  -6   2  12 33240.5 3311.98   2
   6  -2 -12 26064.8 3067.10   1
   6  -4 -11 151892. 6815.88   1
  -6   4  11 139511. 6589.01   1
  -4   6 -11 146378. 6741.41   1
   4  -6  11 113631. 5945.44   1
  -6   2  11 150272. 6743.41   1
  -2   6 -11 160535. 7043.95   1
   6  -2 -11 124271. 6351.20   1
   2  -6  11 136374. 6487.99   1
  -6   2  11 132919. 6449.24   2
   6  -2 -10 422712. 11492.8   1
  -6   2  10 570967. 12961.4   2
  -6   4  10 396155. 11041.5   1
   2  -6  10 519297. 12609.8   1
   4  -6  10 526179. 12675.7   1
  -6   4  10 527441. 11957.6   2
   6  -4 -10 644148. 13917.8   1
  -6   2  10 514596. 12286.7   1
  -2   6 -10 577715. 13034.7   1
  -6   4   9 76398.0 4701.24   1
   6  -2  -9 64076.3 4392.89   1
   4  -6   9 72160.3 4529.38   1
   6  -4  -9 65656.6 4322.67   1
  -6   2   9 63507.1 4288.25   2
   2  -6   9 51574.7 3907.97   1
  -6   4   9 79185.5 4559.43   2
  -4   6  -9 73808.9 4543.09   1
  -2   6  -9 67679.1 4386.58   1
  -6   2   9 75048.1 4580.33   1
   2  -6   8 222489. 7740.16   1
   4  -6   8 242230. 8258.12   1
  -6   4   8 233959. 7804.40   2
  -6   2   8 249495. 8145.25   1
   6  -2  -8 263548. 8647.90   1
  -2   6  -8 257337. 8381.85   1
  -6   2   8 231142. 7920.10   2
  -4   6  -8 294253. 8791.10   1
  -6   4   8 218741. 7906.93   1
  -4  -2  -8 294688. 8054.36   2
   6  -4  -8 218986. 7697.47   1
  -6   4   7 73150.9 4357.31   1
  -6   2   7 69784.1 4295.89   2
   6  -4  -7 77886.6 4429.36   1
  -6   2   7 66058.0 4146.96   1
  -6   4   7 77643.1 4416.55   2
   6  -2  -7 83308.2 4768.17   1
  -2   6  -7 65970.0 4102.42   1
   2  -6   7 63278.1 4073.36   1
  -4  -2  -7 77046.1 4009.30   2
  -4   6  -7 74252.9 4306.29   1
   4  -6   7 75260.8 4528.53   1
  -6   4   6 620897. 12367.9   1
   6  -2  -6 693744. 13686.4   1
   2  -6   5 632166. 12716.1   1
   6  -2  -4 584.323 298.477   1
  -6   2   4 1099.68 660.993   2
  -6   4   4 825.190 547.212   1
  -4  -2  -4 991.540 362.854   1
  -2  -4  -4 833.676 325.902   2
   2   4   4 3089.63 708.044   1
  -6   4   4 1420.94 461.721   2
  -2   6  -4 1165.77 386.516   1
   4   2   4 1439.40 484.508   1
  -4   6  -4 1930.00 613.519   1
  -2  -4  -4 455.254 345.784   1
  -4  -2  -4 997.431 566.938   2
   2  -6   4 1288.55 447.481   1
   4  -6   4 1226.32 746.596   1
  -6   2   4 517.352 323.461   1
   6  -4  -4 1182.34 598.270   1
   2   4   1 42355.5 2783.08   1
  -2  -4  -1 35120.6 2574.67   2
  -6   2   1 37674.5 2817.71   1
  -4  -2  -1 40022.0 2895.01   2
  -4   6  -1 33490.3 2697.27   1
   2  -6   1 37939.6 3007.28   1
   4  -6   1 38322.4 2972.20   1
   4   2   1 37524.8 2590.57   1
  -2  -4  -1 30476.2 2361.63   1
   6  -4  -1 37464.4 2792.95   1
   6  -2  -1 34517.3 2728.00   1
  -2   6  -1 41607.9 3038.09   1
  -6   4   1 41365.0 3003.06   2
  -4  -2  -1 46906.4 2872.62   1
  -6   4   1 41205.3 2994.60   1
  -6   2   1 36162.5 2976.20   2
   4  -6   0 4253.37 1044.23   1
  -6   4   0 2469.89 719.455   1
  -2  -4   0 4264.97 862.187   1
   6  -4   0 2760.00 804.817   1
  -4  -2   0 2799.49 772.041   2
   4   2   0 3492.70 889.199   1
  -4  -2   0 3713.84 842.905   1
  -6   2   0 3122.87 828.622   1
  -4   6   0 3441.41 803.612   1
   2   4   0 2316.47 614.451   1
   6  -2   0 3764.53 841.392   1
  -2  -4   0 2905.86 661.076   2
  -6   4   0 2588.19 857.773   2
  -2   6   0 4489.87 967.562   1
   2  -6   0 4400.18 1036.88   1
  -6   2   0 2176.48 488.329   2
  -6   2  -1 82730.2 4074.75   1
   6  -4   1 83726.5 4199.48   1
   4  -6  -1 106474. 4904.71   1
   6  -2   1 78604.8 3982.19   1
  -6   4  -1 75395.0 4129.08   2
  -4  -2   1 67655.3 3737.59   1
  -4  -2   1 93780.9 4583.08   2
  -6   4  -1 87955.7 4398.71   1
  -6   2  -1 77746.1 4263.69   2
   4   2  -1 77150.6 3988.89   1
  -2   6   1 59323.2 3452.33   1
  -2  -4   1 68173.9 3625.05   1
   2   4  -1 84443.2 4209.23   1
  -4   6   1 75439.7 4034.79   1
   2  -6  -1 67329.5 3887.24   1
  -2  -4   1 100771. 4522.12   2
  -2   6   3 376130. 9005.32   1
  -2  -4   3 449791. 10467.4   2
  -4   6   3 446920. 9947.18   1
  -6   4  -3 422840. 10046.8   2
  -4  -2   3 414111. 9686.56   1
   4   2  -3 414985. 9673.05   1
  -4  -2   3 504315. 10822.9   2
   4  -6  -3 561670. 11222.0   1
   6  -4   3 471041. 10270.2   1
  -6   2  -3 436028. 10011.2   2
  -2  -4   3 432405. 9624.63   1
  -6   4  -4 765276. 13773.5   2
   6  -4   5 197857. 6625.90   1
  -4  -2   5 215595. 7315.52   1
  -4   6   5 139001. 5716.44   1
  -6   2  -5 215819. 6192.32   1
   6  -2   5 214328. 6207.72   1
  -2  -4   5 294359. 8685.81   2
  -2  -4   5 204689. 6924.29   1
  -2   6   5 178860. 6158.75   1
  -6   4  -5 230453. 7780.39   2
   2   4  -5 222580. 7229.51   1
   4   2  -5 185118. 6714.34   1
   2  -6  -5 189742. 6471.93   1
  -6   4  -5 248418. 7193.89   1
  -4  -2   5 201911. 7167.81   2
  -6   2  -5 215269. 7217.37   2
   4  -6  -5 271354. 8042.29   1
  -2   6   7 206394. 6545.23   1
  -4  -2   7 293587. 8818.59   1
  -6   2  -7 246462. 6520.05   1
  -6   2  -7 280926. 8579.96   2
  -4   6   7 325052. 8902.25   1
  -6   4  -7 262445. 8598.46   2
   6  -4   7 269448. 7832.57   1
  -6   4  -7 339039. 8521.04   1
  -2  -4   7 305647. 8836.54   1
  -4  -2   7 234865. 7947.24   2
   2   4  -7 235434. 7830.29   1
   2  -6  -7 270201. 7784.92   1
  -2  -4   7 326971. 9671.43   2
   4   2  -7 258865. 8181.13   1
   6  -2   7 284975. 7104.57   1
   4  -6  -7 193549. 7045.66   1
  -2  -4   8 23229.3 2579.01   2
   2   4  -8 23940.5 2582.70   1
  -4   6   8 18243.3 2145.60   1
  -6   4  -8 21382.4 2487.02   2
  -4  -2   8 21313.7 2398.50   2
  -4  -2   8 21174.0 2398.30   1
   4   2  -8 21364.4 2425.60   1
   6  -4   8 20743.5 2238.20   1
  -6   2  -8 21101.3 2402.27   2
  -2  -4   8 21609.0 2414.01   1
   2  -6  -8 28940.9 2575.66   1
  -6   4  -8 19829.6 2123.22   1
  -2   6   8 26768.7 2348.17   1
   4  -6  -8 27485.0 2694.04   1
   4  -6  -9 207321. 7540.16   1
  -2  -4   9 315347. 9822.65   2
  -6   2  -9 319147. 9896.32   2
  -4  -2   9 349538. 10103.2   2
  -4  -2   9 276540. 9026.04   1
   4   2  -9 384226. 10570.8   1
  -2   6   9 372267. 8897.04   1
  -2  -4   9 299813. 9269.05   1
  -4   6   9 343463. 9562.98   1
   2  -6  -9 413927. 9770.87   1
   6  -4   9 340960. 9019.66   1
   2   4  -9 363645. 10216.1   1
  -6   4  -9 315939. 8423.09   1
   4  -6 -10 345615. 9828.22   1
   4   2 -10 356142. 10301.4   1
  -2  -4  10 353320. 10175.9   1
   6  -4  10 411775. 10247.3   1
   2   4 -10 302811. 9501.94   1
  -4  -2  10 319307. 9868.00   1
  -4   6  10 458721. 11119.7   1
  -6   2 -10 363085. 10636.7   2
  -2  -4  10 446546. 12056.9   2
  -4  -2  10 493205. 12203.6   2
   4  -6 -11 115758. 5819.81   1
  -2  -4  11 136749. 6473.65   1
  -4  -2  11 128649. 6333.34   1
   4   2 -11 146174. 6677.61   1
  -4   6  11 143418. 6390.22   1
   2   4 -11 143827. 6863.52   1
  -4  -2  11 101243. 5868.28   2
  -2  -4  11 163675. 7460.44   2
  -2  -4  12 40330.9 3737.87   2
  -4  -2  12 36528.7 3425.65   1
  -4  -2  12 50378.4 4064.78   2
   2   4 -12 50637.0 4040.93   1
   4   2 -12 48009.3 3938.32   1
  -4   6  12 28885.4 2946.31   1
  -2  -4  12 42021.4 3633.31   1
  -2  -4  13 74863.1 5209.36   2
  -4  -2  13 65906.0 4814.77   2
  -4  -2  13 64329.8 4670.29   1
   2   4 -13 72946.6 4910.59   1
   4   2 -13 79829.8 5220.68   1
  -2  -4  13 70399.9 4884.56   1
   2   4 -14 200199. 8481.05   1
  -4  -2  14 230221. 9223.13   2
  -2  -4  14 235713. 9502.68   2
  -2  -4  14 243525. 9270.66   1
   4   2 -14 282018. 10122.7   1
  -4  -2  14 172965. 7843.86   1
  -2  -4  15 26030.0 3242.46   2
  -4  -2  15 21375.8 2934.75   2
  -2  -4  15 21812.7 2797.27   1
   4   2 -15 22743.1 2908.86   1
  -4  -2  15 24567.5 3025.55   1
   2   4 -15 16321.7 2390.97   1
  -4  -2  16 69541.8 5368.85   2
  -2  -4  16 75323.9 5627.24   2
   4   2 -16 56815.1 4757.51   1
   2   4 -16 52605.4 4584.57   1
  -4  -2  16 56138.3 4603.21   1
  -2  -4  16 67021.4 5104.02   1
  -4  -2  17 15681.0 2628.44   2
  -2  -4  17 15244.3 2424.80   1
  -4  -2  17 15741.8 2508.83   1
   2   4 -17 14040.6 2424.09   1
  -2  -4  17 14720.7 2485.63   2
   4   2 -17 14959.0 2489.06   1
  -4  -2  18 109496. 6648.31   1
  -2  -4  18 93742.5 6389.86   1
   4   2 -18 99584.7 6616.78   1
   2   4 -18 104045. 6683.86   1
  -4  -2  19 51910.2 4689.77   1
  -2  -4  19 64318.0 5274.37   1
   4   2 -19 57109.7 5113.20   1
   1  -6  19 1728.68 1114.50   2
   6  -1 -18 24592.8 3424.17   1
   1  -6  18 29507.5 3624.32   2
  -6   1  18 35711.9 3917.13   1
   1  -6  17 30426.6 3722.98   2
   6  -1 -17 28541.9 3487.16   1
   1  -6  17 46449.2 4348.53   1
  -1   6 -17 32104.5 3739.74   1
  -6   1  17 51517.2 4553.96   1
  -1   6 -16 30978.8 3506.45   1
   6  -1 -16 26326.2 3224.81   1
   1  -6  16 24306.2 3076.21   1
  -6   1  16 27192.0 3291.37   1
   6  -1 -15 51355.2 4504.62   1
  -6   1  15 39506.9 3855.14   1
   1  -6  15 52493.7 4443.95   1
   6  -5 -15 70545.3 5182.74   1
  -6   5  15 60028.3 4738.44   1
  -1   6 -15 54442.3 4533.12   1
  -6   1  14 301807. 10434.3   1
   6  -1 -14 274767. 10195.5   1
   1  -6  14 291475. 10100.9   1
  -6   5  14 246134. 9451.46   1
   6  -5 -14 272238. 9862.77   1
  -1   6 -14 255882. 9557.27   1
  -6   1  14 234277. 10053.9   2
   1  -6  13 62827.3 4593.98   1
  -6   1  13 56650.7 4420.25   1
  -6   5  13 57779.2 4470.33   1
  -5   6 -13 69327.9 4933.63   1
  -6   1  13 69491.6 5133.97   2
  -1   6 -13 61432.9 4668.01   1
   6  -1 -13 56217.0 4495.26   1
   6  -5 -13 62523.8 4575.19   1
   5  -6  13 63654.3 4578.96   1
   6  -5 -12 47442.4 3939.59   1
  -1   6 -12 33368.1 3373.70   1
   6  -1 -12 38355.6 3542.89   1
   1  -6  12 32321.7 3245.51   1
  -6   1  12 38891.6 3590.88   1
  -5   6 -12 32522.1 3282.05   1
   5  -6  12 39845.1 3631.26   1
  -6   5  12 32864.8 3225.71   1
  -6   1  12 40417.8 3798.61   2
  -6   1  11 168895. 7245.08   1
  -1   6 -11 193115. 7843.70   1
   1  -6  11 153235. 6913.12   1
  -5   6 -11 171531. 7225.75   1
   6  -1 -11 170653. 7431.57   1
  -6   1  11 158213. 7383.82   2
   5  -6  11 154339. 6964.11   1
  -6   5  11 189901. 7696.62   1
  -6   5  10 428518. 11508.6   1
  -1   6 -10 514896. 12568.6   1
  -6   1  10 622143. 13688.5   1
   6  -5 -10 610421. 13347.2   1
   6  -1 -10 668827. 14340.8   1
   1  -6  10 501788. 12280.2   1
  -5   6 -10 591852. 13423.1   1
   5  -6  10 574206. 13251.1   1
  -6   1  10 541028. 13215.2   2
  -5   6  -9 514172. 12088.9   1
  -1   6  -9 404725. 10906.1   1
  -6   5   9 441531. 11207.8   1
   1  -6   9 488784. 12047.6   1
   6  -5  -9 426960. 10991.9   1
   6  -1  -9 451826. 11624.8   1
  -6   5   9 434681. 10178.8   2
   5  -6   9 470298. 11730.0   1
  -5  -1  -9 500144. 11320.5   2
  -6   1   9 431175. 11507.3   2
  -6   1   9 422096. 11087.1   1
  -6   5   8 42705.5 3367.75   1
  -6   1   8 49620.2 3741.94   1
  -1   6  -8 45363.9 3509.49   1
   5  -6   8 49054.8 3820.04   1
   6  -5  -8 61591.9 3955.35   1
   6  -1  -8 47606.9 3702.81   1
  -6   5   8 41384.6 3134.04   2
  -5  -1  -8 67970.9 4102.34   2
  -5   6  -8 54185.3 3842.55   1
   1  -6   8 47669.6 3635.92   1
  -6   1   8 45867.6 3752.92   2
  -6   5   7 134511. 5498.76   2
  -1   6  -7 135436. 6131.56   1
  -6   1   7 135316. 6045.73   1
   6  -1  -7 104769. 5383.65   1
  -5  -1  -7 117221. 5249.28   2
  -5   6  -7 151205. 6144.00   1
   6  -5  -7 116890. 5426.55   1
  -6   1   7 126942. 5967.89   2
   5  -6   7 128495. 5876.34   1
   1  -6   7 146137. 6355.81   1
  -6   5   7 129554. 5781.56   1
  -6   1   6 325835. 9291.91   2
   6  -1  -6 328437. 9334.26   1
   6  -5  -6 359120. 9453.83   1
  -6   1   6 350826. 9417.51   1
  -1   6  -6 293033. 8833.58   1
   1  -6   6 346086. 9467.40   1
  -5  -1  -6 290821. 8248.97   2
  -1  -5  -6 312717. 7184.21   1
  -6   5   6 310436. 8926.15   1
   5  -6   6 311242. 9090.84   1
  -6   5   6 340933. 8740.76   2
  -5   6  -6 379783. 9520.67   1
   1   5   5 5535.24 996.342   1
  -6   1   5 4584.73 1028.90   2
  -5  -1  -5 3577.52 1095.09   2
  -5  -1  -5 4303.71 733.746   1
   1  -6   5 4274.53 969.575   1
  -6   1   5 3317.99 846.543   1
  -1   6  -5 4109.74 994.237   1
   6  -5  -5 5197.04 1172.59   1
  -5   6  -5 5104.02 1215.56   1
   6  -1  -5 4087.34 1099.24   1
  -6   5   5 3809.80 1036.27   2
  -1  -5  -5 3639.22 740.035   2
  -6   5   5 3512.44 905.777   1
   5   1   5 4520.88 817.950   1
  -1  -5  -5 5720.28 1018.57   1
   5  -6   5 3663.67 856.057   1
  -6   5   4 24601.4 2438.50   1
  -5  -1  -4 31509.0 2752.94   2
  -5  -1  -4 22211.2 1848.29   1
  -5   6  -4 25321.3 2418.48   1
   1   5   4 27473.1 2235.53   1
   5  -6   4 24874.7 2520.16   1
  -6   1   4 30714.3 2797.97   2
   5   1   4 25896.1 2115.63   1
   6  -1  -4 25361.6 2530.50   1
  -1  -5  -4 29484.9 2164.74   2
  -1   6  -4 17348.7 2081.49   1
  -1  -5  -4 26703.6 2196.00   1
   6  -5  -4 24186.7 2328.23   1
  -6   5   4 26338.7 2461.82   2
   1  -6   4 28652.8 2606.37   1
  -6   1   4 25638.8 2442.43   1
   5   1   3 268882. 7060.33   1
  -1  -5  -3 265264. 6817.56   2
   6  -5  -3 263945. 7841.64   1
  -6   5   3 236363. 7528.19   1
  -5  -1  -3 263037. 7698.09   2
  -6   1   3 267765. 7898.92   1
  -5   6  -3 299738. 8275.72   1
   6  -1  -3 282251. 8385.24   1
   5  -6   3 257436. 7909.91   1
  -1  -5  -3 340888. 8081.16   1
  -1   6  -3 312991. 8623.13   1
  -6   1   3 260338. 7989.31   2
   1  -6   3 270855. 8306.77   1
  -6   5   3 260446. 7700.99   2
   1   5   3 200143. 6330.30   1
  -5  -1  -3 253144. 6599.20   1
   1  -6   2 550011. 11468.3   1
  -5  -1  -1 807204. 13839.7   2
  -5   6   0 394847. 9341.49   1
   6  -5   0 390953. 9514.72   1
  -5  -1   0 389323. 8902.43   1
  -6   5   0 409556. 9704.93   1
  -1   6   0 410417. 9634.83   1
   1   5   0 431355. 9609.26   1
  -6   1   0 459246. 10557.4   2
  -6   5   0 413184. 9805.71   2
  -5  -1   0 455243. 10190.3   2
  -1  -5   0 396908. 9213.02   2
   5  -6   0 398584. 9619.23   1
  -5   6   1 287695. 8117.15   1
  -6   5  -1 259392. 7679.62   1
  -5  -1   1 262700. 7465.17   1
   1   5  -1 277380. 7736.34   1
  -6   1  -1 224235. 7401.32   2
  -6   1  -1 261618. 7254.34   1
  -5   6   1 270957. 7895.75   2
  -1  -5   1 264787. 7758.63   2
   6  -1   1 219835. 6835.27   1
   5   1  -1 235065. 7108.20   1
  -5  -1   1 275375. 8111.96   2
  -6   5  -1 273753. 8203.96   2
  -1   6   1 267655. 7631.98   1
   1  -6  -1 303641. 8337.19   1
   6  -5   1 240025. 7619.79   1
   5  -6  -1 239551. 7512.68   1
  -1  -5   1 230692. 7199.04   1
   6  -1   3 48549.2 3070.55   1
  -1   6   3 63193.0 3702.93   1
  -1  -5   3 60350.6 3939.45   2
  -6   5  -3 53983.6 3765.29   2
  -6   1  -3 48150.0 3438.95   2
  -5   6   3 54844.1 3620.89   1
  -5   6   3 47929.0 3182.74   2
  -5  -1   3 42554.9 3200.95   2
  -1  -5   3 47699.9 3331.40   1
   5   1  -3 48430.1 3417.05   1
  -6   1  -3 56328.5 3276.41   1
   1  -6  -3 63070.6 3714.55   1
  -5  -1   3 45658.1 3300.22   1
   1  -6  -3 32795.9 2554.19   2
   1   5  -3 40945.7 3068.07   1
   6  -5   3 57072.0 3695.91   1
  -6   5  -3 55922.2 3479.88   1
   5  -6  -3 49474.1 3490.23   1
  -1   6   4 1571.89 536.387   1
  -5   6   4 1766.15 602.926   2
   1  -6  -4 1116.19 578.640   2
   6  -5   4 2380.41 733.115   1
  -6   5  -4 3282.77 910.254   1
  -6   5  -4 2574.43 904.848   2
  -1  -5   4 2748.47 905.471   2
  -5  -1   4 2383.87 815.474   2
  -6   1  -4 2792.28 683.595   1
   6  -1   4 1347.26 481.089   1
  -5  -1   4 1458.20 639.312   1
  -1  -5   4 2718.70 879.983   1
   1   5  -4 1606.12 650.318   1
  -6   1  -4 2634.47 925.505   2
   5  -6  -4 1825.00 673.726   1
   1  -6  -4 2366.60 783.939   1
   5   1  -4 2636.08 927.794   1
  -1  -5   5 429085. 11021.8   2
   1   5  -5 356610. 9588.27   1
   6  -5   5 333655. 8964.85   1
  -6   5  -5 326398. 8528.67   1
   5  -6  -5 274459. 8471.01   1
   1  -6  -5 338709. 8703.39   1
  -5  -1   5 360339. 9488.78   1
  -5  -1   5 353411. 9731.20   2
   6  -1   5 380184. 8041.15   1
  -5   6   5 366697. 9592.06   1
  -1  -5   5 331684. 9025.51   1
   5   1  -5 322429. 9122.91   1
  -6   1  -5 384138. 9519.95   2
  -1   6   5 398654. 9016.09   1
  -6   5  -5 359728. 9900.57   2
  -6   1  -5 403602. 8343.77   1
  -6   1  -6 90546.3 4846.96   2
   6  -1   6 98510.9 3986.87   1
   1  -6  -6 54630.5 3436.15   1
  -5  -1   6 81141.8 4611.69   1
  -6   5  -6 87682.9 4514.69   1
  -5   6   6 86590.7 4227.85   2
  -1  -5   6 72277.8 4257.57   1
  -1  -5   6 91138.5 5223.86   2
  -6   5  -6 95168.2 5229.26   2
  -6   1  -6 90014.9 3899.93   1
  -5   6   6 91641.0 4765.85   1
   5  -6  -6 81197.2 4508.79   1
   5   1  -6 90367.6 4817.61   1
  -1   6   6 78156.6 3942.74   1
   6  -5   6 67156.5 4125.38   1
   1   5  -6 86633.3 4804.89   1
  -5  -1   6 84174.2 4741.30   2
  -5  -1   7 290876. 8970.13   2
   1   5  -7 282805. 8793.67   1
   1  -6  -7 246648. 7471.37   1
   5  -6  -7 334753. 9205.85   1
  -1  -5   7 272171. 8352.29   1
  -6   5  -7 243866. 7888.69   1
  -1   6   7 365517. 8534.63   1
  -5  -1   7 298797. 8862.01   1
  -6   1  -7 278451. 8558.49   2
   6  -5   7 339508. 9349.26   1
   5   1  -7 267026. 8519.71   1
  -1  -5   7 324212. 10075.9   2
  -5   6   7 346191. 9473.65   1
  -5   6   7 274571. 7195.67   2
   6  -5   8 68416.6 4304.82   1
   5  -6  -8 97722.2 5100.22   1
  -5  -1   8 61403.0 4188.70   1
  -6   5  -8 68016.5 4054.14   1
   1   5  -8 75921.6 4545.60   1
  -6   1  -8 66460.3 4318.66   2
   5   1  -8 77334.2 4707.67   1
  -1  -5   8 83713.5 5263.91   2
  -1  -5   8 72926.2 4392.94   1
  -5  -1   8 68415.8 4416.42   2
  -1   6   8 61311.5 3499.98   1
  -5   6   8 84968.2 4866.08   1
   5  -6  -9 107507. 5514.63   1
   5   1  -9 58373.2 4207.72   1
  -1  -5   9 83715.2 5269.07   2
   6  -5   9 89439.0 4939.88   1
  -5  -1   9 67492.2 4426.09   1
  -6   5  -9 70271.9 4224.02   1
  -6   1  -9 74701.4 4671.96   2
  -1  -5   9 65439.2 4341.20   1
   1   5  -9 80936.1 4751.52   1
  -5  -1   9 64290.9 4332.07   2
  -1  -5  10 615460. 14710.2   2
  -1  -5  10 630521. 13676.0   1
  -5  -1  10 623810. 14038.2   2
  -6   5 -10 650551. 13400.4   1
   1   5 -10 628151. 13675.6   1
  -1  -5  11 100315. 6013.84   2
  -5   6  11 84977.4 5143.73   1
   5   1 -11 67241.5 4648.34   1
  -5  -1  11 92219.1 5400.15   1
   6  -5  11 100464. 5460.01   1
  -1  -5  11 81935.2 4947.36   1
   5  -6 -11 110249. 5776.40   1
  -6   1 -11 80271.7 5159.31   2
   1   5 -11 98298.6 5576.76   1
  -5  -1  11 80444.2 5175.09   2
   5  -6 -12 70531.7 4680.92   1
  -1  -5  12 83165.8 5556.20   2
  -5   6  12 75162.8 4929.68   1
  -5  -1  12 75056.0 4996.80   1
  -1  -5  12 58221.4 4420.30   1
  -5  -1  12 66964.7 4752.71   2
   5   1 -12 81462.2 5203.82   1
   1   5 -12 58326.4 4442.24   1
  -5   6  13 108517. 6148.03   1
  -5  -1  13 140587. 6919.01   1
  -1  -5  13 125617. 6557.07   1
   5   1 -13 138122. 6878.89   1
  -1  -5  13 176086. 8193.10   2
  -5  -1  13 132198. 7024.25   2
   1   5 -13 160716. 7481.34   1
  -1  -5  14 223241. 8923.50   1
   1   5 -14 197779. 8581.90   1
  -5  -1  14 173556. 7821.22   1
  -5  -1  14 196015. 8696.91   2
   5   1 -14 168181. 7895.23   1
  -1  -5  14 194482. 8794.37   2
  -5  -1  15 104303. 6119.94   1
   5   1 -15 78012.4 5586.70   1
  -1  -5  15 89448.6 5951.77   2
  -1  -5  15 64505.7 4968.43   1
  -5  -1  15 109066. 6490.26   2
   1   5 -15 98061.2 6160.16   1
  -5  -1  16 6311.88 1769.35   2
  -1  -5  16 5742.15 1564.60   2
   1   5 -16 4534.89 1379.66   1
   5   1 -16 8091.04 1749.48   1
  -5  -1  16 4628.86 1323.38   1
  -1  -5  16 5299.82 1442.04   1
  -1  -5  17 18656.1 2861.76   2
  -5  -1  17 19425.8 2712.38   1
  -1  -5  17 15628.0 2538.74   1
   5   1 -17 15183.3 2543.53   1
   1   5 -17 19413.5 2781.59   1
  -5  -1  17 12904.7 2458.22   2
  -1  -5  18 76170.8 5808.66   2
  -5  -1  18 75075.3 5616.38   1
  -1  -5  18 73665.9 5592.79   1
   1   5 -18 73323.6 5744.08   1
  -5  -1  19 6996.35 1776.97   1
  -1  -5  19 4700.98 1406.05   2
   0  -6  -1 5267.11 1108.06   1
  -6   6  -1 6172.06 1287.55   1
   0   6   1 6353.92 1216.15   1
   0  -6  -1 5000.45 988.171   2
   0  -6   1 5913.32 1212.91   2
   6  -6   1 4775.96 924.867   1
  -6   6   1 4869.22 1191.16   2
   6   0   1 6305.37 1227.31   1
  -6   0   1 5238.03 1070.48   1
  -6   6   1 3928.90 1042.20   1
   6   0  -1 5616.01 1166.76   1
   0  -6   1 6648.09 1206.97   1
  -6   6  -1 5550.26 1211.74   2
  -6   0  -1 5755.59 1158.56   1
   6  -6  -1 4113.92 967.823   1
  -6   0   1 4753.45 1092.75   2
   0   6  -1 5754.26 1163.63   1
  -6   0  -1 5747.42 1220.13   2
   6  -6   2 908.074 643.178   1
  -6   0   2 2534.24 873.717   2
   0   6   2 1192.99 552.183   1
   0  -6  -2 987.404 558.075   2
  -6   0   2 1073.84 347.455   1
   6   0   2 1067.19 570.023   1
  -6   6   2 1186.21 498.398   2
  -6   6   2 1237.43 712.224   1
  -6   6  -2 1123.43 588.500   1
   6   0  -2 1190.62 475.814   1
   0  -6   2 816.641 620.306   1
  -6   0  -2 1003.34 511.030   1
  -6   6  -2 621.270 203.697   2
   0  -6   2 1123.77 617.100   2
   0   6  -2 940.932 509.836   1
   6  -6  -2 414.436 458.793   1
   0  -6  -2 2061.47 787.931   1
  -6   0  -2 1044.90 497.084   2
   0  -6  -3 15633.0 1728.83   2
   0   6   3 21090.1 2130.55   1
  -6   0   3 14148.8 1891.71   1
   0   6  -3 14096.4 1871.73   1
   6   0   3 12842.2 1612.61   1
   6   0  -3 15449.8 1992.44   1
  -6   6  -3 15656.6 1917.94   1
  -6   6   3 15951.0 2005.24   1
   0  -6   3 12363.1 1874.05   1
   6  -6  -3 12739.9 1756.46   1
  -6   0  -3 16650.0 1792.71   1
   6  -6   3 13963.6 1844.72   1
  -6   6  -3 13478.5 2048.08   2
   0  -6  -3 23508.2 2298.73   1
  -6   6   3 19938.0 2151.13   2
  -6   0   3 16175.1 1967.67   2
  -6   0  -3 12805.1 1807.67   2
  -6   6   4 485982. 11157.0   1
  -6   0   4 527972. 11951.7   2
   0   6  -4 453995. 10892.4   1
   6  -6  -4 530950. 11643.3   1
  -6   6  -4 446281. 10525.2   1
  -6   0   4 482467. 11207.2   1
   6   0  -4 484615. 11183.6   1
   0  -6   4 536188. 11910.6   1
  -6   0  -4 446684. 10693.4   2
  -6   6   4 415883. 10052.1   2
   6  -6   4 510361. 11493.3   1
  -6   0   5 4527.78 1148.40   2
   6   0  -5 4282.57 1087.69   1
  -6   0  -5 5033.93 948.585   1
   6  -6  -5 4973.16 1034.19   1
   6  -6   5 3873.67 834.032   1
  -6   0   5 3501.80 896.966   1
  -6   0  -5 4782.23 1139.42   2
   6   0   5 5212.07 970.433   1
   0  -6  -5 7064.62 1252.99   1
   0   6   5 3417.01 865.402   1
  -6   6   5 4229.85 1028.59   1
  -6   6   5 4155.49 1010.97   2
   0  -6   5 3334.69 985.718   1
  -6   6  -5 3572.71 898.961   1
   0   6  -5 3898.03 949.069   1
  -6   6   6 14249.0 1915.02   2
  -6   6   6 13950.5 2060.16   1
   0   6  -6 12570.1 1852.97   1
  -6   0   6 16156.5 2160.09   1
   6   0  -6 16273.4 2052.49   1
   0   6   6 20294.5 2027.34   1
  -6   0  -6 14379.3 1935.04   2
   0  -6   6 11166.1 1823.85   1
  -6   6  -6 18518.9 2156.52   1
   6  -6   6 15004.6 2032.09   1
   6  -6  -6 14413.2 1986.84   1
   0  -6  -6 16115.1 1852.53   1
  -6   0   6 18212.4 2225.51   2
   6  -6   7 8000.13 1517.57   1
   6   0  -7 9755.91 1676.48   1
  -6   0   7 6346.45 1427.85   2
  -6   6   7 6610.11 1199.82   2
   6  -6  -7 12439.7 1747.53   1
  -6   6  -7 7628.05 1446.12   1
  -6   6   7 8693.80 1570.75   1
  -6   0   7 7218.41 1427.12   1
   0   6  -7 6407.31 1280.59   1
   0  -6   7 6660.19 1383.16   1
  -6   0  -7 9143.51 1537.13   2
   0   6  -8 763362. 15111.1   1
   6   0  -8 756037. 15058.2   1
  -6   6  -9 6183.26 1345.23   1
  -6   0   9 4558.29 1229.55   2
   6  -6   9 5328.93 1368.68   1
   0   6  -9 4413.87 1126.08   1
   6   0  -9 5894.43 1381.51   1
  -6   6   9 3839.56 1126.67   1
   6  -6  -9 5573.77 1311.98   1
  -6   0   9 4856.38 1139.15   1
   0  -6   9 4151.24 1224.16   1
  -6   0  -9 4199.76 1282.11   2
  -6   0 -10 951.310 474.900   2
  -6   6  10 780.966 557.594   1
  -6   0  10 1270.18 632.967   1
   0   6 -10 1663.46 717.791   1
   0  -6  10 1489.19 559.140   1
  -6   6 -10 862.664 643.705   1
   6  -6  10 2312.98 863.758   1
   6  -6 -10 1732.74 681.026   1
   6   0 -10 1665.76 871.634   1
  -6   0  10 1345.13 770.140   2
  -6   0  11 1741.41 865.399   2
  -6   6  11 662.855 561.230   1
  -6   0  11 3258.28 1088.61   1
   6  -6 -11 987.350 554.797   1
   6   0 -11 1326.03 595.058   1
  -6   6 -11 1472.37 630.274   1
   0   6 -11 925.070 529.569   1
   0  -6  11 667.283 284.950   1
   6  -6  11 1871.18 959.065   1
  -6   0  12 620239. 14455.5   1
  -6   6  12 717723. 15588.0   1
   0  -6  12 765271. 17073.3   2
   0  -6  12 577635. 14014.9   1
   6   0 -12 544561. 13617.8   1
  -6   0  12 621039. 15160.9   2
   6  -6  12 677273. 14992.2   1
   0   6 -12 578292. 14059.8   1
   0  -6  13 871.945 640.162   2
   6  -6 -13 169.795 198.347   1
  -6   6  13-498.530 793.046   1
  -6   0  13-22.1126 205.585   1
   0   6 -13 4.21249 220.452   1
  -6   0  13-155.068 459.183   2
   0  -6  13-13.5428 246.083   1
   6   0 -13 671.993 546.165   1
   0  -6  14 808.082 486.060   2
   6   0 -14 1247.11 789.610   1
   6  -6 -14 398.265 732.234   1
  -6   0  14 507.740 390.120   1
   0   6 -14 989.943 667.767   1
   0  -6  14 499.868 276.668   1
  -6   6  14 880.612 519.066   1
  -6   0  14 979.434 713.025   2
  -6   0  15 30.5422 370.345   2
   0  -6  15 613.547 689.520   2
   0   6 -15 210.704 262.572   1
  -6   0  15 257.131 578.090   1
   0  -6  15 27.3987 352.354   1
   6   0 -15 527.576 605.472   1
   6   0 -16 221659. 9617.13   1
   0  -6  16 226235. 9412.72   1
  -6   0  16 222797. 9407.48   1
   0   6 -16 171995. 8513.82   1
  -6   0  16 186545. 9127.37   2
   0  -6  16 159020. 8315.30   2
   0   6 -17 1618.98 948.562   1
   6   0 -17 1532.96 885.147   1
   0  -6  17 817.539 587.890   2
  -6   0  17 468.062 512.990   1
   0  -6  17 173.522 343.050   1
   0  -6  18-402.034 474.386   2
  -6   0  18-89.9984 482.426   1
   0  -6  18-10.3374 427.010   1
   6   0 -18 870.054 527.886   1
   0   6 -18 565.870 611.982   1
  -7   3  18 213178. 9771.52   1
  -7   3  17 24426.7 3204.72   1
   7  -3 -17 31389.9 3789.96   1
  -7   3  16 316.951 529.720   1
   7  -3 -16 296.048 207.267   1
   7  -4 -16-639.678 659.178   1
  -3   7 -16 496.415 523.524   1
   3  -7  16 477.336 183.669   1
  -7   4  16 1499.01 780.840   1
  -7   4  15 90458.1 6053.69   1
  -7   3  15 74957.6 5380.99   1
   7  -3 -15 72101.7 5591.10   1
  -4   7 -15 103435. 6504.84   1
   3  -7  15 85333.9 5714.45   1
  -3   7 -15 73140.7 5486.20   1
   4  -7  15 93496.5 5993.51   1
   7  -4 -15 87529.2 6018.98   1
  -4   7 -14 52515.7 4419.68   1
  -7   3  14 51054.9 4381.43   1
  -3   7 -14 57129.3 4630.93   1
  -7   4  14 56051.3 4664.11   1
   7  -3 -14 60153.2 4902.37   1
   3  -7  14 59712.2 4663.33   1
   4  -7  14 59005.6 4736.55   1
   7  -4 -14 53566.4 4533.41   1
   7  -4 -13 115407. 6548.79   1
   7  -3 -13 154904. 7656.47   1
  -4   7 -13 141439. 7188.41   1
   3  -7  13 124939. 6769.77   1
   4  -7  13 137710. 7061.09   1
  -7   3  13 153180. 7425.75   1
  -3   7 -13 140741. 7232.44   1
   7  -3 -12 15486.8 2310.97   1
  -7   3  12 14113.1 2234.98   1
  -4   7 -12 13075.4 2077.31   1
   3  -7  12 12086.4 2072.59   1
  -3   7 -12 13723.0 2110.14   1
   4  -7  12 17688.7 2476.42   1
  -7   3  12 13812.8 2225.32   2
   7  -4 -12 14287.1 2366.90   1
  -7   4  12 11713.3 2019.54   1
   7  -3 -11 32312.0 3352.84   1
  -3   7 -11 33985.0 3356.37   1
  -7   3  11 39017.8 3639.89   1
   7  -4 -11 37382.4 3564.67   1
  -7   4  11 35397.5 3365.41   1
  -4   7 -11 34797.5 3432.15   1
  -7   4  11 35265.7 3459.91   2
   3  -7  11 33089.8 3390.44   1
   4  -7  11 39325.3 3573.01   1
  -7   3  11 38657.0 3602.60   2
   7  -3 -10 343090. 10632.8   1
  -7   4  10 360022. 10891.3   1
  -7   3  10 400376. 11388.3   1
   7  -4 -10 386193. 11186.4   1
  -7   3  10 366135. 10962.5   2
  -3   7 -10 399442. 11369.9   1
   3  -7  10 364191. 10754.5   1
   4  -7  10 344671. 10659.7   1
  -4   7 -10 417249. 11511.1   1
  -7   4  10 385493. 11050.9   2
  -7   3   9 5504.75 1303.05   1
   7  -4  -9 8171.76 1603.33   1
  -7   3   9 6619.24 1476.60   2
  -3   7  -9 6253.19 1433.45   1
  -7   4   9 5617.69 1361.54   2
  -7   4   9 6513.61 1497.88   1
   3  -7   9 6692.36 1509.56   1
   7  -3  -9 6235.07 1402.31   1
   4  -7   9 6785.35 1477.81   1
  -4   7  -9 6215.18 1326.59   1
  -7   3   8 260539. 8957.09   1
   7  -4  -8 314855. 9830.35   1
   7  -3  -8 291656. 9465.45   1
  -3   7  -8 332848. 9910.73   1
  -7   4   8 315547. 9673.14   1
  -4   7  -8 378525. 10631.0   1
   3  -7   8 338550. 10182.1   1
   4  -7   8 332579. 10042.6   1
  -7   4   8 344580. 10173.4   2
  -7   3   8 332526. 10081.3   2
  -7   3   7 206229. 7751.61   1
   7  -4  -7 224628. 8115.77   1
  -7   4   7 245125. 8423.19   1
   7  -3  -7 242544. 8485.94   1
  -7   3   7 249050. 8615.78   2
  -3   7  -7 256335. 8582.88   1
  -4  -3  -7 246765. 7615.51   2
  -4   7  -7 256418. 8397.18   1
   3  -7   7 246133. 8597.09   1
   4  -7   7 219246. 8087.01   1
  -7   4   7 256125. 8583.68   2
   7  -4  -5 566757. 12342.6   1
  -7   3   5 588488. 12495.2   1
  -3   7  -5 554414. 12214.2   1
  -7   4   5 621596. 13192.5   2
   4  -7   5 595313. 13172.2   1
  -7   4   5 599966. 12781.0   1
  -7   3   4 10836.2 1680.31   1
   4   3   4 16587.9 1694.58   1
   4  -7   4 13592.1 2024.43   1
   7  -3  -4 15002.6 2023.79   1
  -7   4   4 12939.8 1766.07   1
  -3  -4  -4 17967.2 1776.10   1
  -4  -3  -4 13184.3 1527.35   1
   3   4   4 14706.0 1684.01   1
   7  -4  -4 13283.4 1770.35   1
  -3   7  -4 13122.6 1847.99   1
   3  -7   4 13216.5 1962.41   1
  -4  -3  -4 12134.4 1654.50   2
  -4   7  -4 11805.9 1780.39   1
  -7   3   4 12862.3 1876.58   2
  -7   4   4 13191.3 1894.42   2
  -3  -4  -4 11804.6 1631.44   2
  -7   4   3 353255. 9502.32   1
   7  -4  -3 321926. 9004.11   1
  -4   7  -3 377243. 9735.48   1
  -3  -4  -3 362309. 8458.69   1
   7  -3  -3 357981. 9559.59   1
  -3   7  -3 318559. 9229.81   1
  -7   4   3 358194. 9558.50   2
  -4  -3  -3 400459. 8747.61   1
   3  -7   3 409148. 10623.0   1
   4  -7   3 351600. 9758.22   1
   4   3   3 345281. 8207.15   1
  -7   3   3 307202. 8928.44   1
   3   4   3 338754. 8253.60   1
  -7   3   3 359961. 9720.65   2
  -4  -3  -3 249556. 7594.00   2
  -3  -4  -3 373622. 9042.93   2
  -3   7  -2 259035. 8079.20   1
  -4  -3  -2 296429. 7758.69   1
  -4  -3  -2 266945. 7995.38   2
  -7   4   2 259165. 8001.54   1
  -7   3   2 289917. 8427.41   1
   7  -3  -2 271265. 8199.35   1
  -3  -4  -2 265633. 7363.95   1
   3  -7   2 266086. 8521.76   1
  -7   3   2 272184. 8560.56   2
   4   3   2 260033. 7371.16   1
   3   4   2 298559. 7949.94   1
   4  -7   2 280702. 8784.25   1
  -7   4   2 263835. 8164.29   2
  -4   7  -2 253089. 8007.08   1
  -3  -4  -2 207991. 6914.79   2
   7  -4  -2 226951. 7496.47   1
   7  -4  -1 143006. 5833.66   1
  -7   4   1 135618. 5687.76   1
   3  -7   1 133825. 5901.86   1
  -7   4   1 146164. 6054.78   2
   3   4   1 150268. 5866.94   1
  -7   3   1 157406. 6180.19   1
   7  -3  -1 144740. 6007.00   1
  -3  -4  -1 141597. 5491.92   1
  -4  -3  -1 161267. 5923.00   1
   4  -7   1 188212. 7072.12   1
  -4   7  -1 153115. 6262.43   1
   4   3   1 170409. 6115.75   1
  -7   3   1 149830. 6194.28   2
  -3   7  -1 143138. 5893.28   1
  -4  -3  -1 154215. 6110.11   2
  -3  -4  -1 176593. 6297.98   2
   4   3   0 21941.5 2228.82   1
  -3  -4   0 21494.6 2207.75   2
  -3   7   0 18625.5 2025.95   1
  -7   3   0 21093.7 2265.07   1
  -7   4   0 23066.7 2310.10   1
  -7   4   0 21243.4 2367.18   2
  -4  -3   0 26629.5 2475.31   1
  -3  -4   0 19510.1 2031.44   1
   3  -7   0 13050.5 1896.26   1
  -7   3   0 19552.8 2221.30   2
   3   4   0 19414.3 2126.22   1
   7  -3   0 25470.6 2471.12   1
  -4   7   0 22381.1 2294.13   1
   4  -7   0 28355.6 2734.92   1
  -4  -3   0 19242.1 2162.62   2
   7  -4   0 20768.2 2255.24   1
   3   4  -1 87296.9 4552.51   1
  -3   7   1 102111. 4935.48   1
   7  -4   1 92702.7 4660.09   1
  -7   4  -1 87039.6 4583.95   1
  -7   4  -1 87130.1 4793.50   2
   7  -3   1 86432.4 4465.36   1
  -7   3  -1 98691.5 4716.93   1
  -7   3  -1 96641.5 4833.27   2
  -4   7   1 65142.1 3984.28   1
  -4  -3   1 112794. 5258.16   2
  -4  -3   1 108936. 5060.68   1
   4   3  -1 87353.7 4522.14   1
   3  -7  -1 98190.2 5090.62   1
   4  -7  -1 89690.6 4886.45   1
  -3  -4   1 94516.9 4717.30   1
  -3  -4   1 84220.9 4523.74   2
   3  -7  -2 386476. 10168.9   1
  -7   3  -2 570051. 11982.7   2
  -4   7   2 515538. 11078.9   1
   4   3  -2 530818. 11304.8   1
  -3   7   2 521513. 11400.9   1
   3   4  -2 488326. 10970.1   1
  -7   3  -2 534881. 11105.5   1
   4  -7  -2 439213. 10763.3   1
   7  -3   2 470926. 10381.8   1
  -4  -3   2 630478. 12489.2   2
  -3  -4   3 95862.9 4991.19   2
  -4  -3   3 103534. 5081.95   2
  -7   4  -3 91160.7 4936.32   2
   7  -4   3 83196.9 4430.31   1
  -4  -3   3 101143. 5056.58   1
   3   4  -3 89987.4 4770.28   1
  -4   7   3 86802.8 4612.14   1
   4   3  -3 92977.6 4831.01   1
   7  -3   3 101439. 4753.52   1
  -7   4  -3 90323.9 4628.33   1
  -7   3  -3 99227.8 5110.90   2
   4  -7  -3 79742.7 4492.35   1
  -3   7   3 98581.9 4984.01   1
   3  -7  -3 75529.2 4487.46   1
  -7   3  -3 97027.6 4729.07   1
  -3  -4   3 82151.5 4539.74   1
  -3  -4   4 525665. 11973.5   2
  -7   4  -4 473876. 11380.9   2
  -7   3  -4 512902. 11673.0   2
  -3   7   4 501125. 11273.0   1
  -7   4  -4 453783. 10497.6   1
  -4  -3   4 491709. 11411.5   1
  -3  -4   4 497020. 11327.8   1
   3   4  -4 519625. 11724.2   1
   4   3  -4 499260. 11374.9   1
  -4  -3   4 497882. 11476.7   2
  -7   3  -4 472846. 10417.0   1
   4  -7  -4 429994. 10555.6   1
  -4  -3   5 206794. 7539.28   2
  -7   4  -5 200200. 6900.24   1
  -4  -3   5 184370. 7102.75   1
   4   3  -5 193997. 7263.11   1
  -3   7   5 163464. 6369.83   1
   7  -4   5 196370. 6960.29   1
  -7   3  -5 229554. 7203.59   1
  -3  -4   5 208779. 7485.17   1
   3  -7  -5 236714. 7871.71   1
   7  -3   5 201395. 6828.75   1
  -4   7   5 217221. 7385.33   1
  -7   4  -5 195680. 7482.55   2
  -7   3  -5 182993. 7094.55   2
   3   4  -5 189168. 7198.61   1
  -3  -4   5 254217. 8518.89   2
   4  -7  -5 173772. 6730.77   1
   4   3  -7 319954. 9588.27   1
   7  -4   7 293469. 8598.87   1
  -7   3  -7 296619. 8062.66   1
  -3   7   7 324625. 8921.21   1
   3   4  -7 329863. 9860.62   1
   7  -3   7 302393. 8327.63   1
  -4  -3   7 265475. 8802.17   1
  -3  -4   7 320841. 9893.76   2
  -3  -4   7 308541. 9358.14   1
  -7   4  -7 327540. 8840.02   1
  -4   7   7 365975. 9819.14   1
  -7   4  -7 292423. 9576.43   2
  -7   3  -7 272249. 8988.30   2
  -4  -3   7 288116. 9195.55   2
   4  -7  -7 304428. 9133.68   1
  -7   4  -8 3593.10 969.920   1
  -4  -3   8 3452.93 1045.53   1
  -3  -4   8 3819.08 1082.65   1
   4   3  -8 3272.45 986.836   1
  -4  -3   8 3278.77 834.106   2
   3   4  -8 2785.50 892.049   1
   3  -7  -8 4801.32 1185.83   1
   4  -7  -8 2443.64 912.009   1
  -4   7   8 4092.69 1093.54   1
  -7   4  -8 4732.68 1196.74   2
  -3   7   8 3369.74 955.161   1
  -7   3  -8 5501.42 1346.76   2
   7  -4   8 4115.80 933.837   1
  -3  -4   8 3233.53 1012.45   2
  -4  -3   9 326003. 10294.6   2
   3  -7  -9 277518. 8763.57   1
  -7   4  -9 315114. 10228.9   2
   4   3  -9 258745. 8901.70   1
  -4  -3   9 304129. 9686.22   1
  -3  -4   9 281809. 9623.91   2
  -3  -4   9 247598. 8751.36   1
  -3   7   9 411409. 10379.5   1
   4  -7  -9 342880. 10023.8   1
   3   4  -9 273951. 9265.35   1
  -4   7   9 275163. 8872.72   1
  -7   3  -9 343373. 10584.1   2
  -7   3 -10 90951.5 5564.01   2
  -4  -3  10 84450.1 5182.83   1
  -3  -4  10 86941.4 5265.24   1
   3   4 -10 108116. 5858.77   1
   4   3 -10 90769.7 5425.34   1
  -4  -3  10 79197.2 5124.67   2
  -4   7  10 91303.8 5163.28   1
  -3  -4  10 91606.9 5601.82   2
  -3  -4  11 157830. 7484.60   2
  -4  -3  11 157020. 7167.43   1
  -4  -3  11 137597. 6859.20   2
   4   3 -11 145585. 6882.25   1
   3   4 -11 151200. 7101.34   1
  -3  -4  11 134107. 6552.92   1
  -3  -4  12 17494.1 2537.46   2
  -4  -3  12 18632.6 2677.46   2
  -3  -4  12 15329.0 2304.62   1
   3   4 -12 12346.4 2075.63   1
   4   3 -12 19842.3 2623.98   1
  -4  -3  12 19384.7 2535.06   1
   4   3 -13 9220.11 1809.73   1
   3   4 -13 11130.8 1987.13   1
  -3  -4  13 11362.8 1964.82   1
  -4  -3  13 9544.82 1934.13   2
  -4  -3  13 10514.9 1958.39   1
  -3  -4  13 11117.9 2066.39   2
  -4  -3  14 236039. 9485.87   2
  -3  -4  14 212643. 8901.24   1
   4   3 -14 219053. 8980.31   1
   3   4 -14 225247. 9193.70   1
  -3  -4  14 250597. 9944.96   2
  -4  -3  15 7252.07 1695.84   2
   4   3 -15 11530.6 2107.86   1
   3   4 -15 8689.67 1817.24   1
  -3  -4  15 7788.58 1815.34   2
  -4  -3  15 6217.47 1570.62   1
  -3  -4  15 7506.51 1744.26   1
  -3  -4  16 83067.6 5934.96   2
  -4  -3  16 71609.9 5545.29   2
  -3  -4  16 72138.6 5443.97   1
   4   3 -16 72000.8 5428.71   1
   3   4 -16 85970.2 5822.58   1
  -4  -3  16 70447.4 5352.15   1
  -4  -3  17 69201.9 5633.21   2
  -3  -4  17 67135.8 5346.04   1
  -4  -3  17 79019.1 5646.98   1
   4   3 -17 69320.7 5411.90   1
   3   4 -17 61730.3 5033.39   1
  -3  -4  17 51595.8 4739.62   2
  -4  -3  18 113493. 7303.84   2
  -3  -4  18 130326. 7646.48   2
  -3  -4  18 136582. 7703.80   1
  -4  -3  18 115318. 6963.93   1
   4   3 -18 121131. 7353.63   1
   3   4 -18 118714. 7231.54   1
  -7   2  18 4057.84 1309.38   1
   7  -2 -18 2342.36 1139.28   1
  -7   2  17 433.269 541.164   1
  -2   7 -17 1250.89 673.876   1
   2  -7  17 838.984 613.507   1
   7  -2 -17 1837.07 918.109   1
   7  -2 -16 177240. 8679.12   1
   2  -7  16 219703. 9316.63   1
  -7   2  16 218246. 9338.19   1
  -2   7 -16 227162. 9740.33   1
  -7   5  16 175691. 8590.65   1
   7  -5 -15 1944.65 819.012   1
  -7   5  15 3400.99 1253.67   1
  -7   2  15 1535.28 735.493   1
  -2   7 -15 1689.29 718.943   1
   2  -7  15 1740.56 746.174   1
   7  -2 -15 2228.40 942.092   1
  -7   5  14 272.421 466.168   1
  -7   2  14 512.357 632.187   1
   5  -7  14 232.637 286.565   1
   7  -5 -14-96.6063 285.728   1
  -2   7 -14-88.0305 389.297   1
   7  -2 -14 563.595 682.138   1
   2  -7  14 835.981 555.982   1
  -5   7 -14 386.867 496.551   1
  -7   2  13 300.313 482.406   2
  -5   7 -13 386.940 464.407   1
   2  -7  13-57.9769 206.058   1
   5  -7  13 9.66800 371.115   1
  -7   5  13 192.863 352.550   1
  -7   2  13 278.101 444.009   1
   7  -5 -13 529.990 524.763   1
   7  -2 -13 170.208 309.749   1
  -2   7 -13-45.1472 243.955   1
  -7   2  12 219402. 8616.17   1
   7  -2 -12 210558. 8780.04   1
  -5   7 -12 269692. 9865.24   1
   7  -5 -12 213804. 8642.23   1
   2  -7  12 212050. 8619.40   1
   5  -7  12 184026. 8153.76   1
  -2   7 -12 268700. 9705.75   1
  -7   5  12 255223. 9483.84   1
  -7   2  12 241140. 9383.20   2
  -7   2  11 1428.67 694.679   2
  -7   5  11 1275.52 666.799   1
  -7   2  11 2176.19 856.510   1
   5  -7  11 1989.95 883.770   1
   7  -5 -11 1590.49 787.576   1
   7  -2 -11 1613.09 693.868   1
   2  -7  11 2257.32 861.426   1
  -2   7 -11 3297.10 1029.47   1
  -5   7 -11 1978.95 817.816   1
   7  -2 -10 8620.16 1728.06   1
  -7   5  10 13142.7 2067.74   1
  -2   7 -10 12495.6 1991.69   1
  -7   2  10 14139.7 2123.02   1
   7  -5 -10 10952.2 1819.76   1
  -5   7 -10 9615.69 1810.08   1
   2  -7  10 13374.0 2099.40   1
   5  -7  10 12553.7 2049.88   1
  -7   2  10 12854.5 2084.93   2
  -2   7  -9 7671.59 1550.77   1
  -7   5   9 6278.51 1342.52   1
   5  -7   9 7081.80 1507.86   1
  -7   2   9 5941.12 1267.11   1
   7  -5  -9 5942.11 1341.80   1
  -5   7  -9 5588.75 1274.14   1
   7  -2  -9 5240.81 1362.31   1
  -7   5   9 6698.30 1455.56   2
   2  -7   9 5374.63 1346.41   1
  -7   2   9 6614.74 1473.19   2
   5  -7   7 22789.8 2629.77   1
   7  -5  -7 21880.4 2440.73   1
  -7   5   7 21272.2 2497.07   1
  -7   2   7 18913.7 2346.12   1
   7  -2  -7 16537.1 2214.76   1
  -2   7  -7 27427.5 2833.45   1
   2  -7   7 22094.6 2489.12   1
  -5   7  -7 23970.4 2620.81   1
  -7   5   7 25242.6 2593.43   2
  -5  -2  -7 26667.7 2606.59   2
  -7   2   7 20056.7 2451.54   2
   5  -7   6 984.624 501.998   1
  -5   7  -6 1987.43 732.009   1
  -7   2   6 2507.21 888.115   2
  -2   7  -6 1509.38 771.066   1
  -7   2   6 1444.69 551.816   1
   7  -5  -6 2338.49 857.066   1
  -5  -2  -6 1607.12 723.035   2
   7  -2  -6 1334.66 664.881   1
   2  -7   6 1224.18 551.721   1
  -7   5   6 1957.58 844.274   1
  -7   5   6 1609.53 791.691   2
   2   5   5 13378.8 1619.85   1
  -7   5   5 8387.91 1596.83   2
  -7   5   5 11492.5 1728.08   1
   7  -2  -5 12444.3 1852.94   1
  -7   2   5 9509.16 1657.30   1
   7  -5  -5 9510.39 1601.34   1
  -2   7  -5 14017.8 1904.90   1
  -5   7  -5 13350.6 1816.10   1
  -5  -2  -5 13759.2 1916.25   2
  -2  -5  -5 14926.3 1685.76   2
   5  -7   5 12112.1 1873.66   1
  -7   2   5 9919.61 1676.21   2
   2  -7   5 12499.3 1813.53   1
  -7   5   4 748678. 14212.8   1
  -7   2   4 681499. 13569.3   1
  -5   7  -4 720571. 13778.8   1
  -7   2   4 813958. 14929.4   2
   5  -7   4 713524. 14258.3   1
   2  -7   4 763923. 14567.9   1
   2   5   3 10756.3 1494.46   1
  -5   7  -3 6816.53 1368.44   1
   5  -7   3 6633.50 1345.61   1
  -2  -5  -3 3955.97 925.099   2
  -7   2   3 7248.26 1402.25   1
   7  -5  -3 6314.72 1275.71   1
  -5  -2  -3 6022.62 1124.53   1
   5   2   3 7001.14 1215.38   1
   2  -7   3 5832.04 1233.29   1
  -2   7  -3 7963.00 1446.79   1
  -7   5   3 6196.54 1302.13   2
   7  -2  -3 6510.52 1263.27   1
  -2  -5  -3 4477.84 970.373   1
  -7   2   3 8493.81 1441.92   2
  -7   5   3 6822.73 1340.80   1
  -5  -2  -3 6066.05 1282.10   2
  -5  -2  -2 374.686 385.741   2
  -2  -5  -2 960.822 549.377   2
  -7   2   2 1312.20 726.333   2
  -7   5   2 140.348 167.253   2
  -7   5   2 401.509 362.654   1
  -5   7  -2 562.695 494.431   1
  -7   2   2 417.139 487.936   1
   7  -5  -2 1135.23 654.690   1
  -5  -2  -2 1261.39 556.233   1
   7  -2  -2 1153.52 493.069   1
  -2   7  -2 465.651 377.571   1
   2   5   2 1073.35 575.618   1
   5   2   2 1030.87 487.757   1
  -2  -5  -2 794.787 434.727   1
   2  -7   2 748.002 393.200   1
   5  -7   2 742.609 401.909   1
  -5  -2  -1 2634.45 907.310   2
  -2   7  -1 1581.98 621.403   1
   5  -7   1 2036.58 771.344   1
  -7   5   1 3264.88 918.498   1
  -7   2   1 2707.05 846.699   1
   7  -5  -1 1942.18 724.022   1
  -5   7  -1 1628.20 642.609   1
  -5  -2  -1 1873.47 566.329   1
  -7   2   1 1292.53 609.183   2
   5   2   1 1617.10 567.812   1
   7  -2  -1 1508.43 517.142   1
  -7   5   1 2273.77 924.770   2
   2   5   1 2266.54 727.310   1
  -2  -5  -1 2107.29 720.335   1
  -2  -5  -1 1598.97 684.049   2
   2  -7   1 2112.18 827.536   1
  -5  -2   1 422.222 240.813   2
   5   2  -1-419.681 433.540   1
  -7   5  -1 57.4976 255.401   2
  -7   5  -1 91.1177 202.918   1
  -2  -5   1 103.595 389.343   2
   7  -5   1 864.103 646.479   1
  -7   2  -1 636.069 614.443   1
  -7   2  -1 806.012 369.821   2
  -5  -2   1 290.834 230.114   1
   7  -2   1-132.280 288.603   1
   2   5  -1 270.576 378.769   1
  -2  -5   1 218.767 243.614   1
  -5   7   1 136.425 297.287   1
   5  -7  -1-45.1511 235.414   1
  -2   7   1 388.796 525.930   1
   2  -7  -1 486.235 424.639   1
   5   2  -2 1329.67 511.772   1
  -7   2  -2 929.172 409.462   1
  -2  -5   2 554.861 382.270   2
  -2   7   2 1341.89 676.794   1
   7  -5   2 1870.57 795.181   1
  -7   5  -2 866.482 534.001   1
  -5  -2   2 1114.31 567.566   1
   2   5  -2 1782.63 633.147   1
  -2  -5   2 1602.24 566.322   1
  -5  -2   2 975.216 459.126   2
   7  -2   2 1680.29 594.162   1
   5  -7  -2 2083.01 822.727   1
  -7   2  -2 1308.68 706.233   2
  -7   5  -2 1349.22 628.558   2
   2  -7  -2 2070.17 830.176   1
  -5   7   2 742.946 433.765   1
   5   2  -3 2932.96 861.302   1
  -2  -5   3 1901.44 676.382   2
   5  -7  -3 3315.77 1017.12   1
  -2   7   3 1828.59 696.668   1
   7  -5   3 3216.89 916.654   1
  -7   5  -3 2143.57 829.080   2
   7  -2   3 3006.21 724.940   1
  -5  -2   3 1987.78 749.603   1
  -5   7   3 2764.95 805.270   1
   2   5  -3 2542.19 839.778   1
  -7   2  -3 2059.87 720.350   1
  -2  -5   3 2032.69 799.713   1
  -7   5  -3 3143.47 940.926   1
   2  -7  -3 1882.25 651.123   1
  -5  -2   3 3033.26 863.976   2
  -7   2  -3 3040.66 842.786   2
  -5  -2   5 24212.6 2616.04   2
   2   5  -5 25020.4 2654.20   1
  -5  -2   5 27665.1 2777.27   1
  -7   5  -5 30128.0 2692.66   1
  -5   7   5 28033.8 2722.37   1
  -2  -5   5 24407.9 2534.10   1
   5   2  -5 24007.5 2577.94   1
  -7   5  -5 26219.8 2826.11   2
   7  -5   5 27818.9 2741.74   1
  -7   2  -5 33094.1 3066.98   2
  -2   7   5 24453.9 2447.96   1
  -2  -5   5 23554.5 2587.56   2
   5  -7  -5 28050.1 2831.86   1
   7  -2   5 31174.1 2588.91   1
  -5   7   6 23130.4 2520.94   1
  -7   2  -6 31617.0 3025.76   2
  -2  -5   6 31953.5 3184.88   2
  -7   5  -6 30911.2 3103.72   2
   5  -7  -6 29977.2 2915.96   1
  -5  -2   6 33693.4 3064.36   1
  -2  -5   6 34743.5 3098.47   1
  -7   5  -6 26795.7 2541.75   1
   7  -2   6 31962.2 2604.53   1
  -7   2  -6 27798.8 2406.87   1
   5   2  -6 28458.5 2868.63   1
   2  -7  -6 27785.4 2617.62   1
   7  -5   6 28896.8 2792.24   1
   2   5  -6 27993.1 2856.73   1
  -5  -2   6 30710.7 2970.72   2
   2  -7  -7 3405.77 935.965   1
  -5  -2   7 1311.85 671.778   2
   7  -5   7 1947.98 734.035   1
  -2  -5   7 1539.04 581.120   2
   5  -7  -7 2599.39 889.517   1
  -7   5  -7 2585.49 902.376   2
  -7   5  -7 1763.78 669.713   1
  -7   2  -7 2142.09 842.269   2
   2   5  -7 1349.69 605.286   1
  -5  -2   7 2286.48 680.739   1
  -2   7   7 2535.93 827.890   1
  -2  -5   7 2731.31 905.453   1
  -5   7   7 2599.97 831.768   1
   5   2  -7 1932.78 854.978   1
  -5  -2   9 11897.5 1945.15   2
  -7   5  -9 8299.20 1531.74   1
   7  -5   9 9039.00 1586.03   1
  -2  -5   9 8875.15 1778.65   2
  -5   7   9 9241.22 1674.03   1
   5  -7  -9 4824.33 1208.43   1
   2   5  -9 9410.44 1679.86   1
  -5  -2   9 9325.22 1655.87   1
  -2  -5   9 8473.03 1538.65   1
   5   2  -9 8246.10 1479.45   1
  -7   2  -9 6405.54 1554.52   2
   5  -7 -10 35650.3 3379.90   1
  -5   7  10 28699.2 3018.42   1
  -5  -2  10 22083.3 2708.56   1
  -2  -5  10 24546.7 2821.74   1
  -7   2 -10 25125.4 2985.94   2
   5   2 -10 22443.1 2705.85   1
  -5  -2  10 26662.0 3017.08   2
  -2  -5  10 30559.7 3287.51   2
   2   5 -10 32137.8 3228.92   1
   5   2 -11 786.693 586.309   1
  -5   7  11 1168.39 818.279   1
   5  -7 -11 795.625 491.886   1
  -2  -5  11 1021.42 489.485   2
   2   5 -11-111.439 354.449   1
  -5  -2  11-65.0774 660.943   1
  -2  -5  11 434.973 414.129   1
  -7   2 -11 398.938 417.064   2
  -5  -2  11 208.919 319.543   2
  -2  -5  12 239190. 9322.14   2
  -5  -2  12 229873. 8807.03   1
  -5   7  12 177040. 7924.28   1
  -2  -5  12 195155. 8183.32   1
  -5  -2  12 217464. 8880.52   2
   5   2 -12 217957. 8869.07   1
   2   5 -12 210410. 8730.56   1
  -5  -2  13 364.134 632.747   2
  -2  -5  13 1472.45 992.874   2
   5   2 -13 481.722 708.786   1
  -5  -2  13 660.285 686.082   1
  -2  -5  13 115.433 482.617   1
   2   5 -13 87.6629 384.401   1
  -5  -2  14 1426.88 784.204   2
   5   2 -14 2209.20 959.544   1
  -2  -5  14 2197.52 938.803   2
   2   5 -14 2489.53 1041.59   1
  -5  -2  14 1951.03 889.035   1
  -2  -5  14 2604.95 997.589   1
  -2  -5  15 2163.33 938.392   2
  -5  -2  15 2347.02 1119.59   2
   2   5 -15 2480.63 1052.33   1
  -5  -2  15 2162.66 1087.51   1
  -2  -5  15 2568.28 1021.75   1
   5   2 -15 3076.01 1084.11   1
  -2  -5  16 324818. 11346.4   1
  -5  -2  16 312864. 11123.1   1
   5   2 -16 293736. 10940.6   1
  -2  -5  16 339783. 12102.9   2
   2   5 -16 300613. 11167.6   1
  -5  -2  16 268941. 10725.5   2
  -5  -2  17 3884.73 1328.37   2
   2   5 -17 4044.18 1291.53   1
  -5  -2  17 5041.55 1371.83   1
  -2  -5  17 3379.63 1206.00   1
  -2  -5  17 4213.86 1372.22   2
   5   2 -17 4630.28 1358.86   1
   2   5 -18-167.946 435.560   1
  -5  -2  18-1159.73 723.939   2
  -2  -5  18 683.826 603.539   2
   5   2 -18-166.193 485.371   1
  -5  -2  18 409.225 500.476   1
  -2  -5  18 368.080 469.254   1
   1  -7  17 6762.67 1802.78   2
  -7   1  17 9121.97 1988.93   1
  -1   7 -17 11456.2 2303.80   1
   1  -7  17 10051.2 2021.02   1
   7  -1 -17 5229.34 1700.75   1
   1  -7  16 36390.1 3948.02   2
  -7   1  16 39299.9 3934.83   1
  -1   7 -16 43910.8 4263.53   1
   7  -1 -16 41465.8 4240.22   1
   1  -7  16 31746.9 3577.18   1
   1  -7  15 22320.4 3260.34   2
  -7   1  15 31189.4 3425.94   1
  -1   7 -15 27095.5 3313.94   1
  -7   1  15 23386.6 3288.64   2
   1  -7  15 24218.3 2965.18   1
  -7   6  15 21767.9 2916.97   1
   7  -1 -15 21545.3 2991.28   1
  -7   6  14 107258. 6499.19   1
   7  -1 -14 137475. 7474.54   1
  -7   1  14 115239. 6837.16   2
  -7   1  14 124525. 6793.36   1
   1  -7  14 114609. 6582.02   1
   7  -6 -14 90772.9 5806.53   1
  -1   7 -14 119880. 6703.48   1
   7  -6 -13 58304.0 4619.79   1
   7  -1 -13 60689.8 4887.78   1
  -7   6  13 62345.0 4797.07   1
  -7   1  13 59983.0 4667.00   1
   1  -7  13 54575.5 4470.93   1
  -7   1  13 46587.5 4469.78   2
   6  -7  13 58406.9 4648.51   1
  -1   7 -13 57642.2 4624.50   1
  -7   1  12 20621.0 2629.44   1
   7  -1 -12 15919.9 2513.96   1
  -6   7 -12 17707.3 2507.39   1
   7  -6 -12 17470.2 2461.81   1
   1  -7  12 14852.9 2297.64   1
  -7   6  12 25557.3 3025.80   1
   6  -7  12 20101.8 2716.60   1
  -1   7 -12 17232.2 2460.30   1
  -7   1  12 18678.0 2667.74   2
  -1   7 -11 86826.7 5506.28   1
   7  -6 -11 96494.1 5693.63   1
  -7   6  11 87525.1 5387.22   1
  -7   1  11 105765. 5991.12   1
  -7   1  11 96418.1 5942.99   2
   7  -1 -11 95488.6 5956.29   1
   1  -7  11 109897. 5950.66   1
  -6   7 -11 87642.7 5494.25   1
   6  -7  11 91277.8 5641.52   1
   7  -6 -10 328947. 10285.2   1
  -7   1  10 284916. 9716.08   1
   6  -7  10 295326. 10044.8   1
   7  -1 -10 264745. 9463.89   1
   1  -7  10 296524. 9827.90   1
  -6   7 -10 329884. 10379.7   1
  -1   7 -10 283293. 9671.90   1
  -7   6  10 301644. 9962.84   1
  -7   1  10 329293. 10720.3   2
   7  -6  -9 209874. 8064.21   1
  -1   7  -9 205447. 8150.49   1
  -7   6   9 152352. 6949.40   1
   7  -1  -9 198103. 8083.10   1
   1  -7   9 178605. 7640.79   1
  -7   1   9 180575. 7771.34   2
  -6  -1  -9 156481. 6979.86   2
  -6   7  -9 207277. 8116.61   1
   6  -7   9 204151. 8279.60   1
  -7   1   9 167631. 7291.44   1
  -7   1   8 440.231 560.198   2
  -6   7  -8 848.072 584.700   1
  -7   1   8 306.876 373.446   1
   1  -7   8 481.321 294.240   1
   7  -6  -8-311.966 507.816   1
  -7   6   8 211.135 399.317   1
   7  -1  -8-465.617 460.311   1
  -6  -1  -8-138.693 378.085   2
  -1   7  -8-52.9536 278.126   1
   6  -7   8 148.040 258.375   1
  -7   6   8 335.435 356.054   2
   6  -7   7 475925. 12146.0   1
   7  -6  -7 398906. 10796.1   1
  -7   6   7 439824. 11487.0   1
  -7   1   7 458368. 11720.5   1
  -6   7  -7 500200. 11955.7   1
   7  -1  -7 441477. 11726.8   1
  -7   6   7 508255. 11801.9   2
   1  -7   7 476311. 11918.6   1
  -6  -1  -7 512159. 11921.2   2
  -7   1   7 475869. 12191.7   2
  -1   7  -7 436996. 11405.2   1
  -7   6   6 563783. 12439.2   2
  -7   6   6 495408. 11959.3   1
  -7   1   6 526080. 12622.9   2
  -7   1   6 553458. 12710.3   1
  -1   7  -6 508289. 12327.2   1
   6  -7   6 517696. 12646.9   1
   7  -1  -6 519073. 12674.0   1
   1  -7   6 497193. 12130.3   1
  -6  -1  -6 492632. 11713.5   2
   7  -6  -6 517026. 12139.3   1
  -6   7  -6 493843. 11721.5   1
   1   6   5 280855. 7878.12   1
  -7   1   5 226654. 7995.87   1
  -1   7  -5 242630. 8403.66   1
  -7   1   5 233096. 8342.45   2
  -7   6   5 235022. 8292.29   1
   7  -6  -5 238652. 8240.99   1
  -7   6   5 278201. 8629.50   2
   7  -1  -5 244468. 8540.20   1
  -1  -6  -5 182089. 6454.37   1
   1  -7   5 275928. 8914.61   1
  -6   7  -5 306864. 9295.87   1
   6  -7   5 250345. 8595.54   1
  -6  -1  -5 200100. 7487.88   2
   7  -6  -4 233296. 7932.81   1
  -7   6   4 229964. 8000.87   1
  -6  -1  -4 254721. 7193.40   1
   1   6   4 231988. 7299.05   1
  -7   1   4 221496. 7777.40   1
   6   1   4 209655. 6792.51   1
  -1   7  -4 238098. 8313.82   1
   7  -1  -4 238214. 8360.62   1
   6  -7   4 209287. 7822.43   1
  -1  -6  -4 247713. 7611.43   1
   1  -7   4 215258. 7729.83   1
  -7   6   4 238234. 7939.19   2
  -6  -1  -4 219316. 7754.28   2
  -7   1   4 253090. 8552.27   2
  -6   7  -4 230758. 7859.88   1
   7  -6  -3 1014.72 346.029   1
  -1  -6  -3 912.219 490.103   2
   6  -7   3 1186.50 566.264   1
  -1   7  -3 1518.89 682.878   1
  -1  -6  -3 1057.94 536.896   1
  -6  -1  -3 1513.64 541.660   1
  -7   1   3 1155.62 645.687   1
  -6   7  -3 1225.08 545.154   1
  -7   6   3 835.675 455.517   1
  -6  -1  -3 851.199 492.037   2
  -7   1   3 843.497 533.457   2
  -7   6   3 1554.11 536.753   2
   7  -1  -3 2183.25 874.606   1
   6   1   3 1473.59 693.042   1
   1  -7   3 1685.85 799.706   1
   1   6   3 1602.16 700.010   1
   7  -6  -2 779900. 14366.6   1
  -6  -1  -2 656175. 12305.1   1
  -1  -6  -1 20552.5 2266.69   2
  -7   1   1 17572.1 2062.95   1
   1   6   1 21431.2 2243.26   1
  -6  -1  -1 19988.7 2124.10   1
   7  -1  -1 17447.0 2195.97   1
  -6  -1  -1 17979.2 2220.05   2
   6   1   1 16495.9 2033.75   1
  -1   7  -1 18874.5 2251.22   1
  -1  -6  -1 15286.8 1986.93   1
  -6   7  -1 21657.9 2412.80   1
   1  -7   1 22448.8 2406.26   1
   6  -7   1 16935.1 2161.98   1
  -7   6   1 19266.5 2264.80   1
   7  -6  -1 17377.8 2168.80   1
  -7   1   1 20182.7 2360.89   2
  -7   6   1 20092.3 2297.62   2
  -6   7   0 52781.8 3728.03   1
   7  -6   0 59466.9 4062.44   1
  -1  -6   0 46712.9 3494.47   2
   1   6   0 47503.5 3499.99   1
  -7   1   0 56342.6 4053.49   2
   1  -7   0 39700.9 3295.34   1
  -6  -1   0 54175.5 3569.70   1
   7  -1   0 44561.7 3441.85   1
   6  -7   0 54790.9 3835.11   1
  -7   6   0 56472.9 3969.06   1
   6   1   0 47400.5 3405.72   1
  -1   7   0 50627.8 3590.48   1
  -1  -6   0 64050.4 3981.82   1
  -7   1   0 51160.4 3606.03   1
  -6  -1   0 53288.4 3750.23   2
  -7   6   0 47337.3 3695.94   2
   1  -7  -1 468826. 10700.2   2
   1   6  -1 454454. 10890.0   1
  -7   6  -1 556905. 12315.1   1
   7  -1   1 444774. 10701.8   1
  -6  -1   1 467053. 10863.7   1
   6   1  -1 496310. 11338.4   1
  -1   7   1 484291. 11272.0   1
  -1  -6   1 489850. 11304.8   1
  -7   6  -1 509350. 12006.9   2
   7  -6   1 508254. 11811.8   1
   6  -7  -1 576646. 12542.6   1
  -6   7   1 476510. 11265.7   1
  -7   1  -1 536044. 12193.2   2
  -6  -1   1 429417. 10774.9   2
  -1  -6   1 518556. 11673.1   2
  -7   6  -2 256324. 8213.67   1
   1   6  -2 304901. 9044.31   1
  -7   1  -2 290941. 8362.30   1
  -1  -6   2 335048. 9308.79   1
   7  -1   2 255593. 7832.66   1
  -7   6  -2 248941. 8601.55   2
  -6   7   2 311493. 9043.46   2
  -6  -1   2 268306. 8404.43   1
   6   1  -2 205319. 7490.71   1
  -1   7   2 278611. 8514.38   1
   1  -7  -2 247772. 8083.80   1
   1  -7  -2 208180. 7127.74   2
  -6  -1   2 249329. 8327.18   2
  -7   1  -2 238409. 8107.17   2
  -1  -6   2 311898. 9272.72   2
  -6   7   2 246289. 8208.70   1
   6  -7  -2 220694. 7869.94   1
   7  -6   2 253333. 8355.90   1
  -7   6  -3 549882. 12894.2   2
  -1  -6   3 658414. 13743.7   2
  -6   7   3 441337. 11059.5   1
   1   6  -3 526761. 12092.8   1
  -6  -1   3 538678. 11945.1   1
  -6   7   3 531628. 11792.6   2
  -7   1  -3 610674. 11850.7   1
   6   1  -3 548319. 12273.7   1
  -1  -6   3 639846. 13071.2   1
  -6  -1   3 507188. 12114.2   2
  -7   1  -3 486257. 11670.9   2
  -7   6  -3 540784. 11809.1   1
   7  -6   3 494247. 11758.0   1
   6  -7  -3 588985. 12970.3   1
  -1  -6   4 26624.7 2752.61   2
   1   6  -4 12495.4 1881.84   1
   7  -1   4 18311.9 2002.96   1
  -7   1  -4 15255.2 1842.82   1
   6  -7  -4 14328.2 2027.85   1
   7  -6   4 15039.9 2040.13   1
  -6   7   4 14387.6 2080.34   1
  -7   1  -4 13332.2 1879.99   2
  -7   6  -4 15255.6 2184.31   2
  -6   7   4 11827.9 1860.70   2
   6   1  -4 18226.1 2176.53   1
  -1  -6   4 11041.4 1771.13   1
  -1   7   4 15269.3 1914.95   1
  -6  -1   4 13659.6 1908.14   1
  -7   6  -4 14581.4 1910.56   1
   1  -7  -4 20152.4 2332.11   1
  -6  -1   4 19590.6 2305.73   2
  -7   6  -5 205362. 7422.09   1
  -7   1  -5 260295. 8413.17   2
   7  -1   5 235426. 6979.33   1
  -7   1  -5 191042. 6428.45   1
   1  -7  -5 248887. 8138.69   1
  -6  -1   5 215949. 7757.62   1
   1   6  -5 197067. 7627.47   1
  -6   7   5 241599. 8328.04   1
  -1  -6   5 254304. 8331.66   1
   6   1  -5 215344. 7811.22   1
  -1   7   5 223908. 7498.34   1
  -7   6  -5 224505. 8350.08   2
  -6   7   5 234241. 7675.94   2
  -1  -6   5 178999. 7524.58   2
   7  -6   5 213800. 7810.39   1
  -6  -1   5 240962. 8385.12   2
   6  -7  -5 230831. 8232.98   1
  -1   7   6 773464. 13927.6   1
  -1  -6   6 703410. 15246.9   2
   1   6  -7 171799. 7280.52   1
   6  -7  -7 155201. 6997.88   1
  -1  -6   7 180174. 7800.67   2
  -7   1  -7 132997. 6328.60   2
  -7   6  -7 192941. 7537.90   1
   7  -6   7 219557. 8186.99   1
  -6  -1   7 181616. 7376.66   1
  -1  -6   7 193198. 7517.53   1
   6   1  -7 156374. 6855.41   1
  -6   7   7 224298. 8239.13   1
  -1   7   7 226841. 7617.29   1
  -6  -1   7 180552. 7588.86   2
   1   6  -8 161258. 7150.53   1
   6  -7  -8 173661. 7483.67   1
  -7   6  -8 200462. 7645.34   1
  -1  -6   8 196513. 8251.15   2
   7  -6   8 185105. 7623.57   1
  -6  -1   8 184658. 7492.46   1
  -1  -6   8 158776. 6884.06   1
   6   1  -8 185907. 7566.62   1
  -6   7   8 122356. 6178.70   1
  -7   1  -8 213595. 8220.21   2
  -6  -1   8 168304. 7476.61   2
  -1  -6   9 124484. 6607.30   2
  -7   1  -9 102219. 5859.58   2
  -6  -1   9 89893.8 5235.89   1
   6  -7  -9 68155.0 4701.71   1
   7  -6   9 121476. 6102.55   1
  -6  -1   9 108569. 6096.57   2
  -7   6  -9 107453. 5644.63   1
   6   1  -9 118254. 6087.16   1
   1   6  -9 103636. 5689.21   1
  -6   7   9 105556. 5780.63   1
  -1  -6   9 99899.1 5559.02   1
   6  -7 -10 289906. 9711.90   1
  -1  -6  10 300132. 10410.9   2
  -6  -1  10 232861. 8733.81   1
   1   6 -10 245772. 8981.95   1
  -7   1 -10 256285. 9396.27   2
  -1  -6  10 229328. 8589.06   1
   6   1 -10 230388. 8729.31   1
  -6   7  10 286222. 9818.56   1
  -6  -1  10 234003. 9095.30   2
   7  -6  10 255122. 9243.02   1
  -7   6 -10 219912. 8337.00   1
   6  -7 -11 27331.9 3090.52   1
  -1  -6  11 38410.3 3867.82   2
  -6   7  11 30904.1 3179.30   1
   1   6 -11 26075.7 2986.56   1
  -6  -1  11 25779.2 2989.51   1
  -1  -6  11 30023.5 3157.58   1
   6   1 -11 33603.0 3343.19   1
  -7   1 -11 27393.4 3196.09   2
  -6  -1  11 29926.7 3429.06   2
  -6   7  12 28498.8 3235.67   1
  -6  -1  12 30513.8 3277.88   1
  -1  -6  12 34237.8 3475.11   1
   6   1 -12 28147.7 3183.96   1
   1   6 -12 30917.2 3300.76   1
  -1  -6  12 35172.5 3569.38   2
  -6  -1  12 33348.6 3649.47   2
  -6  -1  13 20872.5 2801.68   1
  -1  -6  13 21010.5 2778.14   1
   6   1 -13 30914.2 3313.67   1
  -6   7  13 20303.0 2884.50   1
   1   6 -13 24351.4 2924.28   1
  -6  -1  13 24799.6 3187.22   2
  -1  -6  13 19731.9 2736.19   2
  -1  -6  14 129232. 7307.43   2
  -6  -1  14 113762. 6548.53   1
  -1  -6  14 119744. 6711.91   1
   6   1 -14 137372. 7268.01   1
  -6  -1  14 124563. 7220.06   2
  -1  -6  15 80069.8 5831.29   2
  -6  -1  15 74013.3 5368.92   1
   6   1 -15 77693.5 5479.85   1
  -6  -1  15 61620.6 5203.53   2
   1   6 -15 64530.5 5097.46   1
  -1  -6  15 60929.9 4812.80   1
   1   6 -16 1539.63 890.338   1
  -1  -6  16 1316.04 630.442   2
   6   1 -16 2233.52 1018.49   1
  -6  -1  16 1272.29 519.197   1
  -1  -6  16 1084.45 759.895   1
  -6  -1  16 1514.38 784.277   2
  -1  -6  17 61686.9 5313.64   2
  -1  -6  17 80837.4 5821.86   1
   1   6 -17 89700.3 6236.65   1
  -6  -1  17 73048.2 5484.28   1
   6   1 -17 112323. 6820.68   1
  -6  -1  17 89097.6 6555.56   2
   0   7   0 2371.93 831.978   1
   0  -7   0 2969.36 986.271   2
   7  -7   0 2168.68 831.835   1
  -7   7   0 1893.92 643.356   1
  -7   0   0 3819.95 1066.71   1
   7   0   0 1850.92 728.623   1
  -7   0   0 2724.60 855.498   2
  -7   7   0 2702.12 870.247   2
   0  -7   0 2645.81 950.935   1
   7  -7  -1 834.187 504.303   1
   0   7  -1 1232.01 397.785   1
  -7   7  -1 1322.49 638.547   1
  -7   7  -1 1363.30 708.681   2
   0  -7  -1 691.656 302.984   2
   0  -7   1 662.623 524.534   2
   7  -7   1 906.135 564.667   1
  -7   0  -1 2160.87 804.676   1
  -7   0   1 1137.98 489.166   1
  -7   7   1 1388.44 700.184   1
  -7   0  -1 915.353 543.818   2
   7   0   1 887.386 596.891   1
   7   0  -1 742.794 645.341   1
  -7   7   1 1104.97 663.298   2
   0  -7   1 1264.71 585.645   1
   0  -7  -1 930.362 646.309   1
  -7   0   1 352.816 400.053   2
   0   7   1 784.256 593.229   1
  -7   7   2 392383. 10772.4   2
   0  -7   2 484509. 12219.1   2
   0  -7  -2 274060. 8305.91   2
   7  -7   2 385878. 10488.1   1
  -7   7   2 358793. 10133.0   1
   0   7  -2 367753. 10288.4   1
   7   0   2 367964. 9858.64   1
   0   7   2 391752. 10438.1   1
  -7   0  -2 412082. 10190.9   1
  -7   0   2 371419. 10189.3   1
   7   0  -2 375400. 10706.2   1
   0  -7   2 282506. 9041.12   1
   0  -7  -2 483626. 11408.6   1
  -7   7  -2 376702. 10275.7   1
  -7   7  -2 375034. 10812.2   2
  -7   0  -2 337481. 10061.4   2
  -7   0   2 381470. 10636.7   2
   7  -7  -2 360905. 10376.0   1
   0  -7   3 434519. 11725.0   2
  -7   0  -3 490202. 10804.5   1
  -7   0   3 465647. 11593.5   1
   0  -7  -3 435463. 10248.8   2
  -7   7   3 456824. 11586.9   1
   7   0  -3 480289. 11917.8   1
   7  -7   3 473184. 11816.6   1
   7  -7  -3 431096. 11410.3   1
  -7   7  -3 485828. 11626.3   1
   0   7  -3 471083. 11854.1   1
  -7   7   3 436001. 11331.1   2
  -7   0   3 456700. 11797.2   2
  -7   0  -3 393539. 10958.3   2
  -7   7  -4 169281. 6793.35   1
   0  -7   4 238614. 8836.39   2
   0   7  -4 189421. 7448.44   1
  -7   0   4 173082. 7193.30   2
  -7   0  -4 176909. 7275.62   2
  -7   0   4 183824. 7281.87   1
  -7   7   4 202669. 7582.32   2
   7  -7  -4 223076. 8218.72   1
   0   7   4 161869. 6594.87   1
   7   0  -4 168466. 7205.63   1
   7  -7   4 192390. 7591.12   1
  -7   7   4 163944. 7010.49   1
   0  -7   4 217864. 8113.65   1
   0  -7  -4 129920. 5812.03   1
   7   0   4 213835. 7072.47   1
   7  -7  -5 286668. 9434.71   1
  -7   0  -5 317970. 9773.44   2
   0   7  -5 333246. 9943.66   1
  -7   7  -5 324997. 9686.13   1
   0   7   5 343012. 9455.66   1
  -7   0   5 316925. 9706.69   1
   7   0  -5 330074. 9963.60   1
   0  -7   5 322223. 9885.05   1
   0  -7  -5 355075. 9589.45   1
  -7   7   5 356906. 10356.0   1
  -7   7   5 349942. 9773.32   2
   0  -7   5 339865. 10818.3   2
   7  -7   5 359426. 10511.5   1
  -7   0   5 279154. 9163.41   2
  -7   0  -6 459687. 11708.2   2
   0   7  -6 487472. 12306.6   1
  -7   7  -6 506085. 12555.1   1
   7  -7   6 594867. 13925.9   1
  -7   0   6 505733. 12307.9   1
   7   0  -6 543065. 13017.4   1
   0  -7   6 433069. 11562.7   1
   0  -7   6 584296. 14164.4   2
   7  -7  -6 507135. 12297.7   1
  -7   0   6 487139. 12348.7   2
  -7   7   6 483527. 12139.9   1
  -7   7   6 628379. 13351.3   2
   0   7  -7 99605.3 5670.68   1
   0  -7   7 102571. 6018.42   2
  -7   7   7 110334. 5904.79   1
   7  -7  -7 91139.9 5314.18   1
  -7   0   7 87587.8 5228.68   1
   7  -7   7 84247.5 5316.23   1
   7   0  -7 89196.9 5320.37   1
   0  -7   7 86657.1 5251.43   1
  -7   7  -7 98105.2 5459.45   1
  -7   0  -7 79658.5 5023.97   2
  -7   0   7 83189.8 5226.91   2
   7  -7  -8 19151.8 2541.93   1
   0  -7   8 32441.4 3463.08   2
  -7   0   8 30878.2 3153.19   1
   7   0  -8 32926.2 3260.26   1
   0  -7   8 33500.3 3246.69   1
   7  -7   8 30754.9 3186.55   1
  -7   7   8 25629.9 2923.01   1
   0   7  -8 34984.6 3411.99   1
  -7   0  -8 33661.6 3314.72   2
  -7   0   8 30924.0 3180.29   2
  -7   7  -8 27158.9 2874.88   1
   7  -7  -9 123833. 6379.61   1
   0   7  -9 139792. 6913.20   1
  -7   0  -9 121623. 6385.40   2
   0  -7   9 173820. 8082.73   2
  -7   0   9 146124. 6884.72   1
  -7   7   9 126023. 6543.09   1
  -7   7  -9 156883. 7116.50   1
   7   0  -9 143233. 6917.31   1
   0  -7   9 152538. 7013.29   1
   7  -7   9 189483. 8103.78   1
  -7   0   9 161547. 7499.21   2
   7  -7 -10 234384. 9019.48   1
  -7   0  10 231377. 9285.04   2
   0  -7  10 291561. 10751.7   2
  -7   7 -10 253419. 9382.37   1
   7  -7  10 271156. 9807.09   1
  -7   0  10 223785. 8628.21   1
  -7   0 -10 206007. 8599.91   2
   7   0 -10 255322. 9355.42   1
   0  -7  10 192004. 7989.11   1
   0   7 -10 259333. 9527.72   1
   0   7 -11 52542.1 4317.95   1
   0  -7  11 63457.3 4971.32   2
  -7   0  11 50618.1 4128.21   1
   7   0 -11 45908.6 3911.59   1
  -7   7 -11 45096.0 3994.99   1
   7  -7  11 57231.9 4581.02   1
   0  -7  11 39767.2 3711.62   1
  -7   0  11 44841.4 4145.94   2
   7  -7 -11 51838.1 4333.97   1
  -7   0  12 10887.8 2122.08   2
   7  -7 -12 13723.5 2283.16   1
   0  -7  12 12926.1 2246.03   2
  -7   0  12 11764.9 2048.71   1
   0  -7  12 11035.9 1977.26   1
   7   0 -12 13808.7 2246.04   1
   0   7 -12 12778.5 2141.69   1
   7  -7 -13 22337.3 2977.37   1
   0  -7  13 21456.4 3006.29   2
  -7   0  13 18885.6 2834.56   2
  -7   0  13 21053.1 2700.53   1
   7   0 -13 23925.0 3097.30   1
   0  -7  13 22407.2 2906.50   1
   0   7 -13 19845.5 2731.75   1
   0   7 -14 134979. 7275.37   1
  -7   0  14 138488. 7226.30   1
   7   0 -14 139904. 7491.10   1
   0  -7  14 131764. 7139.33   1
  -7   0  14 159909. 8199.43   2
   0  -7  15 37312.2 4064.84   2
  -7   0  15 47250.1 4255.57   1
   7   0 -15 42535.8 4356.58   1
   0  -7  15 44248.1 4229.00   1
  -7   0  15 39979.7 4331.29   2
   0   7 -15 41927.5 4180.21   1
   0  -7  16 13053.2 2401.83   2
  -7   0  16 16568.2 2596.59   1
   0  -7  16 11189.9 2171.99   1
   7   0 -16 15489.6 2759.80   1
   0   7 -16 13507.5 2383.48   1
  -7   0  16 14849.6 2674.10   2
   0  -7  17 34515.8 3756.46   1
   0   7 -17 28958.9 3621.48   1
  -8   4  17 356.130 552.346   1
   8  -4 -17 70.3248 360.594   1
  -8   4  16 278130. 10927.0   1
   8  -4 -16 264865. 10806.9   1
   4  -8  16 281365. 10867.7   1
  -8   4  15 29.9898 398.064   1
   8  -4 -15 443.864 463.046   1
   4  -8  15-452.585 329.336   1
  -4   8 -15-286.907 305.629   1
   4  -8  14 8330.73 1858.23   1
  -8   4  14 6688.67 1721.70   1
  -4   8 -14 8599.45 1964.02   1
   8  -4 -14 8808.88 1977.23   1
  -4   8 -13-230.624 370.555   1
   8  -4 -13 147.512 275.431   1
   4  -8  13-367.891 448.636   1
  -8   4  13 427.639 392.452   1
  -8   4  12 339292. 11241.7   1
   8  -4 -12 323388. 11092.3   1
  -4   8 -12 301119. 10661.1   1
   4  -8  12 313573. 10927.3   1
  -4   8 -11-383.513 582.749   1
  -8   4  11 32.1153 270.872   2
  -8   4  11 77.2855 313.844   1
   4  -8  11-330.574 436.266   1
   8  -4 -11 43.9212 197.375   1
  -4   8 -10 2015.30 840.229   1
  -8   4  10 1532.20 809.193   1
   4  -8  10 1991.86 839.067   1
   8  -4 -10 1111.76 627.637   1
  -8   4  10 2518.34 1049.16   2
  -8   4   9 225.419 434.222   1
   4  -8   9 664.869 643.209   1
  -4   8  -9 768.824 631.392   1
   8  -4  -9-229.084 516.503   1
  -8   4   9 390.699 447.097   2
  -8   4   8 617193. 14142.1   1
   8  -4  -8 609366. 13876.7   1
  -8   4   8 624018. 14651.4   2
   4  -8   8 599127. 13993.3   1
  -8   4   7-222.533 240.621   1
   8  -4  -7-64.4610 334.548   1
  -4   8  -7 112.768 366.457   1
   4  -8   7-37.7039 409.985   1
  -8   4   7 567.352 620.166   2
  -8   4   6 34437.1 3228.97   1
   8  -4  -6 32952.8 3200.50   1
  -4   8  -6 34140.7 3187.22   1
   4  -8   6 34727.6 3357.15   1
  -8   4   6 35608.7 3404.51   2
  -4  -4  -5-139.761 271.007   2
  -4   8  -5 228.419 219.784   1
  -8   4   5 181.492 267.546   1
   8  -4  -5 459.551 252.672   1
  -8   4   5 267.032 251.240   2
   4  -8   5-128.542 488.208   1
  -8   4   4 610453. 13476.9   1
   8  -4  -4 667829. 13893.0   1
   4  -8   4 737596. 15035.8   1
  -4   8  -4 614435. 13512.0   1
  -8   4   4 721466. 14773.9   2
  -4  -4  -3-11.1616 312.061   2
  -4   8  -3 31.0871 164.907   1
   4   4   3-149.382 278.238   1
  -8   4   3 605.709 454.587   1
   8  -4  -3-89.1132 242.614   1
   4  -8   3-403.682 521.801   1
  -4  -4  -3 241.673 295.197   1
  -8   4   3 173.435 436.610   2
  -4  -4  -2 203466. 7058.48   1
   4  -8   2 223376. 8217.61   1
   8  -4  -2 173625. 6829.14   1
  -4   8  -2 183795. 7134.19   1
  -4  -4  -2 183936. 7428.59   2
   4   4   2 179795. 6616.18   1
  -8   4   2 203728. 7677.10   2
  -8   4   2 200779. 7511.13   1
  -4  -4  -1 1188.51 778.775   2
   4   4   1 294.559 422.646   1
  -8   4   1 157.662 172.505   1
   8  -4  -1 414.202 259.598   1
  -4   8  -1 128.227 326.511   1
  -4  -4  -1 270.945 390.719   1
  -8   4   1-356.727 445.281   2
   4  -8   1-403.978 223.381   1
   4  -8  -1 300.222 467.760   1
  -8   4  -1 665.922 467.421   1
   4   4  -1 73.4262 240.751   1
   8  -4   1-180.392 422.073   1
  -4  -4   1-175.280 210.210   2
  -4  -4   1-46.2695 291.991   1
  -8   4  -1 199.306 205.239   2
  -4   8   1-465.914 346.100   1
  -8   4  -2 46166.2 3712.21   2
   8  -4   2 47042.7 3550.66   1
  -4  -4   2 42965.8 3478.08   2
  -4   8   2 59476.4 4096.22   1
  -4  -4   2 47384.6 3602.64   1
   4  -8  -2 53988.2 4052.46   1
   4   4  -2 45443.8 3532.56   1
  -8   4  -2 45541.6 3514.40   1
   4  -8  -3 1214.15 770.527   1
  -4  -4   3-51.1639 446.863   2
  -4   8   3 609.902 382.295   1
   4   4  -3-52.0487 247.024   1
   8  -4   3-185.635 365.707   1
  -8   4  -3-192.532 394.272   1
  -4  -4   3 60.7777 467.013   1
  -8   4  -3-266.678 396.872   2
  -4  -4   4 696537. 14609.2   2
  -4   8   4 719841. 14254.5   1
  -4  -4   5 114.359 450.998   2
   8  -4   5 28.7896 403.716   1
   4   4  -5 233.671 622.323   1
  -4   8   5 254.610 392.341   1
  -4  -4   5 226.102 397.678   1
  -8   4  -5 110.658 185.781   2
  -8   4  -5-277.944 276.879   1
   4  -8  -5 673.900 517.728   1
  -4  -4   6 998.767 805.047   2
   8  -4   6 535.256 373.464   1
   4   4  -6 46.6310 487.232   1
  -4   8   6 415.472 522.938   1
  -8   4  -6 1052.25 371.389   1
  -4  -4   6 73.0610 255.107   1
   4  -8  -6 505.324 584.584   1
  -8   4  -6 811.405 678.647   2
   4  -8  -7-283.378 412.298   1
  -8   4  -7-10.5390 239.171   1
   4   4  -7-72.1652 414.213   1
  -4  -4   7-713.377 520.095   2
  -4   8   7 196.422 219.519   1
  -4  -4   7-38.6882 553.597   1
   8  -4   7-482.454 496.210   1
  -8   4  -7-320.379 461.245   2
  -4  -4   8 422643. 11703.3   1
  -4   8   8 427187. 11336.3   1
  -8   4  -8 443206. 12407.9   2
   4   4  -8 485970. 12456.2   1
   4  -8  -8 487133. 12497.6   1
   4   4  -9 111.396 285.689   1
   4  -8  -9-36.6953 332.443   1
  -4  -4   9-135.176 244.687   2
  -4   8   9 211.371 309.411   1
  -4  -4   9 643.706 581.241   1
  -8   4  -9-224.626 260.003   2
  -4  -4  10 6233.68 1563.65   2
   4   4 -10 5266.32 1232.05   1
  -4  -4  10 6524.63 1474.99   1
  -8   4 -10 6092.85 1437.10   2
  -4  -4  11-169.812 274.440   2
   4   4 -11-194.584 650.074   1
  -4  -4  11-448.666 393.108   1
  -4  -4  12 407577. 12445.9   2
  -4  -4  12 398875. 11978.1   1
   4   4 -12 365355. 11475.4   1
  -4  -4  13-506.107 353.114   2
  -4  -4  13 180.191 321.984   1
   4   4 -13-388.016 382.452   1
  -4  -4  14 685.121 626.775   2
  -4  -4  14 1033.33 677.890   1
   4   4 -14-554.832 659.360   1
   4   4 -15 286.533 487.155   1
  -4  -4  15-548.607 651.780   2
  -4  -4  15 389.388 539.652   1
  -4  -4  16 303696. 11098.7   1
  -4  -4  16 274792. 11008.8   2
   4   4 -16 271409. 10636.4   1
  -4  -4  17 36.8278 492.545   2
  -8   3  17 75583.8 5701.85   1
   8  -3 -17 55187.9 5110.26   1
  -3   8 -16 70394.9 5689.18   1
  -8   5  16 67835.8 5364.89   1
  -8   3  16 62211.6 5087.35   1
   8  -3 -16 73226.7 5811.24   1
   3  -8  16 63985.4 5030.52   1
   8  -5 -16 68888.5 5455.05   1
  -3   8 -15 74399.7 5634.67   1
   8  -5 -15 90171.4 6134.55   1
  -8   3  15 93370.5 6024.31   1
   8  -3 -15 84781.5 6107.17   1
   3  -8  15 85499.2 5758.89   1
   5  -8  15 83939.5 5916.23   1
  -8   5  15 84822.6 5900.88   1
  -3   8 -14 169083. 8327.39   1
   8  -5 -14 164270. 8083.07   1
  -8   5  14 161894. 8055.36   1
  -5   8 -14 165822. 8178.77   1
  -8   3  14 178899. 8374.36   1
   8  -3 -14 184196. 8681.25   1
   3  -8  14 169197. 8021.99   1
   5  -8  14 170690. 8318.06   1
  -5   8 -13 5697.11 1497.93   1
  -8   3  13 7155.13 1683.22   1
  -8   5  13 8309.72 1774.13   1
   8  -5 -13 6074.12 1511.13   1
   8  -3 -13 5835.59 1520.76   1
   3  -8  13 8290.93 1797.36   1
   5  -8  13 6787.48 1604.68   1
  -3   8 -13 6132.89 1524.17   1
  -8   3  12 1061.90 765.731   2
  -5   8 -12 833.407 394.726   1
  -8   5  12 1312.82 671.890   1
  -8   3  12 357.945 194.108   1
   5  -8  12 1282.76 618.691   1
   8  -5 -12 1052.65 722.251   1
   8  -3 -12 1824.18 914.496   1
   3  -8  12 1088.26 642.820   1
  -3   8 -12 744.524 540.851   1
  -8   5  11 38126.3 3712.19   1
   8  -5 -11 44238.8 3923.27   1
  -8   3  11 33153.6 3511.07   1
   8  -3 -11 38320.6 3856.71   1
  -5   8 -11 43841.0 3996.29   1
   3  -8  11 40091.8 3751.12   1
   5  -8  11 40607.9 3840.55   1
  -8   3  11 39475.4 3843.91   2
  -3   8 -11 39069.8 3641.90   1
   8  -5 -10 196368. 8171.69   1
  -8   3  10 198552. 8319.46   1
  -3   8 -10 201087. 8402.51   1
   8  -3 -10 167533. 7827.30   1
  -8   5  10 232652. 8964.98   2
  -5   8 -10 178904. 7850.31   1
   3  -8  10 209501. 8536.79   1
   5  -8  10 176097. 7954.28   1
  -8   5  10 187365. 8076.94   1
  -8   3  10 205440. 8580.61   2
  -8   5   9 379632. 11237.8   1
  -8   3   9 326961. 10568.6   1
   8  -3  -9 361073. 11050.2   1
  -3   8  -9 354618. 10964.0   1
  -8   3   9 400812. 11870.8   2
  -5   8  -9 399903. 11552.5   1
   3  -8   9 374001. 11256.2   1
   5  -8   9 382807. 11566.3   1
  -8   5   9 323051. 10435.1   2
   8  -5  -9 407204. 11537.2   1
   8  -5  -8 60494.9 4284.96   1
  -8   5   8 54758.7 4208.07   1
  -8   3   8 52401.9 4143.11   1
   8  -3  -8 49682.2 4230.21   1
  -3   8  -8 54003.7 4203.60   1
  -5   8  -8 58220.4 4223.85   1
   3  -8   8 52029.5 4116.05   1
   5  -8   8 53327.3 4301.63   1
  -8   5   8 58800.7 4403.94   2
  -8   3   8 47698.7 4066.37   2
   8  -5  -7 121044. 6120.11   1
  -8   5   7 103427. 5816.72   1
  -8   3   7 113359. 5960.41   1
   8  -3  -7 110387. 6036.16   1
  -3   8  -7 124397. 6248.78   1
   3  -8   7 116012. 6166.08   1
  -5   8  -7 116287. 6069.10   1
   5  -8   7 122636. 6403.68   1
  -8   3   7 132515. 6632.82   2
  -8   5   7 117992. 6167.90   2
   8  -5  -6 667516. 14124.8   1
  -8   5   6 654088. 14079.0   1
   5  -8   6 565210. 13696.6   1
  -8   3   6 595356. 13453.9   1
   8  -3  -6 670929. 14555.6   1
  -3   8  -6 645668. 14005.2   1
  -5  -3  -6 571955. 12896.2   2
   3  -8   6 627955. 14094.9   1
  -5   8  -6 514092. 12617.9   1
  -8   5   6 656106. 14323.0   2
  -8   3   6 618397. 14232.8   2
  -5   8  -5 4769.72 1234.39   1
   3  -8   5 2971.64 924.066   1
  -8   5   5 4068.44 1124.92   1
  -8   3   5 3536.17 1010.47   1
   8  -5  -5 3984.62 1058.47   1
  -3   8  -5 4487.46 1204.72   1
   8  -3  -5 3995.44 1149.39   1
  -5  -3  -5 3684.36 1057.53   2
  -8   5   5 3894.06 1112.46   2
  -8   3   5 4925.74 1280.24   2
   5  -8   5 4344.50 1261.89   1
   8  -5  -4 92571.3 5093.72   1
  -8   5   4 80013.5 4813.60   1
  -8   3   4 97811.6 5282.26   1
   8  -3  -4 90383.7 5354.64   1
   5  -8   4 114173. 5893.98   1
  -3   8  -4 86290.1 5020.42   1
   3  -8   4 95555.8 5475.84   1
  -3  -5  -4 74621.9 4392.83   2
  -8   5   4 88131.9 5097.90   2
  -8   3   4 104144. 5663.85   2
  -5   8  -4 81696.1 4758.41   1
  -5  -3  -4 95772.9 5214.24   2
  -5   8  -3 278854. 8805.89   1
  -8   5   3 297687. 9153.17   2
   8  -5  -3 275990. 8755.17   1
  -8   5   3 301420. 9264.28   1
  -8   3   3 281638. 9139.42   1
   8  -3  -3 282455. 9069.57   1
  -5  -3  -3 330703. 8675.68   1
  -8   3   3 336293. 10201.4   2
  -3  -5  -3 359437. 9222.39   1
   5   3   3 282117. 8172.84   1
  -3   8  -3 349768. 10086.1   1
   3  -8   3 254097. 8824.50   1
   5  -8   3 286899. 9296.30   1
   3   5   3 300743. 8598.84   1
  -5  -3  -3 315097. 9312.21   2
  -3  -5  -3 329004. 9397.25   2
  -5  -3  -2 333525. 9636.45   2
  -5   8  -2 335716. 9855.87   1
  -8   3   2 284716. 9055.34   1
   8  -3  -2 285047. 9057.46   1
  -8   5   2 297620. 9168.04   1
  -5  -3  -2 305955. 8629.28   1
  -3  -5  -2 260649. 8057.19   1
  -8   5   2 308758. 9377.48   2
   5  -8   2 300616. 9670.91   1
   5   3   2 333770. 9009.84   1
  -3   8  -2 290067. 9149.76   1
   3  -8   2 253553. 8797.97   1
  -8   3   2 323788. 9911.48   2
  -3  -5  -2 325117. 9225.86   2
   3   5   2 281994. 8424.21   1
   8  -5  -2 289072. 8976.69   1
  -8   5   1 373027. 10532.2   2
  -8   5   1 347059. 9838.59   1
   8  -5  -1 343967. 9774.51   1
  -8   3   1 357236. 9966.30   1
   8  -3  -1 336046. 9798.40   1
  -3   8  -1 300485. 9300.57   1
  -5   8  -1 369058. 10280.3   1
   3   5   1 442469. 10705.1   1
  -5  -3  -1 337786. 9297.61   1
  -3  -5  -1 397880. 10082.2   1
   5   3   1 366442. 9743.91   1
  -8   3   1 357004. 10280.4   2
   3  -8   1 392463. 10848.5   1
  -3  -5  -1 303846. 8884.81   2
   5  -8   1 313155. 9719.18   1
  -5  -3  -1 328198. 9613.10   2
   8  -5   0 13555.0 1920.31   1
  -8   5   0 11553.7 1846.31   1
  -8   3   0 12137.0 1860.09   1
   8  -3   0 12907.7 1821.96   1
  -5   8   0 14476.2 2077.05   1
  -5  -3   0 13544.2 1902.52   1
  -3  -5   0 13228.4 1885.99   1
   5  -8   0 11565.6 1902.82   1
   3  -8   0 14571.5 2080.25   1
   5   3   0 12714.4 1828.56   1
  -8   5   0 13440.9 2025.25   2
  -3   8   0 14599.5 1948.61   1
   3   5   0 13551.6 1926.39   1
  -5  -3   0 16292.6 2080.94   2
  -8   3   0 15734.0 2059.81   2
  -3  -5   0 13207.5 1947.97   2
   8  -5   1 36651.5 3127.28   1
  -8   5  -1 38951.6 3304.98   1
   8  -3   1 41038.4 3238.53   1
  -8   3  -1 32037.0 2957.26   1
  -8   5  -1 40607.9 3424.28   2
   5  -8  -1 25429.9 2800.37   1
  -5  -3   1 37486.0 3269.44   2
  -5   8   1 35265.9 3130.70   1
  -5  -3   1 39816.4 3324.86   1
  -3  -5   1 41119.4 3229.68   1
   3  -8  -1 38876.2 3473.42   1
   5   3  -1 36476.1 3099.79   1
  -8   3  -1 37082.1 3295.29   2
  -3  -5   1 38743.8 3341.03   2
  -3   8   1 37425.1 3177.74   1
   3   5  -1 37644.4 3274.21   1
   3   5  -2 776352. 14829.2   1
  -5  -3   2 681058. 14177.4   2
  -3  -5   3 129284. 6212.87   2
   3  -8  -3 88881.5 5087.99   1
   3   5  -3 125078. 6017.94   1
   8  -3   3 123943. 5686.10   1
  -8   5  -3 122936. 6060.92   2
   8  -5   3 117406. 5903.16   1
  -8   5  -3 114574. 5699.76   1
  -3  -5   3 117472. 5838.13   1
  -5   8   3 121997. 5715.71   1
  -8   3  -3 106231. 5356.72   1
  -3   8   3 71142.8 4460.54   1
   5   3  -3 118276. 5847.07   1
  -5  -3   3 84636.1 5037.90   1
  -8   3  -3 109017. 5688.15   2
   5  -8  -3 90220.8 5261.31   1
  -5  -3   3 133720. 6383.13   2
  -3   8   4 15988.6 2054.59   1
  -3  -5   4 16159.8 2191.71   2
   8  -3   4 14308.4 1902.74   1
  -8   5  -4 17435.2 2268.07   1
  -5  -3   4 14675.9 2153.20   1
  -3  -5   4 15922.6 2112.51   1
  -5   8   4 14832.1 2058.57   1
   5   3  -4 16318.0 2219.78   1
  -5  -3   4 14777.7 2102.73   2
  -8   3  -4 18398.7 2376.89   2
   3  -8  -4 19559.1 2401.47   1
  -8   5  -4 13647.7 2079.28   2
   3   5  -4 15421.2 2168.63   1
   5  -8  -4 26884.4 2851.99   1
   8  -5   4 15714.4 2105.89   1
   8  -3   5 309611. 8894.30   1
  -8   3  -5 263449. 9029.59   2
  -3  -5   5 340783. 10283.1   2
  -5  -3   5 305781. 9646.87   1
   3   5  -5 277599. 9256.96   1
  -3  -5   5 348444. 10189.0   1
  -3   8   5 306482. 9298.31   1
  -8   5  -5 317699. 10103.9   2
   3  -8  -5 270678. 9104.68   1
  -5   8   5 271073. 8822.43   1
   8  -5   5 307053. 9520.37   1
   5   3  -5 318478. 9909.27   1
  -8   3  -5 384646. 10024.5   1
   5  -8  -5 397894. 10909.4   1
  -8   5  -5 310572. 9423.14   1
  -5  -3   5 327078. 9938.29   2
   8  -3   6 235004. 8052.57   1
  -3   8   6 207695. 7790.03   1
  -8   5  -6 250932. 8440.19   1
  -8   3  -6 235710. 7906.74   1
  -5  -3   6 237459. 8507.99   1
  -3  -5   6 217013. 8212.06   1
  -3  -5   6 234330. 8693.92   2
  -8   5  -6 237349. 8880.72   2
   5   3  -6 232319. 8520.23   1
  -5   8   6 214746. 7958.33   1
  -5  -3   6 247840. 8886.22   2
  -8   3  -6 237044. 8497.19   2
   3  -8  -6 242910. 8620.16   1
   3   5  -6 263992. 9090.54   1
   5  -8  -6 274916. 9087.51   1
   8  -5   6 264839. 8838.02   1
  -3  -5   7 247004. 9109.23   2
   3  -8  -7 304059. 9854.47   1
   8  -5   7 231408. 8249.37   1
  -3   8   7 247247. 8604.88   1
  -5  -3   7 276176. 9361.81   1
  -3  -5   7 216745. 8265.03   1
  -8   5  -7 245710. 8320.56   1
   5   3  -7 238175. 8653.55   1
  -5   8   7 258304. 8780.54   1
  -8   5  -7 239795. 9071.90   2
  -8   3  -7 249484. 9031.58   2
   5  -8  -7 281353. 9369.54   1
   3   5  -7 253548. 9058.24   1
  -5  -3   7 271961. 9431.95   2
  -3  -5   8 130032. 6651.34   2
  -8   5  -8 127733. 6599.42   2
  -3   8   8 126942. 6268.98   1
   3   5  -8 127140. 6502.44   1
  -5  -3   8 103085. 5879.65   2
  -8   5  -8 116498. 5869.75   1
  -5  -3   8 127648. 6459.17   1
  -3  -5   8 123561. 6330.05   1
   5   3  -8 114534. 6118.89   1
  -8   3  -8 137536. 6785.76   2
  -5   8   8 99048.7 5564.13   1
   3  -8  -8 152271. 6999.44   1
   8  -5   8 117951. 6074.76   1
   5  -8  -8 113391. 6064.76   1
  -8   5  -9 55991.7 4461.78   2
  -3  -5   9 52461.6 4320.30   2
  -5  -3   9 60241.4 4527.44   2
  -8   3  -9 58512.1 4528.83   2
   3   5  -9 69759.1 4840.97   1
  -5  -3   9 61733.0 4571.18   1
  -3  -5   9 54722.5 4178.83   1
   5   3  -9 64516.3 4646.79   1
  -5   8   9 54389.5 4191.91   1
  -5  -3  10 319551. 10746.0   2
  -3  -5  10 364367. 11564.4   2
   3   5 -10 342326. 10852.0   1
  -3  -5  10 335317. 10597.6   1
   5   3 -10 323315. 10483.2   1
  -5   8  10 295025. 9900.73   1
  -8   3 -10 319143. 10859.6   2
  -5  -3  10 325868. 10678.1   1
  -5  -3  11 1703.06 801.359   2
  -5   8  11 1961.26 829.464   1
   5   3 -11 2065.85 978.750   1
  -3  -5  11 1831.86 873.555   2
   3   5 -11 2277.36 1002.50   1
  -5  -3  11 2422.39 1042.54   1
  -8   3 -11 1641.06 865.625   2
  -3  -5  11 2205.84 1002.08   1
   5   3 -12 5901.47 1463.01   1
  -5  -3  12 4841.61 1388.88   2
  -3  -5  12 6684.28 1543.27   2
   3   5 -12 6633.89 1416.68   1
  -5  -3  12 5049.51 1374.26   1
  -3  -5  12 5633.73 1408.01   1
  -3  -5  13 54735.4 4555.69   2
  -5  -3  13 60988.9 4819.23   1
  -3  -5  13 47261.4 4251.71   1
   5   3 -13 64013.6 4965.69   1
   3   5 -13 60507.5 4679.60   1
  -5  -3  13 50762.1 4613.55   2
  -5  -3  14 98323.7 6130.58   1
   3   5 -14 144399. 7510.34   1
  -3  -5  14 130992. 7168.09   1
   5   3 -14 106719. 6425.12   1
  -3  -5  14 134666. 7413.10   2
  -5  -3  14 140676. 7756.21   2
  -3  -5  15 176269. 8645.80   2
  -5  -3  15 205673. 8908.83   1
  -3  -5  15 182908. 8447.03   1
   5   3 -15 155669. 7896.83   1
   3   5 -15 188697. 8703.78   1
  -5  -3  15 177176. 8772.15   2
   5   3 -16 9834.17 1874.88   1
  -5  -3  16 10877.6 2245.26   2
   3   5 -16 12441.8 2247.57   1
  -5  -3  16 11865.7 2201.66   1
  -3  -5  16 12738.2 2341.36   1
  -3  -5  16 12460.8 2256.21   2
  -5  -3  17 16349.4 2710.16   2
   2  -8  17 10677.2 2191.59   1
  -8   6  16 47538.5 4494.12   1
  -8   2  16 62820.1 5135.75   1
   2  -8  16 49794.9 4461.10   1
  -2   8 -16 52286.8 4735.57   1
  -8   6  15 3466.27 1198.97   1
  -8   2  15 3146.90 1195.46   1
   8  -6 -15 2684.84 1038.70   1
  -2   8 -15 2389.01 1013.60   1
   8  -2 -15 2363.98 1039.25   1
   2  -8  15 2341.65 985.077   1
  -2   8 -14 122787. 6983.48   1
  -8   6  14 137934. 7408.54   1
  -8   2  14 148646. 7668.80   1
   8  -2 -14 133812. 7290.04   1
   2  -8  14 132374. 7107.05   1
  -8   2  14 148629. 8038.91   2
  -2   8 -13 35276.9 3756.14   1
   8  -6 -13 27584.0 3246.13   1
  -8   6  13 36077.2 3742.68   1
  -8   2  13 41021.0 3895.72   1
   8  -2 -13 41961.9 4073.87   1
  -6   8 -13 30623.1 3554.91   1
   2  -8  13 26051.5 3138.98   1
  -8   2  13 31896.5 3828.77   2
   6  -8  13 33929.3 3615.08   1
  -8   2  12 12684.4 2200.93   2
  -2   8 -12 13335.2 2274.79   1
  -8   6  12 9678.94 1864.44   1
   8  -6 -12 7485.12 1697.50   1
  -6   8 -12 12756.1 2129.57   1
   2  -8  12 9645.83 1942.28   1
   6  -8  12 11998.1 2170.77   1
  -8   2  12 9447.06 1821.30   1
   8  -2 -12 10615.4 1985.60   1
  -2   8 -11 98904.3 5904.90   1
  -8   6  11 107973. 6201.51   1
   8  -2 -11 116638. 6543.10   1
  -8   2  11 109517. 6577.70   2
   8  -6 -11 102215. 5963.67   1
  -6   8 -11 116923. 6603.80   1
   2  -8  11 104553. 6234.73   1
   6  -8  11 115327. 6512.13   1
  -8   2  11 120328. 6625.61   1
   8  -6 -10 105011. 5879.93   1
  -8   6  10 98937.7 5880.49   1
  -2   8 -10 93943.9 5685.97   1
  -8   2  10 95237.6 5776.30   1
   8  -2 -10 109883. 6244.39   1
   2  -8  10 111246. 6387.99   1
  -6   8 -10 101306. 6076.03   1
   6  -8  10 96822.1 5997.65   1
  -8   2  10 106121. 6290.91   2
   8  -6  -9 170086. 7490.01   1
  -8   6   9 187455. 7864.99   1
  -2   8  -9 159096. 7273.23   1
  -8   2   9 168429. 7553.83   1
   8  -2  -9 178287. 7794.86   1
   2  -8   9 183077. 7922.40   1
  -6   8  -9 162978. 7400.31   1
   6  -8   9 169574. 7767.33   1
  -8   2   9 181836. 8193.34   2
  -2   8  -8 8182.25 1670.73   1
  -8   6   8 6478.13 1460.86   2
  -8   2   8 6434.66 1590.12   2
  -8   6   8 6212.80 1307.12   1
  -6   8  -8 8341.94 1660.57   1
  -8   2   8 6148.84 1405.58   1
   8  -6  -8 7797.48 1575.29   1
   8  -2  -8 7365.14 1624.09   1
   6  -8   8 6773.86 1562.17   1
   2  -8   8 6647.56 1378.80   1
  -8   6   7 267532. 9149.12   2
   8  -6  -7 298896. 9650.73   1
  -8   2   7 234143. 8722.90   1
  -8   6   7 280370. 9477.69   1
  -2   8  -7 301880. 9922.68   1
   8  -2  -7 288363. 9664.90   1
  -8   2   7 286436. 9866.54   2
   2  -8   7 272348. 9334.89   1
   6  -8   7 309692. 10357.6   1
  -6  -2  -7 316803. 9903.90   2
  -6   8  -7 318223. 10037.7   1
  -8   6   6 681401. 14552.7   1
  -6  -2  -6 684197. 14586.6   2
  -8   2   6 652320. 14298.4   1
  -2   8  -6 626895. 14135.4   1
   2  -8   6 716935. 14918.9   1
  -8   6   6 654424. 14154.4   2
  -8   2   6 619577. 14405.3   2
  -6  -2  -5 222183. 8233.45   2
  -8   6   5 169947. 7077.50   1
  -8   2   5 213273. 8286.17   2
   8  -2  -5 205452. 8061.97   1
  -2   8  -5 201000. 7832.70   1
  -8   2   5 189525. 7649.15   1
   6  -8   5 215710. 8145.06   1
   2  -8   5 201577. 7981.69   1
  -8   6   5 149993. 6998.43   2
  -6   8  -5 186520. 7412.00   1
   8  -6  -5 195897. 7620.77   1
  -6   8  -4 433302. 11297.0   1
  -8   6   4 394849. 10843.6   1
  -8   2   4 413289. 11114.9   1
   8  -2  -4 408936. 11307.9   1
  -2   8  -4 466740. 11955.9   1
   6  -8   4 451148. 11894.3   1
   2   6   4 372972. 9825.08   1
   2  -8   4 416046. 11314.9   1
  -6  -2  -4 526279. 12649.0   2
  -8   2   4 402879. 11327.1   2
   8  -6  -4 474122. 11862.5   1
  -8   6   4 441866. 11614.5   2
   6  -8   3 1346.79 697.879   1
  -2  -6  -3 1246.85 660.133   2
  -6   8  -3 1985.70 833.321   1
  -8   6   3 1378.16 682.322   1
   8  -6  -3 1304.99 576.324   1
  -8   2   3 1091.19 636.601   1
  -2   8  -3 1884.28 827.171   1
  -6  -2  -3 1300.38 637.718   1
   8  -2  -3 1358.22 628.073   1
   2   6   3 1336.12 638.598   1
  -2  -6  -3 1070.06 643.406   1
   2  -8   3 2233.48 877.470   1
   6   2   3 1513.57 632.249   1
  -8   6   3 1569.57 659.976   2
  -8   2   3 1494.98 648.105   2
  -6  -2  -3 1822.28 734.980   2
  -6   8  -2 515524. 12224.4   1
  -8   6   2 479760. 11911.7   1
   2   6   2 432588. 10837.9   1
   8  -6  -2 480903. 11904.9   1
  -8   2   2 510092. 11983.6   1
   8  -2  -2 535441. 12575.6   1
  -6  -2  -2 500527. 11205.2   1
  -2   8  -2 373582. 10570.5   1
   2  -8   2 606174. 13538.6   1
  -8   2   2 511530. 12710.3   2
   6  -8   2 484211. 12256.5   1
  -6  -2  -2 443197. 11474.0   2
  -8   6   2 409480. 11152.8   2
  -6  -2  -1 1790.36 723.684   2
  -2  -6  -1 615.805 494.299   2
   6  -8   1 831.931 484.887   1
  -8   6   1 1193.73 392.750   1
   8  -6  -1 1411.62 769.018   1
  -8   2   1 1558.63 803.138   1
  -6   8  -1 1140.78 618.157   1
  -6  -2  -1 1676.31 715.972   1
  -2   8  -1 997.360 447.852   1
   8  -2  -1 379.274 416.847   1
   2   6   1 1710.36 685.737   1
  -2  -6  -1 1446.25 587.607   1
   6   2   1 936.008 555.011   1
   2  -8   1 1256.88 668.866   1
  -8   6   1 1526.12 693.512   2
  -8   2   1 1060.14 577.938   2
  -6  -2   0 15665.2 2030.58   2
   8  -6   0 13588.7 1964.37   1
   2   6   0 13675.4 1981.29   1
  -8   2   0 16667.9 2129.70   1
   8  -2   0 14020.8 1991.57   1
  -6  -2   0 14375.8 1949.70   1
  -6   8   0 9069.85 1598.31   1
  -2  -6   0 14631.0 1964.25   1
   6   2   0 14972.3 2039.52   1
  -2   8   0 14750.6 2116.97   1
  -8   6   0 13564.4 1993.18   1
  -8   6   0 13850.7 1988.17   2
  -8   2   0 16303.7 2288.58   2
   6  -8   0 11365.4 1809.15   1
  -2  -6   0 10965.2 1757.99   2
   8  -6   1 243510. 8677.24   1
  -2  -6   1 261807. 8543.81   2
   2   6  -1 207800. 7769.30   1
   8  -2   1 198932. 7440.17   1
  -6  -2   1 214790. 7661.61   1
  -8   6  -1 220574. 8007.99   1
  -2  -6   1 191909. 7244.53   1
  -6   8   1 195023. 7378.84   1
   6   2  -1 231746. 7994.17   1
  -8   2  -1 207457. 7571.94   1
  -2   8   1 211203. 7795.50   1
   2  -8  -1 126023. 6195.76   1
  -8   6  -1 248800. 8763.45   2
  -8   2  -1 241220. 8434.65   2
   6  -8  -1 230273. 8232.38   1
  -6  -2   1 258265. 8697.99   2
   2   6  -2 104801. 5599.33   1
  -2  -6   2 114776. 5869.28   2
   8  -2   2 109670. 5395.70   1
  -8   6  -2 114360. 5768.32   1
  -6  -2   2 106631. 5578.27   1
   8  -6   2 107096. 5599.11   1
  -2  -6   2 127225. 5914.82   1
   6   2  -2 117969. 5849.84   1
  -6   8   2 97421.2 5217.90   1
   2  -8  -2 120657. 6042.66   1
  -8   6  -2 109587. 5942.97   2
  -8   2  -2 107665. 5476.34   1
  -8   2  -2 103578. 5584.72   2
  -6  -2   2 123026. 6049.31   2
   6  -8  -2 141493. 6417.39   1
   2   6  -3 440640. 11620.1   1
  -2  -6   3 441079. 11690.2   2
  -8   6  -3 479131. 11836.3   1
   8  -2   3 447380. 10777.3   1
  -8   2  -3 491809. 11399.7   1
  -8   6  -3 496150. 12379.7   2
  -6  -2   3 445748. 11388.1   1
  -2  -6   3 439506. 11361.0   1
   6   2  -3 478762. 11952.4   1
  -2   8   3 444887. 11335.3   1
   2  -8  -3 531161. 12688.0   1
  -6   8   3 430078. 11115.7   1
  -8   2  -3 568926. 12914.8   2
   6  -8  -3 458104. 11788.2   1
  -6  -2   3 433814. 11575.3   2
   8  -6   3 455410. 11712.2   1
   6   2  -4 7043.55 1486.15   1
  -6  -2   4 6150.36 1404.13   2
   6  -8  -4 10086.2 1825.66   1
  -2  -6   4 6892.64 1480.55   2
   8  -6   4 6558.17 1333.69   1
  -8   6  -4 8163.94 1516.81   1
   2  -8  -4 10478.2 1865.02   1
  -6   8   4 6026.68 1372.71   1
  -8   2  -4 6921.48 1298.44   1
   8  -2   4 7225.44 1370.86   1
  -6  -2   4 6312.07 1394.52   1
   2   6  -4 6309.01 1386.93   1
  -2  -6   4 7519.11 1496.34   1
  -8   6  -4 8072.50 1717.12   2
  -8   2  -4 5419.30 1349.29   2
  -2   8   4 6531.22 1373.46   1
   8  -2   5 361767. 9657.02   1
  -2  -6   5 324076. 10295.3   2
  -6  -2   5 345522. 10313.8   1
   8  -6   5 323360. 10007.0   1
  -2  -6   5 304636. 9610.06   1
   6   2  -5 369171. 10706.6   1
  -8   6  -5 371794. 10334.1   1
  -8   2  -5 304496. 9796.77   2
   6  -8  -5 384521. 11114.3   1
  -8   6  -5 404857. 11543.2   2
  -2   8   5 375835. 10523.8   1
   2   6  -5 355296. 10462.1   1
  -6   8   5 398807. 10953.4   1
  -6  -2   5 405142. 11346.4   2
   2  -8  -5 229737. 8431.58   1
  -2  -6   6 650323. 14868.8   2
  -6  -2   6 706690. 14810.3   1
  -2  -6   6 703270. 14789.0   1
   6   2  -6 792022. 15939.0   1
   8  -6   6 638017. 14173.8   1
  -8   2  -6 859831. 16549.2   2
   2  -8  -6 471818. 12320.0   1
  -6  -2   6 827693. 16602.9   2
  -8   2  -7 122730. 6300.18   2
  -6   8   7 102428. 5666.60   1
  -2   8   7 139179. 6370.33   1
  -8   6  -7 131809. 6703.57   2
  -8   6  -7 109436. 5726.74   1
  -6  -2   7 106932. 5867.04   1
   2   6  -7 112190. 5903.96   1
  -2  -6   7 109423. 5897.11   1
   6   2  -7 118737. 6197.82   1
  -2  -6   7 127649. 6616.85   2
   6  -8  -7 81934.8 5266.43   1
   8  -6   7 117004. 6073.79   1
  -6  -2   7 103064. 5991.75   2
  -8   2  -8 169141. 7741.66   2
  -2  -6   8 188387. 8274.25   2
  -6   8   8 166737. 7419.57   1
  -8   6  -8 186540. 7823.39   1
  -6  -2   8 194095. 7950.18   1
  -2  -6   8 192062. 7922.91   1
   6   2  -8 192958. 7909.90   1
   2   6  -8 218565. 8390.65   1
   8  -6   8 217218. 8570.17   1
  -6  -2   8 190386. 8264.40   2
   6  -8  -8 201838. 8323.79   1
   6   2  -9 7021.26 1563.64   1
  -8   6  -9 10109.7 1848.85   1
  -6  -2   9 12928.4 2077.70   2
   8  -6   9 11820.1 2032.51   1
  -6   8   9 9640.34 1847.99   1
  -2  -6   9 9746.18 1872.58   2
   6  -8  -9 11296.8 1928.17   1
   2   6  -9 9409.66 1814.38   1
  -6  -2   9 10288.2 1824.56   1
  -2  -6   9 10502.7 1870.26   1
  -8   2  -9 12525.7 2060.81   2
  -6   8  10 255777. 9491.36   1
  -2  -6  10 257208. 9820.70   2
  -6  -2  10 217198. 8605.16   1
  -2  -6  10 205015. 8421.76   1
   6   2 -10 242789. 9079.44   1
   2   6 -10 248613. 9358.81   1
   6  -8 -10 261316. 9721.61   1
  -8   2 -10 239036. 9360.35   2
  -6  -2  10 268755. 9884.18   2
  -2  -6  11 14982.0 2428.66   2
  -8   2 -11 16107.0 2411.33   2
  -6   8  11 17529.3 2560.90   1
  -6  -2  11 17304.7 2436.34   1
  -2  -6  11 19227.2 2514.49   1
   6   2 -11 17538.1 2457.71   1
   2   6 -11 17623.6 2515.70   1
  -6  -2  11 14643.4 2440.55   2
   6  -8 -11 24185.0 2961.68   1
  -2  -6  12 29702.3 3367.66   2
  -6   8  12 20610.8 2833.62   1
   2   6 -12 29345.3 3300.17   1
  -6  -2  12 29278.8 3197.49   1
  -2  -6  12 29149.8 3255.90   1
   6   2 -12 24962.3 2982.16   1
  -8   2 -12 20283.7 2901.34   2
  -6  -2  12 26158.8 3190.21   2
  -2  -6  13 75090.7 5470.44   2
  -6  -2  13 70626.9 5040.60   1
  -2  -6  13 63979.8 4926.76   1
   2   6 -13 51148.9 4492.75   1
   6   2 -13 50603.7 4366.71   1
  -6  -2  13 54299.5 4721.46   2
  -2  -6  14 92234.2 6159.37   2
  -6  -2  14 75546.3 5274.26   1
  -2  -6  14 82375.8 5582.75   1
   6   2 -14 74289.4 5310.34   1
   2   6 -14 82560.9 5682.09   1
  -6  -2  14 72504.9 5501.83   2
  -2  -6  15 56193.3 4880.78   2
   2   6 -15 46031.5 4309.01   1
  -6  -2  15 74903.4 5407.08   1
  -2  -6  15 76749.9 5410.92   1
   6   2 -15 71550.2 5375.99   1
  -6  -2  15 60261.4 5234.49   2
  -6  -2  16 789.200 355.729   2
  -2  -6  16 114.061 504.027   2
   2   6 -16 1455.91 810.824   1
   6   2 -16 1561.96 715.234   1
  -6  -2  16 375.511 514.742   1
  -2  -6  16 2449.67 969.895   1
  -6  -2  17 61779.8 5467.07   2
  -1   8 -16 165758. 8488.28   1
   1  -8  16 161751. 8195.75   1
  -8   1  15-209.930 538.153   2
   1  -8  15 61.5310 470.686   2
  -8   7  15 275.008 482.170   1
  -8   1  15 482.979 574.223   1
  -1   8 -15 305.343 566.541   1
   1  -8  15 466.618 486.704   1
   8  -1 -15 298.517 398.773   1
  -8   1  14 6026.69 1711.99   2
   8  -1 -14 5696.12 1572.53   1
   1  -8  14 6605.40 1660.04   2
  -8   7  14 9651.91 1947.34   1
   8  -7 -14 6892.11 1740.00   1
  -8   1  14 6368.22 1634.29   1
  -1   8 -14 8738.72 1808.25   1
   1  -8  14 7680.90 1801.68   1
  -8   1  13 646.717 653.183   2
   1  -8  13 536.800 711.723   2
  -8   7  13 250.958 163.822   1
   8  -7 -13-17.2460 472.376   1
  -8   1  13-596.881 658.384   1
  -1   8 -13 332.204 550.420   1
   1  -8  13 372.913 563.200   1
   8  -1 -13 330.874 546.931   1
  -8   7  12 265727. 10177.8   1
  -1   8 -12 261416. 10004.8   1
  -8   1  12 254735. 9735.40   1
   1  -8  12 281827. 10122.0   1
   7  -8  12 250836. 9988.95   1
   8  -1 -12 233162. 9665.68   1
  -8   1  12 241555. 9929.46   2
  -8   1  11-202.165 282.784   2
   1  -8  11 613.364 520.049   1
  -8   7  11 70.0850 301.578   1
   8  -7 -11 537.179 655.850   1
  -8   1  11 1187.66 781.080   1
  -7   8 -11 598.908 683.460   1
   8  -1 -11-523.635 573.095   1
  -1   8 -11 122.043 353.873   1
   7  -8  11 265.726 224.563   1
  -8   7  10 28097.0 3170.60   1
  -8   1  10 29728.7 3188.82   1
  -1   8 -10 32146.9 3349.81   1
   8  -1 -10 26317.3 3200.83   1
   1  -8  10 23805.8 2876.52   1
   8  -7 -10 22485.9 2872.79   1
  -7   8 -10 28384.6 3250.86   1
   7  -8  10 31702.5 3424.91   1
  -8   1  10 26885.5 3192.18   2
  -8   7   9 8738.86 1809.27   1
   8  -7  -9 6095.93 1501.75   1
   7  -8   9 10243.4 2023.71   1
   8  -1  -9 9644.46 1885.30   1
  -8   1   9 8825.21 1691.35   1
   1  -8   9 10647.3 1803.48   1
  -7   8  -9 11820.3 2040.38   1
  -8   1   9 9027.10 1885.88   2
  -1   8  -9 8166.50 1624.40   1
   8  -7  -8 493754. 12934.2   1
  -8   7   8 380765. 11502.5   1
  -1   8  -8 451439. 12266.2   1
  -8   1   8 438096. 12152.7   1
   8  -1  -8 439641. 12422.3   1
   1  -8   8 459238. 12506.6   1
   7  -8   8 476719. 13183.5   1
  -7  -1  -8 429442. 12058.1   2
  -7   8  -8 384246. 11321.5   1
  -8   1   8 408236. 12131.8   2
   7  -8   7 199.159 189.119   1
  -8   1   7 56.0411 285.208   2
   8  -1  -7-271.046 653.679   1
  -1   8  -7 569.992 503.828   1
   8  -7  -7 1058.36 592.903   1
  -8   1   7 451.971 371.723   1
  -7   8  -7 186.110 260.348   1
  -7  -1  -7 741.163 736.786   2
   1  -8   7 520.472 495.004   1
  -8   7   7 1808.01 804.660   2
  -7   8  -6 13321.5 2125.97   1
   8  -7  -6 14358.6 2076.55   1
  -1   8  -6 16941.3 2324.20   1
  -8   1   6 12638.8 2062.95   1
  -8   7   6 13877.1 2250.69   1
   8  -1  -6 15507.0 2269.42   1
  -8   7   6 14265.4 2140.81   2
   1  -8   6 13370.5 2030.64   1
  -7  -1  -6 11196.3 1909.90   2
   7  -8   6 17708.4 2489.42   1
  -8   1   6 16556.8 2304.25   2
  -1   8  -5 13488.6 2010.73   1
   7  -8   5 11297.3 1931.09   1
  -7   8  -5 8646.15 1695.83   1
   8  -7  -5 7651.34 1619.58   1
  -8   1   5 7120.25 1526.23   1
  -8   7   5 8344.00 1654.69   1
   1  -8   5 7483.04 1585.93   1
  -8   7   5 8653.68 1637.07   2
  -8   1   5 11906.0 2023.51   2
   8  -1  -5 9409.85 1885.45   1
  -7  -1  -5 13031.3 2018.40   2
  -1  -7  -3 2331.43 825.321   1
   7  -8   3 3134.23 1036.28   1
  -1   8  -3 2501.27 914.365   1
   8  -7  -3 2443.50 911.537   1
  -8   1   3 2680.65 887.342   1
  -7   8  -3 1755.82 710.196   1
   1   7   3 2909.52 947.468   1
   7   1   3 1848.95 755.574   1
   8  -1  -3 2007.16 778.494   1
  -8   7   3 2142.83 772.943   1
  -8   1   3 3158.74 1003.34   2
   1  -8   3 2017.20 911.335   1
  -8   7   3 3614.69 1143.25   2
  -7  -1  -3 2511.63 916.253   2
  -1  -7  -2 343274. 9802.99   2
  -8   1   2 313693. 9843.42   1
  -7  -1  -2 403935. 10447.5   1
   8  -7  -2 370585. 10951.7   1
  -8   7   2 334100. 10328.2   2
   1   7   2 301358. 9265.91   1
   8  -1  -2 350055. 10422.2   1
   7   1   2 360961. 10223.2   1
  -1   8  -2 300416. 9680.61   1
  -7   8  -2 363823. 10235.8   1
  -8   7   2 306327. 9682.57   1
  -1  -7  -2 348246. 10132.3   1
   1  -8   2 327948. 9933.41   1
  -8   1   2 309328. 9960.07   2
  -7  -1  -2 369527. 10700.5   2
   7  -8   2 316949. 10000.6   1
  -8   7   1 2030.35 767.452   1
  -1  -7  -1 1115.95 393.555   2
   1  -8   1 1829.65 758.165   2
   7  -8   1 1626.35 683.565   1
   8  -7  -1 2451.82 919.897   1
  -1   8  -1 5829.38 1294.24   1
  -8   1   1 1526.85 737.572   1
  -7  -1  -1 2492.88 950.287   1
  -1  -7  -1 1180.54 451.713   1
   8  -1  -1 2415.57 957.074   1
  -7   8  -1 2069.40 834.967   1
   7   1   1 1370.76 695.557   1
  -8   7   1 2472.31 1004.88   2
   1  -8   1 2467.49 965.235   1
   1   7   1 2060.36 707.708   1
  -8   1   1 2924.42 995.120   2
  -7  -1  -1 2877.42 1008.28   2
  -1  -7   0 282457. 9125.63   2
  -8   7   0 261119. 9217.14   2
   1  -8   0 296078. 9804.76   2
   1   7   0 212003. 7912.98   1
  -8   1   0 252724. 8612.34   1
  -7  -1   0 262281. 8656.55   1
   8  -1   0 255959. 8797.47   1
   8  -7   0 260452. 8849.47   1
   7   1   0 274511. 9018.71   1
  -1   8   0 213414. 8102.33   1
  -1  -7   0 228123. 8261.08   1
   1  -8   0 357110. 10496.0   1
  -8   7   0 278530. 9218.35   1
  -7   8   0 232860. 8352.18   1
  -8   1   0 271496. 9262.62   2
  -7  -1   0 227016. 8380.96   2
   7  -8   0 226316. 8267.31   1
   1  -8  -1 977.730 600.681   2
  -7  -1   1 1823.69 718.420   2
  -1  -7   1 1205.14 783.783   2
   7  -8  -1 2201.89 807.374   1
   8  -7   1 1403.43 735.824   1
  -8   1  -1 1200.09 671.679   1
  -1   8   1 459.905 518.828   1
  -8   7  -1 953.267 721.329   1
   1   7  -1 1606.18 881.209   1
  -7  -1   1 985.204 528.354   1
   8  -1   1 1723.56 588.128   1
  -8   1  -1 921.076 643.205   2
  -1  -7   1 1159.38 609.164   1
  -8   7  -1 2375.12 1085.63   2
   7   1  -1 1244.05 749.415   1
   1  -8  -1 537.177 444.166   1
  -7   8   1 1731.94 784.026   1
  -8   7  -2 469265. 11842.5   1
   1   7  -2 459678. 12008.6   1
  -8   1  -2 466555. 11645.6   1
   8  -1   2 536108. 12362.5   1
  -7  -1   2 517210. 12655.9   2
  -7  -1   2 531758. 12521.7   1
   7   1  -2 468380. 11914.2   1
  -1  -7   2 585493. 13269.0   1
  -8   1  -2 535293. 13165.2   2
  -1  -7   2 509090. 12711.7   2
  -7   8   2 539330. 12704.0   1
  -8   7  -2 509221. 12941.6   2
   7  -8  -2 452292. 11879.5   1
   8  -7   2 466965. 12051.6   1
  -7  -1   3 10962.4 1848.53   2
   1   7  -3 11614.4 1860.24   1
  -1  -7   3 10628.2 1862.07   2
  -1  -7   3 12096.2 1817.04   1
  -8   1  -3 12574.0 1896.26   1
   8  -1   3 12422.2 1862.86   1
  -8   1  -3 8081.96 1635.28   2
  -7   8   3 8797.62 1670.11   1
  -7  -1   3 13804.1 1931.97   1
   7   1  -3 12571.6 1973.40   1
  -1   8   3 8953.09 1683.10   1
   1  -8  -3 13184.9 1978.01   1
  -8   7  -3 10073.8 1770.04   1
  -8   7  -3 12869.9 2018.45   2
   8  -7   3 11762.6 1932.00   1
   7  -8  -3 12327.3 1946.55   1
  -8   7  -4 999999. 17468.1   1
  -8   7  -4 929223. 18097.8   2
  -1  -7   5 3170.64 1105.79   2
   8  -7   5 2959.94 974.877   1
   7  -8  -5 2643.20 761.501   1
  -7  -1   5 2006.15 855.501   1
  -1   8   5 1531.15 692.523   1
  -8   7  -5 3558.85 1068.10   1
  -7   8   5 1267.15 610.752   1
  -7  -1   5 2155.99 721.249   2
  -1  -7   5 1789.73 847.301   1
   1  -8  -5 2883.49 978.889   1
   7   1  -5 2136.28 898.558   1
  -8   1  -5 3314.23 1048.75   2
   1   7  -5 3348.26 1008.78   1
   1   7  -6 55600.4 4298.21   1
  -1  -7   6 58458.7 4461.45   2
  -7   8   6 59771.6 4452.59   1
  -7  -1   6 56015.1 4262.25   1
  -8   7  -6 50269.4 3990.11   1
   7  -8  -6 41359.9 3655.62   1
   7   1  -6 52851.8 4215.76   1
  -1  -7   6 56012.1 4239.47   1
  -7  -1   6 50397.7 4165.09   2
   8  -7   6 49749.1 4101.76   1
  -8   1  -6 44527.2 3777.16   2
  -7  -1   7 8652.28 1767.81   2
   8  -7   7 8326.51 1742.43   1
  -1  -7   7 7114.11 1612.51   2
  -8   7  -7 8318.04 1691.79   1
   7  -8  -7 6358.58 1434.61   1
  -7   8   7 9192.16 1799.28   1
  -7  -1   7 6922.73 1528.91   1
   7   1  -7 9250.63 1798.05   1
   1   7  -7 8307.60 1710.58   1
  -1  -7   7 7638.70 1539.41   1
  -8   1  -7 6927.36 1581.94   2
   1   7  -8 518588. 13450.6   1
  -8   7  -8 562720. 13713.4   1
  -1  -7   8 734467. 16721.0   2
  -7  -1   8 557484. 13746.5   1
  -7   8   8 600909. 14517.7   1
  -8   1  -8 525536. 13568.4   2
   8  -7   8 669144. 15423.6   1
   7   1  -8 555717. 13963.0   1
  -1  -7   8 533903. 13290.9   1
  -7  -1   8 599624. 14728.0   2
   7  -8  -8 519021. 13712.3   1
  -7   8   9 5046.44 1339.31   1
   8  -7   9 5173.98 1399.07   1
  -7  -1   9 5320.74 1398.42   2
  -1  -7   9 5391.29 1445.70   2
   7  -8  -9 7352.51 1635.71   1
  -8   7  -9 6155.68 1447.98   1
  -7  -1   9 5460.85 1467.89   1
   1   7  -9 4010.66 1175.21   1
  -1  -7   9 5255.59 1310.79   1
  -8   1  -9 3537.87 1070.10   2
   7   1  -9 5071.82 1315.60   1
   7  -8 -10 12897.2 2233.46   1
  -8   7 -10 15509.6 2268.46   1
  -7   8  10 12259.0 2205.46   1
  -7  -1  10 13024.1 2026.52   1
   7   1 -10 18797.7 2477.53   1
  -1  -7  10 12155.4 2217.23   2
  -1  -7  10 11637.9 2005.22   1
  -8   1 -10 12437.8 2253.65   2
   8  -7  10 15461.5 2484.74   1
  -7  -1  10 15029.1 2320.14   2
   1   7 -10 13001.2 2109.94   1
  -1  -7  11 636.507 838.625   2
   7   1 -11 69.4913 212.258   1
  -7   8  11 437.889 565.773   1
   7  -8 -11 311.494 559.816   1
  -7  -1  11 335.883 237.738   1
   1   7 -11 153.348 404.461   1
  -1  -7  11 128.353 506.517   1
  -7  -1  11 1.17477 203.569   2
   7  -8 -12 204624. 9217.98   1
  -1  -7  12 214481. 9407.49   2
  -7  -1  12 189701. 8453.82   1
  -1  -7  12 187349. 8372.91   1
   7   1 -12 182184. 8328.24   1
  -7   8  12 219606. 9296.20   1
   1   7 -12 190413. 8395.94   1
  -7  -1  12 190836. 8859.25   2
   7   1 -13 544.326 574.035   1
  -7  -1  13-412.278 575.519   2
  -1  -7  13 278.937 428.970   2
  -7   8  13 226.296 407.753   1
   1   7 -13 835.738 789.304   1
  -7  -1  13 450.774 464.299   1
  -1  -7  13 165.261 333.105   1
  -7  -1  14 4037.76 1388.66   2
  -1  -7  14 4226.48 1323.12   2
   1   7 -14 6615.99 1674.25   1
  -7  -1  14 4731.95 1409.80   1
  -1  -7  14 6314.53 1614.79   1
   7   1 -14 5063.94 1387.11   1
  -7  -1  15 4382.46 1450.45   2
  -1  -7  15 2361.60 1076.98   2
   1   7 -15 4993.28 1477.01   1
  -7  -1  15 3142.39 1065.68   1
  -1  -7  15 3542.50 1208.08   1
   7   1 -15 3253.70 1037.61   1
  -7  -1  16 169880. 8999.20   2
  -8   0   0 19536.1 2529.70   2
   0  -8   0 21310.0 2628.36   2
   8  -8   0 20019.1 2539.84   1
  -8   0   0 19038.7 2414.13   1
   0   8   0 17818.0 2419.94   1
   8   0   0 19079.2 2543.08   1
   0  -8   0 19995.7 2522.35   1
  -8   8   0 20914.6 2753.20   2
  -8   8   0 20957.7 2537.84   1
   0  -8  -1 184388. 7619.93   2
   0  -8   1 114817. 6241.50   2
  -8   0  -1 177725. 7372.43   1
   0   8  -1 175218. 7578.27   1
  -8   0   1 186119. 7706.34   1
   0   8   1 176860. 7511.88   1
   8   0   1 209244. 8074.63   1
   8   0  -1 192894. 7915.84   1
   0  -8   1 256855. 9049.04   1
   0  -8  -1 228912. 8630.61   1
  -8   8   1 179897. 7957.82   2
  -8   8  -1 197783. 7740.48   1
  -8   0   1 165262. 7375.19   2
   8  -8   1 126178. 6436.03   1
   8  -8  -1 219360. 8459.32   1
  -8   0  -1 180546. 7769.60   2
  -8   8   1 200603. 7923.27   1
   8  -8   2 329396. 10292.8   1
  -8   8   2 339463. 10440.2   1
   0  -8   2 344115. 10996.6   2
   0   8  -2 273398. 9379.10   1
  -8   0  -2 362876. 10396.3   1
  -8   0   2 338485. 10370.5   1
   0   8   2 421707. 11595.3   1
   8   0   2 360553. 10527.7   1
   8   0  -2 352450. 10964.4   1
   0  -8   2 350423. 10773.9   1
   0  -8  -2 365934. 10813.2   1
  -8   8  -2 354584. 10462.6   1
  -8   0   2 328499. 10523.4   2
  -8   0  -2 331566. 10719.6   2
  -8   8   2 350450. 11087.7   2
   8  -8  -2 338703. 10562.0   1
   0  -8   3 89412.6 5672.31   2
   0   8  -3 79205.5 4988.26   1
  -8   0   3 71588.1 4781.58   1
   8   0   3 78787.3 4920.89   1
   0   8   3 65770.2 4582.22   1
   8   0  -3 68620.4 4853.26   1
  -8   8  -3 77793.0 4955.88   1
   0  -8   3 81796.2 5256.30   1
   0  -8  -3 79484.4 5015.58   1
  -8   8   3 70868.2 4865.82   1
  -8   8   3 81552.1 5274.96   2
  -8   0  -3 78568.5 5160.43   2
  -8   0   3 81026.7 5282.28   2
   8  -8   3 77283.9 5036.53   1
   8  -8  -3 78387.2 5094.90   1
   0  -8   4 29005.6 3215.10   2
   0   8  -4 21732.6 2699.86   1
  -8   8   4 27562.0 3081.71   2
  -8   8   4 30643.7 3055.07   1
  -8   0   4 30773.1 3206.16   1
   0   8   4 41849.0 3605.18   1
  -8   8  -4 25227.4 2847.22   1
   8   0  -4 26659.4 3075.11   1
   0  -8   4 26398.8 2995.63   1
  -8   0  -4 34704.1 3412.18   2
   0  -8  -4 28343.7 3029.02   1
  -8   0   4 30984.7 3233.67   2
   8  -8   4 31051.0 3168.28   1
   8  -8  -4 26209.9 3053.58   1
   8  -8  -5 144578. 7172.81   1
   0  -8   5 161245. 7747.24   2
   0   8  -5 139538. 6940.40   1
  -8   8  -5 126343. 6474.18   1
  -8   0   5 141953. 6756.08   1
  -8   8   5 130408. 6707.89   1
   8   0  -5 126979. 6554.19   1
   0  -8   5 152195. 7104.99   1
  -8   0  -5 153001. 7238.82   2
  -8   8   5 157314. 7269.87   2
   8  -8   5 151677. 7268.91   1
  -8   0   5 125875. 6645.77   2
   8  -8  -6 410033. 12138.6   1
   0  -8   6 373653. 11917.3   2
   0   8  -6 387223. 11616.0   1
  -8   8  -6 424453. 12095.7   1
  -8   0   6 395714. 11623.9   1
   8   0  -6 387398. 11864.4   1
  -8   8   6 370216. 11209.0   1
   0  -8   6 380756. 11357.9   1
  -8   0  -6 403169. 11647.0   2
  -8   0   6 434615. 12349.2   2
   8  -8   6 406672. 12147.0   1
   8  -8  -7 79812.9 5492.71   1
  -8   8  -7 85146.2 5350.26   1
   0   8  -7 81695.6 5283.83   1
   8  -8   7 97040.8 6035.28   1
  -8   0   7 90947.4 5614.47   1
   8   0  -7 111155. 6108.79   1
   0  -8   7 100474. 5781.35   1
  -8   8   7 107737. 6088.01   1
  -8   0  -7 111899. 6315.05   2
  -8   0   7 93025.5 5795.85   2
   0  -8   7 111514. 6570.71   2
   0   8  -8 48349.6 4071.27   1
   0  -8   8 33811.4 3651.45   2
  -8   0   8 44159.0 3884.46   1
   8   0  -8 40343.3 3789.12   1
   0  -8   8 41955.2 3727.22   1
  -8   8   8 44097.9 3957.24   1
  -8   0  -8 40293.3 3898.70   2
   8  -8   8 47532.9 4104.97   1
   8  -8  -8 46411.5 4216.28   1
  -8   0   8 39180.6 3793.54   2
  -8   8  -8 42614.9 3832.44   1
   8  -8  -9 24028.1 2991.69   1
   0   8  -9 22128.4 2872.05   1
   0  -8   9 27558.7 3312.06   2
  -8   0   9 20796.5 2725.11   1
   8   0  -9 23235.7 2958.73   1
   0  -8   9 18715.5 2561.10   1
  -8   0   9 22822.9 2982.86   2
  -8   8   9 18301.9 2623.30   1
  -8   0  -9 21295.0 2746.79   2
   8  -8   9 20158.6 2774.88   1
  -8   8  -9 21138.5 2739.33   1
   8  -8 -10 142019. 7505.69   1
  -8   8  10 129887. 7053.11   1
   8  -8  10 147115. 7790.07   1
  -8   0  10 131752. 6844.44   1
   8   0 -10 149585. 7372.31   1
   0   8 -10 127459. 6965.13   1
   0  -8  10 153176. 7430.74   1
  -8   8 -10 131951. 7236.67   1
  -8   0  10 147038. 7704.26   2
   0  -8  10 117510. 6957.54   2
   8  -8 -11 119647. 6935.98   1
   0  -8  11 112308. 6790.22   2
  -8   0  11 88596.9 5716.29   1
   8   0 -11 102278. 6470.95   1
   0  -8  11 95332.3 5886.02   1
  -8   8 -11 91878.1 6050.78   1
   8  -8  11 86008.2 5934.36   1
  -8   8  11 79215.6 5573.15   1
   0   8 -11 99304.4 6087.53   1
  -8   0  11 85396.2 5908.18   2
   0  -8  12 13166.7 2330.62   2
  -8   0  12 13765.5 2213.96   1
   8  -8 -12 12619.0 2186.49   1
   8   0 -12 18631.2 2758.97   1
   0  -8  12 14866.1 2407.92   1
  -8   8  12 10696.5 2106.33   1
  -8   0  12 13307.6 2383.74   2
   0   8 -12 11877.3 2106.80   1
   8  -8 -13 89294.4 6236.77   1
   0  -8  13 101468. 6603.88   2
  -8   0  13 96898.2 6080.24   1
   8   0 -13 91382.2 6389.20   1
   0  -8  13 80704.2 5601.38   1
  -8   0  13 82541.4 5951.83   2
   0   8 -13 92331.0 5983.19   1
   0  -8  14 107685. 6937.27   2
  -8   0  14 117381. 6883.56   1
   8   0 -14 107545. 6875.29   1
   0  -8  14 118284. 6909.94   1
  -8   0  14 111245. 7108.90   2
   0   8 -14 118999. 6937.02   1
  -8   0  15 19126.7 2994.47   2
   4  -9  16 2989.58 1229.18   1
  -4   9 -15 21601.5 3123.69   1
  -5   9 -15 22784.2 3276.16   1
   9  -5 -15 25165.4 3232.72   1
  -9   5  15 29962.5 3573.53   1
  -9   4  15 30840.8 3544.23   1
   9  -4 -15 22489.2 3116.57   1
   4  -9  15 23468.7 3074.05   1
   5  -9  15 27982.1 3472.17   1
  -4   9 -14 276837. 10841.1   1
  -9   5  14 218118. 9539.04   1
  -5   9 -14 230070. 9782.01   1
  -9   4  14 299310. 11188.0   1
   9  -5 -14 174840. 8428.94   1
   9  -4 -14 295080. 10923.6   1
   4  -9  14 252394. 10190.3   1
   5  -9  14 256664. 10404.3   1
  -4   9 -13 108822. 6606.39   1
  -9   5  13 113045. 6732.94   1
   9  -5 -13 114739. 6591.21   1
  -9   4  13 115404. 6796.52   1
   9  -4 -13 105977. 6547.80   1
  -5   9 -13 108355. 6684.51   1
   4  -9  13 93828.9 6200.57   1
   5  -9  13 90832.2 6066.56   1
   9  -5 -12 62882.3 4944.01   1
  -9   4  12 45044.9 4280.38   1
  -4   9 -12 58480.5 4844.52   1
   9  -4 -12 56376.7 4560.40   1
  -5   9 -12 48938.0 4427.44   1
   4  -9  12 56074.2 4737.93   1
   5  -9  12 56130.8 4691.91   1
  -9   5  12 50749.9 4480.91   1
  -9   5  11 206021. 8827.54   1
   9  -5 -11 210694. 8793.40   1
  -9   4  11 183117. 8381.86   1
   9  -4 -11 199017. 8553.92   1
  -4   9 -11 197815. 8732.68   1
  -5   9 -11 177946. 8255.19   1
  -9   4  11 210794. 9377.99   2
   4  -9  11 173432. 8174.54   1
   5  -9  11 153111. 7631.95   1
  -9   5  10 224090. 9038.87   1
   9  -5 -10 273768. 9883.96   1
  -9   4  10 264609. 9917.96   1
   9  -4 -10 272244. 9824.98   1
  -4   9 -10 280306. 10238.4   1
  -5   9 -10 257475. 9695.56   1
   4  -9  10 236456. 9243.50   1
   5  -9  10 234289. 9496.00   1
  -9   5  10 247540. 9890.00   2
  -9   4  10 246756. 9909.57   2
  -9   5   9 40072.6 3791.11   1
   9  -5  -9 41840.2 3700.53   1
  -9   4   9 40062.3 3874.84   1
   9  -4  -9 37121.5 3602.72   1
  -9   4   9 40026.2 3945.46   2
  -4   9  -9 46481.1 3980.19   1
  -5   9  -9 38077.7 3669.00   1
   4  -9   9 35523.9 3611.73   1
   5  -9   9 43159.4 4007.91   1
  -9   5   9 46115.4 4219.38   2
  -9   5   8 8806.22 1804.22   1
  -9   4   8 10282.2 1856.20   1
  -4   9  -8 9326.81 1768.59   1
   9  -5  -8 9393.40 1841.43   1
  -5   9  -8 9450.18 1775.27   1
   9  -4  -8 9898.54 1787.31   1
  -9   5   8 11867.8 2075.03   2
   4  -9   8 12075.1 2052.32   1
   5  -9   8 9647.04 1898.83   1
  -9   4   8 8490.33 1861.59   2
  -9   5   7 6727.35 1520.87   1
  -9   4   7 6370.47 1476.06   1
  -4   9  -7 7719.07 1624.47   1
   9  -5  -7 6126.51 1400.67   1
   9  -4  -7 4783.71 1396.65   1
  -5   9  -7 6430.01 1547.51   1
   4  -9   7 6168.31 1433.53   1
   5  -9   7 7146.02 1600.51   1
  -9   5   7 7828.48 1690.06   2
  -9   4   7 4987.37 1283.09   2
   9  -5  -6 52804.3 4245.57   1
  -9   5   6 73945.1 4947.33   1
  -9   4   6 61304.1 4529.26   1
   9  -4  -6 72220.4 4925.11   1
  -4   9  -6 84019.9 5282.55   1
   4  -9   6 70065.2 4910.76   1
  -5   9  -6 65901.6 4647.61   1
   5  -9   6 63151.6 4717.07   1
  -9   5   6 65176.8 4750.68   2
  -9   4   6 74976.3 5097.97   2
  -9   5   5 80235.2 5170.50   2
   9  -5  -5 79591.1 5040.15   1
  -9   5   5 79308.1 5053.73   1
  -9   4   5 79594.5 5098.71   1
   9  -4  -5 78776.0 5057.15   1
  -5   9  -5 99006.6 5629.68   1
  -4   9  -5 77390.0 4961.94   1
   4  -9   5 91164.0 5534.49   1
   5  -9   5 97023.0 5718.05   1
  -9   4   5 87766.5 5516.72   2
  -5  -4  -5 81948.2 5103.02   2
   9  -5  -4 35609.4 3274.14   1
  -9   5   4 30539.3 3091.22   1
  -9   4   4 38553.2 3436.39   1
   9  -4  -4 33595.9 3300.59   1
  -4   9  -4 33449.8 3253.71   1
   4  -9   4 42140.2 3844.33   1
   5  -9   4 31437.2 3334.67   1
  -5   9  -4 36328.4 3383.83   1
  -9   5   4 36022.1 3424.62   2
  -9   4   4 35280.8 3380.65   2
  -5  -4  -4 28130.4 3014.47   2
  -4  -5  -4 28620.6 2960.78   2
   9  -5  -3 96169.7 5434.39   1
  -9   5   3 97767.0 5523.56   1
  -9   4   3 101042. 5693.08   1
   9  -4  -3 103835. 5684.97   1
   5  -9   3 89957.8 5578.22   1
  -4   9  -3 109649. 5912.31   1
   4  -9   3 97129.7 5769.91   1
  -9   5   3 102256. 5712.06   2
  -9   4   3 97448.6 5649.63   2
  -5   9  -3 97970.2 5498.70   1
  -5  -4  -3 98734.0 5545.08   2
  -4  -5  -3 103980. 5680.04   2
   9  -5  -2 801912. 15635.9   1
  -9   5   2 709933. 14894.4   1
  -9   4   2 752856. 15391.4   1
  -5  -4  -2 823443. 16090.7   2
   5  -9   2 716560. 15448.3   1
  -9   4   2 725123. 15283.5   2
  -5   9  -2 620988. 13841.9   1
   9  -4  -2 732620. 14943.5   1
  -9   5   1 128055. 6401.24   2
   9  -5  -1 124940. 6205.11   1
   9  -4  -1 123663. 6098.58   1
  -9   4   1 125105. 6228.15   1
  -5  -4  -1 142529. 6493.18   1
  -4  -5  -1 162278. 6862.54   1
  -9   5   1 123183. 6163.59   1
  -4   9  -1 161634. 7139.71   1
   5   4   1 138518. 6407.06   1
  -4  -5  -1 110703. 6025.07   2
   4   5   1 154048. 6708.08   1
   5  -9   1 138852. 6628.42   1
  -9   4   1 139024. 6623.29   2
  -5  -4  -1 155342. 7053.34   2
   4  -9   1 148952. 7112.09   1
  -5   9  -1 140880. 6534.46   1
  -5   9   0 41871.5 3612.39   1
   9  -5   0 38983.6 3415.30   1
   9  -4   0 39470.7 3419.24   1
  -9   5   0 35917.7 3352.64   1
  -9   4   0 40184.9 3458.28   1
   4   5   0 39317.3 3438.14   1
  -9   5   0 37196.5 3437.90   2
  -5  -4   0 31241.0 3135.85   1
  -4  -5   0 42933.2 3574.51   1
  -4   9   0 40309.4 3559.22   1
   5   4   0 41314.6 3567.16   1
   4  -9   0 32762.5 3331.97   1
   5  -9   0 40419.0 3598.38   1
  -9   4   0 39390.0 3476.84   2
  -5  -4   0 38202.8 3430.62   2
  -4  -5   0 34477.0 3357.81   2
   9  -5   1 354144. 10483.2   1
  -5   9   1 430460. 11580.6   1
   9  -4   1 315180. 9783.62   1
  -9   4  -1 346377. 10212.9   1
  -5  -4   1 368094. 10752.9   1
  -4  -5   1 367877. 10550.2   1
   5   4  -1 341307. 10311.4   1
   4  -9  -1 343402. 10649.4   1
  -9   4  -1 328782. 10236.1   2
   4   5  -1 343686. 10420.1   1
   5  -9  -1 384563. 11364.3   1
  -9   5  -1 381858. 11050.3   2
  -4   9   1 316813. 9930.62   1
  -5  -4   1 385969. 11113.6   2
  -4  -5   1 453156. 11794.7   2
   9  -5   2 437126. 11551.1   1
   9  -4   2 464931. 11827.9   1
  -5   9   2 383230. 11251.1   1
  -9   4  -2 441402. 11767.8   1
  -5  -4   2 480135. 12244.5   1
  -4  -5   2 486199. 12370.2   1
   5   4  -2 499381. 12546.0   1
  -9   5  -2 470363. 12450.9   2
   4  -9  -2 393322. 11405.6   1
  -9   4  -2 401417. 11407.9   2
   4   5  -2 481197. 12357.1   1
   5  -9  -2 418581. 11983.4   1
  -9   5  -2 476075. 12218.2   1
  -5  -4   2 323498. 10329.3   2
  -4   9   2 482497. 12081.4   1
  -4  -5   2 520825. 12872.6   2
   9  -5   3 219370. 8343.35   1
   9  -4   3 185897. 7602.23   1
  -5   9   3 234084. 8760.27   1
  -5  -4   3 211706. 8176.95   1
   4   5  -3 215246. 8421.85   1
  -4  -5   3 218139. 8314.72   1
  -9   5  -3 228320. 8379.70   1
  -9   4  -3 243752. 8745.32   1
   5   4  -3 222951. 8494.22   1
  -9   4  -3 209990. 8339.14   2
  -9   5  -3 218751. 8361.26   2
   4  -9  -3 275174. 9578.89   1
   5  -9  -3 214619. 8587.01   1
  -5  -4   3 207572. 8275.06   2
  -4  -5   3 216920. 8455.76   2
  -4   9   3 271999. 9151.32   1
   9  -5   4 48717.8 4000.40   1
   9  -4   4 51794.6 3905.89   1
  -5   9   4 47116.5 3830.85   1
  -9   5  -4 58049.8 4226.87   1
  -5  -4   4 39273.8 3767.80   1
  -4  -5   4 37215.5 3572.12   1
   5   4  -4 51232.3 4152.56   1
  -4   9   4 44001.7 3741.54   1
  -9   4  -4 42160.0 3716.61   2
  -9   5  -4 53175.9 4257.83   2
  -9   4  -4 46947.5 3829.29   1
   4   5  -4 51651.9 4137.71   1
   5  -9  -4 47880.3 4059.71   1
   4  -9  -4 40402.9 3729.02   1
  -5  -4   4 37488.6 3546.71   2
  -4  -5   4 41448.9 3666.56   2
  -4  -5   5 25831.3 2980.24   2
   9  -4   5 25976.1 2871.38   1
  -9   5  -5 27888.0 2961.13   1
  -4   9   5 24851.9 2804.80   1
  -5   9   5 26788.0 2992.65   1
  -5  -4   5 20554.4 2698.30   1
  -9   4  -5 28868.6 3005.49   1
  -9   4  -5 22058.5 2644.67   2
   5  -9  -5 23741.7 2800.62   1
  -4  -5   5 23343.9 2818.40   1
   5   4  -5 22390.1 2782.26   1
  -9   5  -5 26674.5 2956.90   2
   4   5  -5 26796.5 2882.39   1
  -5  -4   5 22394.9 2794.01   2
   9  -5   5 29838.2 3147.69   1
  -4  -5   6 105235. 6085.29   2
  -4   9   6 113896. 6151.77   1
  -9   5  -6 108220. 6036.57   2
  -5  -4   6 102416. 5958.14   2
  -5   9   6 130725. 6500.35   1
   9  -5   6 119126. 6198.46   1
  -5  -4   6 106244. 6016.27   1
  -4  -5   6 104405. 5881.61   1
   4   5  -6 113745. 6189.13   1
   5   4  -6 111641. 6109.95   1
  -9   5  -6 113044. 5965.71   1
  -9   4  -6 102741. 5949.66   2
   9  -4   6 119459. 6136.05   1
   4  -9  -7 7049.85 1646.61   1
  -4   9   7 9377.11 1703.63   1
  -5  -4   7 6556.85 1499.54   2
  -4  -5   7 8226.99 1756.36   2
   5  -9  -7 9140.85 1786.85   1
   5   4  -7 8640.63 1806.53   1
   9  -5   7 7298.11 1535.60   1
   4   5  -7 8808.17 1707.10   1
  -5   9   7 5062.05 1246.08   1
  -5  -4   7 6495.96 1506.57   1
  -4  -5   7 6989.33 1526.66   1
  -9   5  -7 8624.36 1878.96   2
  -9   4  -7 7855.05 1734.40   2
   4  -9  -8 8135.43 1726.83   1
  -5  -4   8 6140.44 1507.99   2
  -4  -5   8 4852.72 1291.03   2
   5  -9  -8 4988.59 1331.10   1
   5   4  -8 6184.49 1331.85   1
  -4   9   8 6061.72 1471.49   1
   4   5  -8 6638.66 1512.87   1
  -5   9   8 5826.80 1418.41   1
  -5  -4   8 5171.91 1440.32   1
  -4  -5   8 6367.46 1484.04   1
  -9   4  -8 4859.47 1322.89   2
  -9   5  -8 4822.63 1394.48   2
  -4  -5   9 33152.0 3515.98   2
  -5  -4   9 27604.3 3157.10   1
  -4  -5   9 33394.6 3512.82   1
  -5   9   9 23515.9 2924.70   1
   5   4  -9 29547.8 3264.08   1
  -9   5  -9 27794.7 3302.35   2
   4   5  -9 27170.5 3132.01   1
  -9   4  -9 33069.5 3518.53   2
   5  -9  -9 36788.9 3716.66   1
  -5  -4   9 31473.2 3451.54   2
  -4  -5  10 201103. 8813.62   2
  -5  -4  10 266247. 9952.80   1
  -4  -5  10 227325. 9288.44   1
   5   4 -10 257796. 9719.70   1
  -9   4 -10 264819. 10317.5   2
   4   5 -10 232879. 9216.57   1
  -9   5 -10 222413. 9320.23   2
  -5  -4  10 221375. 9245.11   2
  -4  -5  11 151211. 7556.37   2
  -5  -4  11 145155. 7430.89   1
  -4  -5  11 133533. 7132.73   1
   4   5 -11 131005. 6995.06   1
   5   4 -11 143344. 7299.37   1
  -9   4 -11 119360. 7016.84   2
  -5  -4  11 119290. 6815.80   2
  -4  -5  12 33247.5 3672.04   2
  -5  -4  12 42647.8 4054.64   1
  -4  -5  12 46061.8 4115.91   1
   5   4 -12 40690.7 3959.73   1
   4   5 -12 50587.8 4259.01   1
  -5  -4  12 45121.0 4285.93   2
  -4  -5  13 162627. 8119.65   2
  -4  -5  13 146709. 7502.18   1
   5   4 -13 160398. 7883.92   1
  -5  -4  13 150685. 7952.62   2
  -4  -5  14 255978. 10253.1   2
  -5  -4  14 217300. 9363.44   1
  -4  -5  14 269124. 10431.6   1
   5   4 -14 297857. 10910.3   1
   4   5 -14 266312. 10401.0   1
  -5  -4  14 218213. 9559.37   2
  -4  -5  15 21217.6 3025.80   2
  -5  -4  15 26115.1 3314.87   1
  -4  -5  15 33756.9 3718.60   1
   5   4 -15 28038.5 3426.30   1
   4   5 -15 26345.0 3347.79   1
  -5  -4  15 27679.1 3468.03   2
  -9   6  15 1901.73 981.214   1
  -9   3  15 1788.49 851.502   1
   9  -6 -15 1852.15 950.997   1
   9  -3 -15 879.044 782.766   1
  -3   9 -15 2234.46 1070.51   1
   3  -9  15 2224.48 983.249   1
  -3   9 -14 41069.7 4170.17   1
   9  -6 -14 36571.7 3775.98   1
  -9   6  14 27532.7 3352.73   1
  -9   3  14 31865.0 3508.56   1
  -6   9 -14 35836.0 4006.61   1
   9  -3 -14 27395.8 3472.24   1
   3  -9  14 27247.2 3345.76   1
   6  -9  14 27929.5 3393.92   1
   3  -9  13 164.853 375.428   1
  -6   9 -13-162.617 393.911   1
  -9   6  13 73.2917 190.118   1
  -9   3  13 348.192 535.264   1
   9  -6 -13-193.667 306.857   1
   9  -3 -13 396.877 545.784   1
  -3   9 -13 548.176 561.918   1
   6  -9  13 380.690 479.294   1
   9  -6 -12 269676. 10029.5   1
  -3   9 -12 258268. 10025.4   1
  -9   3  12 281508. 10288.4   1
   9  -3 -12 262870. 10259.3   1
  -6   9 -12 284105. 10642.3   1
  -9   6  12 219154. 9240.66   1
   3  -9  12 280693. 10465.7   1
   6  -9  12 233514. 9770.04   1
  -9   3  12 268725. 10767.4   2
  -9   6  11 502.677 518.816   1
  -9   3  11 1332.74 710.486   1
  -6   9 -11 1000.53 756.305   1
   9  -6 -11 734.941 715.205   1
   6  -9  11 552.038 506.673   1
   9  -3 -11 320.558 597.185   1
  -3   9 -11 1430.99 812.977   1
   3  -9  11 375.172 546.038   1
  -9   3  11 358.813 443.535   2
   9  -6 -10 63218.6 4605.73   1
  -9   6  10 40903.5 3862.17   1
  -9   3  10 49345.6 4161.63   1
  -3   9 -10 46422.8 4172.92   1
   9  -3 -10 44792.9 4259.81   1
  -6   9 -10 44931.7 4152.70   1
  -9   3  10 45429.9 4324.33   2
   3  -9  10 45915.0 4188.12   1
   6  -9  10 44049.1 4018.30   1
   9  -6  -9 15141.4 2319.91   1
  -9   6   9 15709.9 2314.88   1
  -9   3   9 16880.3 2275.43   1
   9  -3  -9 16996.2 2381.89   1
  -9   3   9 13743.1 2354.00   2
  -3   9  -9 12718.7 2164.34   1
  -6   9  -9 15131.4 2392.86   1
   3  -9   9 17090.4 2420.66   1
   6  -9   9 15819.0 2327.17   1
   9  -6  -8 412055. 11704.5   1
  -9   6   8 362715. 11174.9   1
  -9   3   8 375718. 11413.0   1
   9  -3  -8 339547. 11146.0   1
  -3   9  -8 431051. 12363.9   1
   3  -9   8 366536. 11395.0   1
  -6   9  -8 344085. 11037.3   1
   6  -9   8 430049. 12655.5   1
  -9   6   8 384097. 12065.1   2
  -9   3   8 445944. 13148.3   2
  -3   9  -7 3547.83 1147.00   1
  -9   6   7 2155.40 861.906   1
  -9   3   7 4664.56 1285.85   1
   9  -6  -7 3172.02 1065.34   1
   9  -3  -7 2680.88 1057.05   1
   3  -9   7 3655.56 1157.01   1
  -9   6   7 3966.29 1175.27   2
  -6   9  -7 2983.09 1055.66   1
  -9   3   7 3534.37 1093.73   2
   6  -9   7 3219.84 1106.15   1
  -6   9  -6 3632.20 1185.23   1
  -9   6   6 2268.94 889.568   1
  -3   9  -6 2988.68 1005.16   1
  -9   3   6 2622.94 818.152   1
   9  -6  -6 2672.22 838.237   1
   3  -9   6 3577.39 1015.66   1
   9  -3  -6 2166.52 990.687   1
  -9   6   6 2732.59 1070.22   2
   6  -9   6 2261.22 838.872   1
  -6  -3  -6 1285.14 580.049   2
  -9   3   6 1981.03 1037.20   2
  -6   9  -5 35779.9 3325.25   1
   9  -6  -5 29746.4 3014.94   1
  -9   6   5 32561.4 3162.34   1
  -9   3   5 33134.1 3180.00   1
   9  -3  -5 27709.1 3167.47   1
  -3   9  -5 28211.2 3091.65   1
   3  -9   5 24299.1 2920.90   1
   6  -9   5 29583.7 3149.87   1
  -9   6   5 33171.1 3371.96   2
  -9   3   5 28907.8 3183.15   2
  -6  -3  -5 37018.8 3505.73   2
   9  -6  -4 652544. 14392.3   1
  -9   6   4 655867. 14509.5   1
  -9   3   4 675431. 15036.3   1
   9  -3  -4 680083. 14983.1   1
  -9   3   4 642470. 15021.7   2
  -3   9  -4 648430. 14606.1   1
   3  -9   4 625553. 14567.5   1
   6  -9   4 625371. 14570.5   1
  -9   6   4 601420. 14516.0   2
  -6   9  -4 724967. 15065.6   1
  -6  -3  -3 2171.72 1103.23   2
   6  -9   3 1651.44 865.757   1
  -3  -6  -3 945.818 419.867   2
  -9   6   3 160.460 257.513   1
  -9   3   3 1292.93 547.961   1
   9  -6  -3 1941.90 669.446   1
  -3   9  -3 838.411 464.658   1
   9  -3  -3 430.375 357.514   1
  -6   9  -3 1244.88 711.695   1
  -9   6   3 926.010 621.885   2
   3  -9   3 1597.63 870.246   1
  -9   3   3 385.921 512.148   2
  -6  -3  -2 4636.24 1165.45   2
   6  -9   2 7114.48 1590.32   1
  -3  -6  -2 4909.80 1205.10   2
  -9   6   2 6584.12 1435.13   1
  -9   3   2 5455.62 1363.67   1
   9  -6  -2 5228.31 1287.46   1
   3   6   2 6518.88 1398.52   1
   9  -3  -2 6024.11 1399.95   1
  -3   9  -2 6686.80 1512.17   1
  -3  -6  -2 5987.82 1337.60   1
  -9   6   2 5149.42 1274.66   2
   3  -9   2 5296.60 1264.32   1
  -6   9  -2 5916.39 1348.47   1
   6   3   2 5494.27 1241.39   1
  -9   3   2 7155.37 1454.15   2
  -6  -3  -1 231.327 412.513   2
  -9   6   1 1321.52 815.622   1
   6  -9   1-483.244 558.256   1
  -3  -6  -1 58.2876 319.726   2
  -6   9  -1 82.0186 292.550   1
  -9   3   1 1133.39 773.279   1
   9  -6  -1 436.939 641.249   1
   3   6   1 432.372 412.239   1
  -6  -3  -1 523.998 505.033   1
   9  -3  -1 168.941 250.400   1
  -3  -6  -1 85.0112 253.224   1
  -3   9  -1 275.444 548.078   1
  -9   6   1 1331.27 784.568   2
  -9   3   1 404.869 641.232   2
   6   3   1 51.3721 159.930   1
   3  -9   1 309.195 480.750   1
   9  -6   0 773084. 15395.5   1
  -6   9   0 834644. 16269.4   1
  -3  -6   0 623628. 14071.6   1
  -9   6   0 717890. 15128.2   1
  -3   9   0 691114. 15025.3   1
  -9   6   0 789628. 16292.0   2
  -6  -3   0 740818. 15410.3   2
  -6  -3   1 2986.71 958.091   2
   6  -9  -1 3112.11 1040.06   1
  -3  -6   1 2650.81 1056.47   2
  -9   3  -1 3615.29 1032.70   1
   9  -6   1 2416.11 733.355   1
  -6   9   1 3533.64 1037.49   1
   9  -3   1 2370.21 817.357   1
   3   6  -1 3005.89 1004.12   1
  -6  -3   1 2735.06 943.064   1
  -3  -6   1 2672.24 979.102   1
  -9   6  -1 3244.46 915.445   1
  -9   6  -1 2845.69 1009.19   2
   6   3  -1 3129.00 992.480   1
  -3   9   1 2838.79 939.096   1
  -9   3  -1 3817.98 1188.27   2
   3  -9  -1 4728.95 1347.53   1
  -3  -6   2 26374.9 2947.19   2
   9  -6   2 24164.4 2836.27   1
   9  -3   2 26355.3 2795.61   1
  -9   3  -2 26027.8 2775.36   1
  -9   3  -2 20939.4 2621.74   2
  -6  -3   2 24684.8 2764.67   1
  -6   9   2 23668.3 2681.78   1
  -9   6  -2 23909.8 2752.69   1
  -3  -6   2 18098.4 2366.65   1
   6   3  -2 22340.1 2666.30   1
  -3   9   2 27665.3 2992.78   1
  -9   6  -2 23340.6 2785.41   2
   6  -9  -2 27717.4 3117.07   1
   3   6  -2 22181.9 2660.10   1
  -6  -3   2 23466.3 2817.86   2
   3  -9  -2 36101.3 3455.07   1
  -3  -6   3 24468.5 2869.16   2
   9  -3   3 26018.4 2692.05   1
  -9   3  -3 26418.4 2823.82   1
  -9   6  -3 27419.5 2925.51   1
  -6  -3   3 27469.2 2903.09   1
  -6   9   3 18667.7 2413.56   1
  -3  -6   3 20577.4 2613.15   1
  -9   3  -3 27665.6 2982.67   2
  -3   9   3 29522.2 3051.37   1
   6   3  -3 30035.5 3107.23   1
   6  -9  -3 22119.5 2798.72   1
   3   6  -3 25326.6 2912.43   1
  -9   6  -3 22441.3 2839.30   2
  -6  -3   3 22106.8 2691.46   2
   9  -6   3 24089.6 2776.40   1
  -9   6  -4 456443. 12189.8   1
  -3  -6   4 576796. 14017.9   2
   9  -3   4 530952. 12698.3   1
  -9   3  -4 487767. 12425.4   1
  -6  -3   4 495546. 12977.3   1
  -3  -6   4 478223. 12484.0   1
  -6   9   4 497994. 12501.1   1
   6   3  -4 479341. 12598.4   1
  -9   6  -4 504281. 13049.0   2
  -9   3  -4 400667. 11788.6   2
  -3   9   4 554270. 13565.9   1
   3  -9  -4 669203. 15388.7   1
   6  -9  -4 432528. 12142.7   1
   3   6  -4 454850. 12368.8   1
  -6  -3   4 537791. 13621.2   2
   9  -6   4 511830. 13022.3   1
   6   3  -5 1057.44 536.697   1
  -6  -3   5 1082.27 736.021   2
  -3  -6   5 1069.03 719.736   2
   6  -9  -5 1241.49 587.099   1
  -3   9   5 874.538 529.137   1
   9  -6   5 1518.65 643.850   1
   9  -3   5 823.264 423.002   1
   3   6  -5 1130.19 668.624   1
  -6  -3   5 1497.10 682.272   1
  -3  -6   5 507.966 343.979   1
  -6   9   5 2989.82 938.396   1
  -9   6  -5 1310.28 856.947   2
  -9   3  -5 1758.39 783.642   2
  -9   6  -5 1009.95 421.898   1
   3  -9  -5 1477.61 724.866   1
   6   3  -6 4781.90 1223.66   1
  -6  -3   6 4554.04 1330.12   2
   6  -9  -6 3128.34 1106.64   1
  -3  -6   6 4371.88 1250.39   2
   9  -6   6 4237.42 1135.41   1
  -3   9   6 3352.20 993.476   1
   3   6  -6 4227.26 1191.37   1
  -6  -3   6 4895.92 1416.76   1
  -3  -6   6 4800.54 1247.20   1
  -6   9   6 4387.42 1149.18   1
  -9   6  -6 4631.34 1231.57   1
  -9   6  -6 5428.32 1448.59   2
  -9   3  -6 4271.93 1245.92   2
   3  -9  -6 5450.55 1293.54   1
  -3  -6   7 34320.5 3452.23   2
  -6  -3   7 39116.5 3720.16   1
  -3  -6   7 36946.5 3582.66   1
  -9   6  -7 36335.5 3448.20   1
   6   3  -7 38493.4 3698.93   1
  -6   9   7 31245.1 3221.77   1
  -9   3  -7 46468.2 4023.69   2
  -9   6  -7 43999.8 4055.20   2
   3   6  -7 49781.4 4091.76   1
  -3   9   7 54692.2 4269.86   1
   9  -6   7 47733.7 3983.36   1
   6  -9  -7 55467.4 4455.48   1
  -6  -3   7 41313.8 3928.21   2
  -3  -6   8 486294. 13418.7   2
  -6  -3   8 418606. 12162.7   1
  -3  -6   8 475058. 12953.5   1
   6   3  -8 400890. 12030.3   1
   3   6  -8 491576. 13186.5   1
  -6   9   8 416911. 12102.5   1
  -9   6  -8 584642. 14841.4   2
  -9   3  -8 535483. 14170.6   2
   9  -6   8 521549. 13691.5   1
   6  -9  -8 556211. 14132.5   1
  -6  -3   8 471136. 13123.2   2
   6   3  -9 1178.78 660.752   1
  -6  -3   9 1124.19 738.403   2
  -3  -6   9 275.461 365.448   2
   6  -9  -9 1870.02 799.337   1
  -9   3  -9 518.313 368.865   2
   3   6  -9 429.430 427.224   1
  -6  -3   9 295.265 571.042   1
  -3  -6   9-472.690 634.152   1
  -6   9   9 1024.91 701.317   1
  -3  -6  10 45148.3 4019.70   2
  -6  -3  10 38008.2 3676.98   1
  -3  -6  10 35669.8 3655.74   1
   6   3 -10 33815.8 3417.22   1
  -6   9  10 23385.0 2959.39   1
  -9   3 -10 40754.3 3923.57   2
   3   6 -10 43791.5 4029.39   1
   6  -9 -10 32203.3 3489.38   1
  -6  -3  10 37160.1 3762.19   2
   6   3 -11 6424.62 1518.77   1
  -6  -3  11 4155.51 1413.23   2
  -3  -6  11 5587.75 1504.44   2
   3   6 -11 6721.74 1535.29   1
  -6  -3  11 5785.69 1493.50   1
  -3  -6  11 6323.40 1415.92   1
  -9   3 -11 6180.02 1627.75   2
  -3  -6  12 415145. 12851.3   2
  -6  -3  12 367720. 11791.9   1
  -3  -6  12 311835. 10928.7   1
   6   3 -12 376036. 12020.1   1
  -9   3 -12 270988. 10868.6   2
   3   6 -12 346659. 11464.1   1
  -6  -3  12 389841. 12478.3   2
  -6  -3  13 4890.57 1330.72   2
  -3  -6  13 4255.77 1323.79   2
   3   6 -13 3903.04 1205.18   1
  -6  -3  13 3833.19 1227.04   1
  -3  -6  13 2908.98 998.320   1
   6   3 -13 4489.02 1372.34   1
  -3  -6  14 27131.6 3326.86   2
   3   6 -14 27179.6 3319.00   1
  -6  -3  14 25915.4 3217.14   1
  -3  -6  14 23645.6 3117.86   1
   6   3 -14 32345.4 3558.66   1
  -6  -3  14 23640.8 3280.26   2
  -6  -3  15 4370.99 1464.63   2
  -9   7  15 4126.17 1309.99   1
   9  -7 -15 4323.87 1321.99   1
  -2   9 -14 156310. 8201.75   1
   9  -7 -14 145638. 7870.57   1
  -9   2  14 141027. 7608.99   1
   2  -9  14 141491. 7568.46   1
  -9   2  14 133702. 7953.25   2
  -2   9 -13 21760.1 2977.68   1
   9  -7 -13 18251.8 2674.47   1
  -9   2  13 21052.2 2840.84   1
   9  -2 -13 16118.7 2544.40   1
  -9   7  13 13192.9 2316.96   1
   2  -9  13 20250.9 2764.25   1
   7  -9  13 21159.0 2877.30   1
  -9   2  13 16522.9 2736.11   2
  -2   9 -12 26617.8 3173.01   1
   9  -7 -12 21112.7 2914.41   1
  -9   7  12 20163.1 2837.62   1
  -9   2  12 19895.1 2762.62   1
   9  -2 -12 20077.2 2841.01   1
  -7   9 -12 17456.7 2604.84   1
   2  -9  12 22382.4 2812.77   1
   7  -9  12 19195.1 2852.94   1
  -9   2  12 20314.1 2986.94   2
   9  -7 -11 69969.7 5167.83   1
  -2   9 -11 67118.9 5072.97   1
  -9   7  11 70553.4 5185.28   1
  -9   2  11 79358.9 5505.78   1
   9  -2 -11 88613.7 5843.43   1
  -7   9 -11 78738.2 5576.99   1
   2  -9  11 73270.1 5279.33   1
  -9   2  11 76814.2 5772.89   2
   7  -9  11 69627.4 5348.56   1
   9  -7 -10 83792.0 5595.78   1
  -2   9 -10 85091.8 5681.46   1
  -9   7  10 77392.3 5325.22   1
  -9   2  10 74817.2 5225.48   1
   9  -2 -10 78757.8 5497.94   1
   2  -9  10 78347.3 5447.64   1
  -7   9 -10 79076.1 5506.09   1
  -9   2  10 79917.8 5639.32   2
   7  -9  10 77991.5 5601.16   1
   9  -7  -9 89179.1 5696.37   1
  -9   7   9 102008. 6120.22   1
  -2   9  -9 79763.3 5363.30   1
  -9   2   9 80962.8 5477.74   1
   9  -2  -9 91911.0 5913.58   1
   2  -9   9 89477.9 5776.41   1
  -7   9  -9 84501.3 5596.68   1
   7  -9   9 95936.4 6041.73   1
  -9   2   9 98347.9 6070.51   2
  -2   9  -8 4558.91 1225.99   1
  -9   7   8 4748.60 1244.74   1
   9  -7  -8 3673.33 1209.54   1
  -9   2   8 4633.40 1283.34   1
   9  -2  -8 4147.40 1394.32   1
   2  -9   8 3834.39 1161.38   1
   7  -9   8 5137.93 1404.39   1
  -7   9  -8 7231.22 1643.74   1
  -9   2   8 4946.83 1399.44   2
   9  -7  -7 114807. 6264.62   1
  -9   7   7 93671.2 5761.99   1
  -9   2   7 97607.0 5882.66   1
  -2   9  -7 109879. 6194.68   1
  -7  -2  -7 108162. 6191.24   2
   9  -2  -7 103137. 5984.61   1
   7  -9   7 104203. 6273.64   1
   2  -9   7 92323.1 5706.61   1
  -7   9  -7 102623. 5880.98   1
  -9   7   7 110213. 6281.07   2
  -9   2   7 108169. 6305.68   2
   9  -7  -6 506814. 13123.4   1
  -9   7   6 451516. 12483.6   1
  -9   2   6 420525. 12090.4   1
   9  -2  -6 505393. 13256.7   1
  -2   9  -6 479287. 12961.8   1
   7  -9   6 479379. 13118.8   1
  -9   7   6 468519. 12976.8   2
  -7  -2  -6 427689. 12466.0   2
  -9   2   6 478089. 13152.8   2
  -7   9  -6 497081. 12740.1   1
   9  -7  -5 221009. 8601.97   1
  -9   2   5 219116. 8574.51   1
   9  -2  -5 218497. 8788.65   1
  -2   9  -5 208665. 8565.42   1
  -9   7   5 209952. 8555.61   2
   7  -9   5 212170. 8534.83   1
  -7  -2  -5 229171. 9123.62   2
  -9   2   5 225510. 9012.45   2
  -7   9  -5 201275. 8084.21   1
   9  -7  -4 250388. 9046.46   1
  -7   9  -4 250008. 9083.38   1
  -9   7   4 252681. 9143.58   1
  -9   2   4 238625. 8892.27   1
   9  -2  -4 251864. 9367.29   1
  -2   9  -4 234349. 9005.79   1
   2  -9   4 255417. 9356.96   1
   7  -9   4 266037. 9842.15   1
  -9   2   4 256298. 9558.73   2
  -7  -2  -4 267585. 9594.82   2
  -9   7   4 263632. 9594.06   2
   2   7   3 150291. 6843.85   1
   9  -7  -3 133271. 6589.07   1
  -7   9  -3 134333. 6777.39   1
  -9   2   3 131891. 6590.47   1
   9  -2  -3 132222. 6664.52   1
  -2   9  -3 129129. 6579.44   1
   2  -9   3 128889. 6685.57   1
  -9   7   3 152922. 7239.22   2
   7  -9   3 142572. 6980.99   1
  -9   2   3 148317. 7229.18   2
  -7  -2  -3 134538. 6797.38   2
  -9   7   3 128468. 6494.57   1
   9  -7  -2 458349. 12170.7   1
  -9   2   2 466286. 12323.7   1
  -7   9  -2 450171. 12233.8   1
   9  -2  -2 435466. 12124.1   1
   7   2   2 437553. 11913.8   1
  -2   9  -2 470030. 12472.8   1
  -2  -7  -2 584121. 13356.2   1
   2  -9   2 445837. 12434.2   1
  -9   7   2 423314. 11770.7   1
  -9   7   2 456294. 12606.5   2
   7  -9   2 417669. 12093.0   1
  -9   2   2 449052. 12544.8   2
  -7  -2  -2 543735. 13559.6   2
  -2  -7  -2 444607. 11662.6   2
  -7  -2  -1 1983.53 732.126   2
   7  -9   1 2668.21 1083.56   1
  -2  -7  -1 2254.65 902.375   2
   9  -7  -1 1649.20 831.371   1
  -9   2   1 1008.41 557.388   1
  -7   9  -1 1131.34 402.822   1
  -2   9  -1 1940.86 869.346   1
  -7  -2  -1 1229.68 625.294   1
  -9   7   1 1484.81 793.160   1
   7   2   1 2338.77 876.583   1
   9  -2  -1 888.234 621.211   1
   2   7   1 2327.54 943.775   1
  -2  -7  -1 1767.26 738.387   1
  -9   7   1 1807.84 817.646   2
   2  -9   1 2676.79 958.713   1
  -9   2   1 1969.48 900.638   2
  -7  -2   0 1005.49 755.313   2
  -9   7   0 1165.04 790.466   1
   7  -9   0 1581.42 864.859   1
   9  -7   0 652.556 417.165   1
  -9   2   0 805.328 484.001   1
  -7  -2   0 912.764 623.159   1
  -2   9   0 1064.77 595.264   1
  -7   9   0 1053.66 686.176   1
   9  -2   0 705.394 644.733   1
   2   7   0 1612.15 815.916   1
  -2  -7   0 924.127 642.955   1
  -9   7   0 937.466 626.909   2
   7   2   0 2354.89 904.308   1
   2  -9   0 2068.63 875.563   1
  -9   2   0 997.092 660.249   2
   2   7  -1 26238.4 2894.88   1
  -2  -7   1 29688.9 3087.37   2
  -9   7  -1 28008.6 2983.24   1
  -9   2  -1 27389.5 2953.01   1
   9  -2   1 28635.8 2971.66   1
  -7  -2   1 30060.7 3043.34   1
   7   2  -1 26672.7 2936.48   1
  -7   9   1 26550.2 2804.15   1
  -2  -7   1 23335.5 2787.25   1
  -2   9   1 25009.7 2832.58   1
   7  -9  -1 24242.1 2892.49   1
   2  -9  -1 40563.6 3702.04   1
  -9   7  -1 24219.6 2905.65   2
  -9   2  -1 28162.1 3064.23   2
  -7  -2   1 26117.1 2919.74   2
   9  -7   1 26831.3 2991.74   1
   2   7  -2 128965. 6550.52   1
  -2  -7   2 144415. 6968.06   2
  -9   7  -2 142355. 6709.80   1
   9  -2   2 145436. 6684.54   1
  -9   2  -2 134917. 6584.73   1
  -7  -2   2 148239. 7066.75   1
   7   2  -2 120008. 6372.59   1
  -2  -7   2 135040. 6601.22   1
  -7   9   2 136792. 6605.64   1
  -2   9   2 126450. 6470.73   1
   2  -9  -2 144309. 6977.61   1
  -9   2  -2 115131. 6279.32   2
  -9   7  -2 134344. 6925.62   2
   7  -9  -2 132382. 6606.74   1
  -7  -2   2 136648. 6766.25   2
   9  -7   2 143881. 6995.21   1
  -2  -7   3 412389. 11916.4   2
   7  -9  -3 319157. 10463.8   1
   9  -2   3 389633. 10805.2   1
  -9   2  -3 378149. 10832.2   1
  -9   2  -3 334323. 10609.3   2
  -7  -2   3 353478. 10859.3   1
  -2  -7   3 345610. 10626.1   1
   7   2  -3 277124. 9901.72   1
  -2   9   3 443864. 12306.8   1
  -7   9   3 330576. 10290.7   1
   2  -9  -3 460392. 12516.9   1
  -9   7  -3 341203. 11108.8   2
  -9   7  -3 363192. 10835.0   1
  -7  -2   3 362974. 11182.8   2
   9  -7   3 387138. 11467.5   1
   2   7  -3 353690. 10891.3   1
  -2  -7   4 18103.0 2573.50   2
  -7  -2   4 11087.0 1892.40   2
  -7  -2   4 11725.5 1997.41   1
  -2  -7   4 11361.4 1926.39   1
   7   2  -4 11787.6 2038.53   1
   2   7  -4 11616.7 1915.60   1
  -2   9   4 13316.2 1987.11   1
   2  -9  -4 11566.6 2049.28   1
  -7   9   4 13744.6 2100.60   1
  -9   7  -4 12100.6 2181.54   2
  -9   7  -4 9127.15 1800.47   1
  -9   2  -4 8377.35 1706.73   2
   7  -9  -4 15263.7 2250.34   1
   9  -7   4 13107.3 2162.83   1
  -2  -7   5 214209. 8895.35   2
  -7  -2   5 246161. 9160.45   1
  -2  -7   5 226774. 8698.44   1
   7   2  -5 248512. 9262.53   1
  -9   7  -5 214994. 8392.63   1
  -2   9   5 277500. 9601.96   1
   2  -9  -5 318177. 10669.8   1
  -9   7  -5 236297. 9428.95   2
  -7   9   5 184543. 7975.61   1
  -9   2  -5 297482. 10201.4   2
   9  -7   5 250585. 9250.73   1
  -7  -2   5 254903. 9574.73   2
   7  -9  -5 271287. 9734.54   1
   2   7  -5 237195. 8946.90   1
  -2  -7   6 423414. 12623.4   2
  -7  -2   6 394360. 11660.0   1
  -9   7  -6 453843. 12387.4   1
  -2  -7   6 393455. 11638.7   1
   7   2  -6 394840. 11878.7   1
  -2   9   6 447343. 12228.0   1
  -9   7  -6 398591. 12091.7   2
  -7   9   6 436237. 12149.1   1
   9  -7   6 430890. 12397.0   1
  -9   2  -6 340316. 11004.6   2
  -7  -2   6 446004. 12693.6   2
   7  -9  -6 353690. 11382.4   1
   2   7  -6 397343. 11716.2   1
  -2  -7   7 25971.2 3112.65   2
  -9   7  -7 29516.2 3244.37   1
  -7   9   7 26120.9 2904.52   1
  -7  -2   7 26675.4 3048.98   1
  -2  -7   7 23567.7 2906.67   1
   7   2  -7 28053.0 3224.58   1
  -9   2  -7 23444.6 2881.80   2
   9  -7   7 31291.3 3350.77   1
  -7  -2   7 24042.0 2949.74   2
   7  -9  -7 18933.1 2691.30   1
   2   7  -7 30285.2 3280.64   1
  -2  -7   8 125742. 7011.97   2
  -9   7  -8 104884. 6256.47   1
  -7  -2   8 98555.5 5890.96   1
   9  -7   8 108312. 6452.97   1
  -2  -7   8 97082.3 5845.31   1
   7   2  -8 87365.4 5664.12   1
  -9   2  -8 97636.7 6077.60   2
  -7   9   8 80742.8 5393.04   1
   2   7  -8 91738.4 5697.71   1
  -7  -2   8 99580.4 6045.82   2
   7  -9  -8 75724.6 5380.63   1
  -2  -7   9 25624.0 3167.85   2
  -7  -2   9 28703.9 3295.97   1
  -2  -7   9 26840.5 3116.35   1
   7   2  -9 29810.9 3192.16   1
   9  -7   9 27657.0 3248.89   1
  -9   2  -9 28303.4 3322.77   2
   2   7  -9 26253.5 3090.93   1
  -7  -2   9 32945.8 3449.31   2
  -7   9   9 26544.3 3112.12   1
   7  -9  -9 21176.0 2865.21   1
  -2  -7  10 285558. 10715.0   2
  -7  -2  10 236885. 9320.57   1
  -2  -7  10 226675. 9227.55   1
   7   2 -10 266376. 9963.46   1
  -9   2 -10 225026. 9537.95   2
  -7   9  10 298441. 10680.2   1
   2   7 -10 214061. 8924.82   1
  -7  -2  10 219306. 9324.48   2
   7  -9 -10 246991. 10009.2   1
  -7   9  11 66496.2 5110.27   1
  -2  -7  11 80390.0 5719.63   2
  -9   2 -11 56732.2 4998.28   2
  -7  -2  11 69027.1 5083.92   1
  -2  -7  11 67459.4 5090.82   1
   7   2 -11 71685.4 5254.46   1
   2   7 -11 88184.0 5833.33   1
  -7  -2  11 62017.1 5057.84   2
   7  -9 -11 46269.7 4403.68   1
  -7  -2  12 13003.9 2257.51   2
  -2  -7  12 11682.0 2270.56   2
   2   7 -12 9672.13 1918.28   1
  -2  -7  12 12466.5 2167.58   1
  -7  -2  12 10024.7 1964.08   1
   7   2 -12 10397.0 2085.05   1
  -2  -7  13 45129.2 4266.13   2
  -7  -2  13 54309.1 4629.41   1
  -2  -7  13 41972.5 4086.77   1
   7   2 -13 47138.3 4348.56   1
  -7  -2  13 50526.6 4543.48   2
   2   7 -13 46259.3 4327.27   1
  -2  -7  14 64393.4 5267.46   2
  -7  -2  14 73688.4 5398.12   1
  -2  -7  14 61726.4 4949.95   1
   7   2 -14 58139.2 4918.98   1
   2   7 -14 70879.5 5265.63   1
  -7  -2  14 61186.4 5241.12   2
  -9   8  14 92865.3 6384.81   1
  -9   1  14 88693.3 6424.42   2
  -9   8  13 76673.4 5768.45   1
   9  -8 -13 80906.3 5870.97   1
   1  -9  13 79652.2 6027.60   2
  -9   1  13 78648.6 5603.64   1
   9  -1 -13 80047.9 5811.70   1
   1  -9  13 71295.8 5342.61   1
  -9   1  13 65462.7 5453.56   2
  -1   9 -13 88093.5 5887.89   1
  -9   1  12 10068.9 2048.45   2
   9  -8 -12 12514.8 2282.91   1
   1  -9  12 8710.12 1924.09   2
  -9   1  12 10878.6 1957.98   1
  -9   8  12 7480.03 1789.54   1
   1  -9  12 10239.1 2016.72   1
  -1   9 -12 8848.79 1823.80   1
   9  -1 -12 10186.0 2060.48   1
   8  -9  12 8738.52 2002.20   1
  -1   9 -11 14051.8 2373.22   1
   9  -8 -11 13258.9 2305.80   1
   1  -9  11 12616.6 2382.48   2
  -9   1  11 12843.6 2211.86   1
   9  -1 -11 11866.0 2295.61   1
  -9   8  11 7781.04 1796.98   1
   1  -9  11 11711.0 2079.76   1
  -8   9 -11 12997.7 2280.50   1
   8  -9  11 13055.6 2359.44   1
  -9   1  11 12112.2 2298.15   2
   9  -8 -10 152537. 7615.50   1
  -1   9 -10 173007. 8099.85   1
   1  -9  10 163512. 8382.68   2
  -9   1  10 196715. 8631.70   1
   9  -1 -10 151202. 8081.93   1
   1  -9  10 220015. 8939.07   1
  -8   9 -10 168754. 8231.22   1
   8  -9  10 180079. 8631.87   1
  -9   1  10 190709. 8759.28   2
  -9   8  10 184845. 8420.24   1
  -8   9  -9 41359.9 4021.93   1
   9  -8  -9 46448.1 4151.10   1
  -1   9  -9 53564.3 4476.22   1
   1  -9   9 52422.4 4586.27   2
  -9   1   9 47560.5 4211.06   1
   9  -1  -9 45580.4 4280.32   1
   1  -9   9 37137.5 3717.29   1
   8  -9   9 44180.9 4243.76   1
  -9   1   9 51652.8 4586.73   2
  -9   8   9 56188.6 4486.05   1
  -9   1   8 4570.14 1374.66   2
   1  -9   8 3490.44 1158.04   2
  -9   8   8 2629.73 943.844   1
  -8   9  -8 4053.98 1285.02   1
   9  -8  -8 4008.50 1297.54   1
  -9   1   8 5010.37 1436.26   1
   9  -1  -8 3090.63 1080.64   1
  -1   9  -8 3101.17 1123.71   1
   1  -9   8 4170.06 1293.89   1
  -8  -1  -8 4836.55 1338.46   2
   8  -9   8 2581.83 1019.13   1
   9  -8  -7 126069. 6738.33   1
  -9   8   7 157224. 7542.45   1
   1  -9   7 94726.2 6097.57   2
  -1   9  -7 131333. 6826.00   1
  -9   1   7 134292. 6880.73   1
   9  -1  -7 124249. 6863.21   1
   1  -9   7 118780. 6582.54   1
  -8  -1  -7 136101. 7016.56   2
   8  -9   7 118454. 6664.76   1
  -9   1   7 142449. 7307.01   2
  -8   9  -7 97002.0 5833.99   1
  -8   9  -6 162346. 7463.74   1
   9  -8  -6 179940. 8039.48   1
   1  -9   6 120714. 6960.03   2
  -1   9  -6 183371. 8048.45   1
  -9   1   6 148044. 7280.44   1
   9  -1  -6 154016. 7588.60   1
   1  -9   6 190338. 8426.18   1
  -9   8   6 160114. 7496.89   1
   8  -9   6 162072. 7848.15   1
  -8  -1  -6 149577. 7357.32   2
  -9   1   6 170284. 7929.82   2
   9  -8  -5 70941.8 5116.77   1
   1  -9   5 72153.5 5365.88   2
  -8   9  -5 77401.9 5230.22   1
   8  -9   5 69554.5 5067.88   1
  -1   9  -5 67111.7 4793.75   1
  -9   1   5 65638.2 4828.57   1
   9  -1  -5 70122.9 4980.69   1
   1  -9   5 57793.2 4602.84   1
  -9   8   5 61103.8 4491.54   1
  -9   8   5 69786.7 5047.65   2
  -8  -1  -5 63552.3 4866.64   2
  -9   1   5 67432.9 4965.06   2
   9  -8  -4 99291.0 6005.05   1
   1  -9   4 112471. 6697.98   2
  -9   8   4 105444. 6290.15   2
  -8   9  -4 98408.9 5914.87   1
  -9   1   4 94837.3 5825.94   1
  -1   9  -4 92628.0 5730.58   1
   9  -1  -4 95759.5 5834.27   1
  -8  -1  -4 94276.8 5828.73   2
  -9   8   4 103229. 5942.61   1
   8  -9   4 101607. 6120.04   1
   1  -9   4 82010.7 5436.69   1
  -9   1   4 102359. 6127.70   2
   1  -9   3 67197.7 4965.17   2
   1   8   3 62916.7 4563.00   1
  -9   1   3 65427.7 4682.94   1
  -8   9  -3 74566.6 4954.40   1
  -1   9  -3 65728.8 4743.12   1
  -9   8   3 67660.7 4704.96   1
   9  -1  -3 60756.9 4703.49   1
   1  -9   3 58716.6 4511.34   1
  -9   8   3 62911.2 4817.33   2
  -8  -1  -3 60722.6 4664.13   2
   8  -9   3 66585.5 4895.74   1
  -9   1   3 68393.2 4894.20   2
   9  -8  -3 64880.4 4697.05   1
   1  -9   2 432131. 12802.9   2
   1   8   2 404427. 11728.4   1
  -9   1   2 410260. 12005.6   1
  -9   8   2 451304. 12364.4   1
   9  -1  -2 394667. 11835.4   1
  -1   9  -2 306903. 10477.8   1
  -8   9  -2 361999. 10856.4   1
  -1  -8  -2 329063. 10500.7   1
   1  -9   2 447581. 12445.9   1
  -9   8   2 449717. 12990.5   2
  -8  -1  -2 456055. 12828.7   2
  -9   1   2 388753. 11790.6   2
   8  -9   2 412702. 12027.0   1
   9  -8  -2 413505. 11942.2   1
   1  -9   1 76630.9 5395.68   2
  -9   8   1 94435.6 5608.60   1
   1   8   1 108444. 6095.60   1
  -9   1   1 108265. 6112.02   1
  -8  -1  -1 113401. 6106.85   1
   9  -1  -1 109348. 6119.34   1
  -1   9  -1 110542. 6221.84   1
   8   1   1 94094.2 5601.69   1
  -8   9  -1 98334.5 5584.44   1
  -1  -8  -1 112338. 6172.40   1
   1  -9   1 117595. 6395.01   1
  -9   8   1 117428. 6564.71   2
  -9   1   1 120791. 6450.39   2
  -8  -1  -1 84620.5 5572.36   2
   8  -9   1 98513.7 5868.10   1
   9  -8  -1 101944. 5992.00   1
  -9   8   0 23376.1 2782.62   1
  -1  -8   0 20022.0 2602.01   2
   1  -9   0 22735.1 2940.59   2
   1   8   0 27956.7 3104.60   1
  -9   1   0 22226.2 2786.78   1
  -8  -1   0 25763.0 2944.60   1
   9  -1   0 22402.9 2782.34   1
  -1   9   0 24112.3 2827.29   1
   8   1   0 21700.3 2664.12   1
  -1  -8   0 35418.2 3397.91   1
  -8   9   0 26323.9 2818.81   1
   1  -9   0 23210.3 2830.35   1
  -9   8   0 22219.4 2992.03   2
  -9   1   0 25778.8 2955.61   2
  -8  -1   0 25399.1 3033.54   2
   8  -9   0 21604.4 2632.48   1
   9  -8   0 21472.5 2785.90   1
  -1  -8   1 162645. 7555.77   2
   1   8  -1 127717. 6714.84   1
  -9   1  -1 157098. 7364.34   1
   9  -1   1 141525. 6997.28   1
  -8  -1   1 131273. 6700.33   1
  -9   8  -1 140014. 7290.22   2
  -1   9   1 141687. 6997.70   1
   8   1  -1 140567. 7130.54   1
  -9   8  -1 138537. 6689.02   1
  -1  -8   1 140543. 6936.24   1
   1  -9  -1 149231. 7195.18   1
  -8   9   1 144726. 6788.09   1
  -9   1  -1 128329. 6827.24   2
  -8  -1   1 146503. 7119.97   2
   8  -9  -1 154379. 7117.24   1
   9  -8   1 138168. 6837.80   1
  -1  -8   2 271527. 9921.56   2
   1   8  -2 241063. 9221.83   1
  -9   1  -2 268043. 9492.67   1
   9  -1   2 227000. 8682.00   1
  -8  -1   2 266295. 9601.57   1
  -1   9   2 232664. 9016.09   1
   8   1  -2 234530. 9186.12   1
  -1  -8   2 282782. 9702.00   1
   1  -9  -2 334480. 10749.0   1
  -9   8  -2 264288. 9910.93   2
  -8   9   2 225314. 8686.76   1
  -9   8  -2 245230. 9064.87   1
  -9   1  -2 292667. 10153.0   2
  -8  -1   2 236315. 8991.20   2
   8  -9  -2 277359. 9693.11   1
   9  -8   2 258556. 9462.34   1
  -1  -8   3 168787. 7917.54   2
   1   8  -3 169142. 7726.67   1
  -8  -1   3 172189. 7762.62   1
  -1   9   3 193578. 8161.61   1
   8   1  -3 160204. 7579.12   1
  -1  -8   3 171060. 7633.64   1
  -9   8  -3 182407. 7763.26   1
   1  -9  -3 209944. 8592.61   1
  -9   8  -3 183865. 8179.11   2
  -8   9   3 171222. 7550.46   1
  -9   1  -3 176611. 7964.29   2
  -8  -1   3 168491. 7734.95   2
   9  -8   3 166325. 7571.13   1
   8  -9  -3 178428. 7980.60   1
  -8  -1   4 1061.36 686.028   2
  -1  -8   4 857.516 594.977   2
   9  -8   4-246.516 496.085   1
  -8   9   4 233.594 285.704   1
   8  -9  -4-584.906 595.718   1
  -1   9   4 73.9455 311.794   1
  -8  -1   4 615.418 580.363   1
  -9   8  -4 348.142 441.778   1
   1   8  -4 572.586 703.333   1
  -1  -8   4 1.03505 337.924   1
   8   1  -4 1547.39 798.040   1
   1  -9  -4 1066.40 558.275   1
  -9   1  -4 2036.80 960.370   2
   1   8  -5 53126.9 4362.39   1
  -1  -8   5 47101.2 4157.86   2
  -8  -1   5 43803.0 3969.53   1
  -9   8  -5 54009.7 4258.97   1
   8   1  -5 56484.0 4514.32   1
  -1  -8   5 43380.2 3874.03   1
  -9   1  -5 52914.4 4334.79   2
   9  -8   5 52074.6 4310.53   1
  -8  -1   5 46997.4 4163.57   2
   8  -9  -5 50783.6 4303.40   1
  -8   9   5 59783.5 4551.42   1
   1   8  -6 243919. 9433.09   1
  -8   9   6 238245. 9230.13   1
  -1  -8   6 229248. 9340.72   2
  -9   1  -6 218690. 8967.68   2
  -9   8  -6 198825. 8458.93   1
  -8  -1   6 225086. 8826.56   1
   8   1  -6 239479. 9226.17   1
  -1  -8   6 257850. 9374.24   1
   9  -8   6 233923. 9365.72   1
  -8  -1   6 211818. 8853.00   2
   8  -9  -6 218583. 9044.98   1
   1   8  -7 13653.6 2235.09   1
  -1  -8   7 19096.2 2795.14   2
  -8   9   7 17009.5 2484.73   1
  -9   8  -7 18191.6 2487.44   1
  -8  -1   7 14993.0 2302.73   1
   8   1  -7 13356.6 2196.67   1
  -1  -8   7 13208.1 2207.67   1
  -9   1  -7 14349.8 2395.09   2
   9  -8   7 15131.7 2507.16   1
  -8  -1   7 19094.4 2695.65   2
   8  -9  -7 15315.3 2428.01   1
  -9   8  -8 100046. 6110.11   1
  -1  -8   8 112768. 6744.92   2
  -8  -1   8 108436. 6293.68   1
   8   1  -8 113249. 6557.55   1
  -1  -8   8 117157. 6493.64   1
  -9   1  -8 122009. 6837.77   2
   9  -8   8 115102. 6824.84   1
  -8  -1   8 124982. 6847.61   2
   8  -9  -8 104877. 6357.02   1
   1   8  -8 126718. 6756.57   1
  -1  -8   9 132886. 7322.66   2
  -8   9   9 122027. 6833.52   1
  -8  -1   9 126084. 6848.22   1
   8   1  -9 108369. 6482.01   1
  -1  -8   9 132553. 6936.30   1
   9  -8   9 133187. 7277.97   1
  -8  -1   9 127203. 7094.88   2
  -9   8  -9 112647. 6490.63   1
   1   8  -9 110351. 6352.21   1
  -1  -8  10 153649. 7932.80   2
  -8   9  10 150765. 7731.72   1
  -8  -1  10 176842. 8058.38   1
   1   8 -10 171618. 7960.72   1
   8   1 -10 159390. 7815.59   1
  -1  -8  10 150786. 7443.39   1
  -9   1 -10 125459. 7317.28   2
   9  -8  10 146691. 7873.72   1
  -8  -1  10 158563. 8021.06   2
  -1  -8  11 88213.1 6076.50   2
  -8   9  11 60888.4 5101.91   1
  -8  -1  11 79108.6 5514.78   1
   8   1 -11 72627.0 5383.40   1
  -1  -8  11 87347.1 5762.24   1
  -8  -1  11 88726.6 6121.11   2
   1   8 -11 74053.8 5305.90   1
   8  -9 -11 76067.8 5726.70   1
  -8  -1  12 2002.21 981.176   2
  -1  -8  12 4026.31 1327.79   2
   8  -9 -12 1889.34 992.510   1
  -8  -1  12 3570.06 1169.95   1
   1   8 -12 3241.58 1206.96   1
  -1  -8  12 2551.52 954.360   1
  -8   9  12 2075.21 1009.93   1
   8   1 -12 3621.17 1299.20   1
  -8  -1  13 9663.37 2153.53   2
  -1  -8  13 11416.0 2217.66   2
  -8  -1  13 9308.37 1956.30   1
   1   8 -13 11908.0 2158.69   1
   8   1 -13 12436.7 2284.57   1
  -1  -8  13 13897.4 2345.72   1
  -8  -1  14 135683. 7962.05   2
   0  -9   1 352.604 362.896   2
   9  -9   1-320.599 324.032   1
   9  -9  -1 406.262 452.612   1
   0  -9  -1 887.305 519.163   1
   0  -9   1-40.2684 338.812   1
  -9   0  -1 492.265 491.853   1
  -9   0   1 636.109 604.173   1
   9   0   1-88.9948 206.355   1
   9   0  -1 619.355 480.143   1
  -9   9  -1 481.100 549.469   1
   0   9  -1-176.791 440.436   1
  -9   9   1 278.064 534.022   1
   0   9   1 635.023 514.578   1
  -9   0  -1 1175.95 650.607   2
  -9   0   1 149.940 237.877   2
   0  -9   2 1544.08 688.622   2
   9  -9   2 2569.57 946.785   1
  -9   9   2 1395.93 429.796   1
   9  -9  -2 2095.89 777.626   1
  -9   0   2 3112.26 1068.51   1
  -9   9  -2 2958.79 1116.58   1
   9   0  -2 700.103 292.092   1
   0  -9   2 2534.94 902.104   1
   0  -9  -2 2146.02 1113.82   1
   0   9  -2 2757.70 1034.24   1
  -9   0  -2 2915.48 1026.21   2
   0   9   2 2398.28 918.007   1
  -9   0   2 2557.09 947.806   2
   0  -9   3 2061.54 1002.06   2
   9  -9   3 773.940 664.753   1
   9  -9  -3 611.702 405.133   1
  -9   9   3 1688.50 903.135   1
  -9   0   3 1406.87 723.635   1
  -9   9  -3 912.404 667.920   1
   9   0  -3 729.263 718.791   1
   0  -9   3 1447.32 667.891   1
   0   9  -3 474.437 498.651   1
  -9   0  -3 1859.19 996.320   2
   0   9   3 436.633 418.249   1
  -9   9   3 900.002 508.010   2
  -9   0   3 1220.98 837.385   2
  -9   9   4 82704.3 5445.83   1
   0  -9   4 101702. 6389.16   2
   0   9  -4 80941.9 5433.56   1
  -9   0   4 76072.8 5212.85   1
  -9   9  -4 79170.8 5309.24   1
   9   0  -4 84072.1 5881.74   1
   0  -9   4 80692.7 5415.62   1
  -9   9   4 92108.5 6002.60   2
  -9   0  -4 87171.2 5610.82   2
   9  -9   4 76064.7 5443.27   1
  -9   0   4 89020.6 5808.14   2
   9  -9  -4 91143.0 5730.41   1
  -9   0   5-253.695 630.453   2
   9  -9   5 20.9089 256.458   1
   0   9  -5 901.379 681.569   1
   0  -9   5 678.420 636.043   2
   9  -9  -5 900.023 553.924   1
  -9   9  -5-41.3377 500.075   1
  -9   0   5 316.083 711.305   1
  -9   9   5-657.248 803.604   1
   0  -9   5 680.796 674.217   1
   9   0  -5 694.257 849.459   1
  -9   0  -5 626.155 515.099   2
  -9   0   6 2170.77 897.760   2
   9  -9   6 2419.55 975.725   1
  -9   9  -6 1846.85 703.893   1
   0  -9   6 2447.26 916.540   2
   9  -9  -6 1336.92 714.553   1
  -9   0   6 1927.03 807.133   1
  -9   9   6 1879.16 757.642   1
   0  -9   6 1001.45 715.413   1
   0   9  -6 928.476 630.864   1
   9   0  -6 2711.86 1155.69   1
  -9   0  -6 1837.65 979.308   2
  -9   0   7 1687.44 812.472   2
   9  -9   7 971.668 604.283   1
   0  -9   7 748.909 573.815   2
   9   0  -7 471.759 515.701   1
   0   9  -7 561.742 725.110   1
   9  -9  -7 1421.17 530.493   1
  -9   0   7 648.525 606.209   1
  -9   9  -7 999.878 723.938   1
   0  -9   7 825.411 518.811   1
  -9   9   7 2652.40 1131.79   1
  -9   0  -7 1561.04 818.119   2
   0   9  -8 287250. 10386.6   1
   0  -9   8 251724. 10371.9   2
  -9   0   8 241261. 9612.83   1
  -9   9   8 298493. 10784.1   1
   9   0  -8 272964. 10670.4   1
   0  -9   8 222928. 9046.80   1
  -9   0  -8 241424. 9958.40   2
   9  -9   8 273222. 10427.3   1
  -9   0   8 254769. 10135.5   2
  -9   9  -8 309407. 10783.3   1
   9  -9  -8 276322. 10499.7   1
  -9   9   9 477.129 307.242   1
  -9   0   9 474.241 550.484   2
   0  -9   9 1441.21 708.312   2
  -9   9  -9 1035.51 679.865   1
   9  -9  -9 1462.58 877.732   1
  -9   0   9 427.651 396.337   1
   0   9  -9 937.641 662.788   1
   0  -9   9 1201.34 688.054   1
   9   0  -9 811.959 668.956   1
   9  -9   9 1030.49 597.887   1
  -9   0  10 1723.98 750.534   2
   0  -9  10 4003.64 1462.21   2
  -9   9  10 2356.47 985.578   1
   9  -9 -10 1317.43 837.514   1
  -9   0  10 2613.29 1056.16   1
   0   9 -10 1346.20 794.149   1
   0  -9  10 2481.44 1065.43   1
   9   0 -10 2480.17 959.173   1
   9  -9  10 2234.59 1010.79   1
  -9   9 -10 1921.69 954.821   1
  -9   0  11 464.488 604.162   2
   0  -9  11-185.701 385.549   2
  -9   9  11 541.526 653.108   1
   9  -9 -11-249.537 214.297   1
  -9   0  11-490.871 655.202   1
   0   9 -11-33.6785 392.487   1
   0  -9  11 155.022 192.637   1
   9   0 -11-69.1501 447.367   1
   9  -9 -12 323152. 12157.9   1
   0  -9  12 388077. 13045.0   2
  -9   0  12 312250. 11077.6   1
   9   0 -12 322844. 11681.0   1
  -9   9  12 270067. 10815.9   1
   0  -9  12 344217. 11585.8   1
  -9   0  12 329572. 11986.3   2
   0   9 -12 284285. 10622.1   1
  -9   0  13 285.450 623.763   2
  -9   9  13 50.0348 325.313   1
   9  -9 -13 742.296 797.399   1
   5 -10  14 5431.77 1485.83   1
  -5  10 -14 5799.26 1629.50   1
 -10   5  13 3.69404 504.038   1
  10  -5 -13-152.732 441.462   1
   5 -10  13 485.917 382.402   1
  -5  10 -13 190.089 308.162   1
 -10   5  12 867438. 18856.1   1
  -5  10 -12 844110. 18675.2   1
   5 -10  12 842310. 18722.4   1
  -5  10 -11-478.940 494.211   1
 -10   5  11-266.266 538.599   1
  10  -5 -11 780.263 253.437   1
   5 -10  11-697.229 618.582   1
 -10   5  10 23012.1 2879.68   1
  10  -5 -10 23920.0 2979.00   1
  -5  10 -10 20061.7 2823.92   1
   5 -10  10 22154.3 2960.20   1
 -10   5  10 20216.0 3002.24   2
 -10   5   9 235.961 198.593   1
  -5  10  -9-493.367 584.837   1
  10  -5  -9-34.4166 255.741   1
   5 -10   9 179.271 531.131   1
 -10   5   9 177.787 258.479   2
  10  -5  -8 68256.5 4936.20   1
 -10   5   8 75335.6 5221.15   1
  -5  10  -8 83576.6 5606.14   1
   5 -10   8 84818.9 5717.24   1
 -10   5   8 81442.5 5662.84   2
 -10   5   7-101.932 400.653   1
  10  -5  -7-218.874 362.630   1
  -5  10  -7 1047.41 839.975   1
   5 -10   7 518.468 579.644   1
 -10   5   7 44.4365 454.928   2
  10  -5  -6 53439.3 4314.22   1
 -10   5   6 53069.2 4291.92   1
  -5  10  -6 48863.0 4188.09   1
   5 -10   6 52150.5 4449.40   1
 -10   5   6 59068.5 4641.22   2
 -10   5   5-811.914 611.437   1
  10  -5  -5-338.553 221.592   1
  -5  10  -5-180.029 385.557   1
   5 -10   5 99.9308 318.204   1
  10  -5  -4 290951. 9931.94   1
 -10   5   4 319820. 10367.2   1
   5 -10   4 334085. 11127.6   1
 -10   5   4 311997. 10635.1   2
  -5  -5  -3-112.136 368.550   2
 -10   5   3 456.077 512.709   1
  10  -5  -3 605.009 382.418   1
 -10   5   3 1.05449 477.865   2
  -5  10  -3 4.15606 345.885   1
   5 -10   3 318.368 539.225   1
  10  -5  -2 24051.5 2814.08   1
 -10   5   2 25932.6 3014.04   1
   5 -10   2 29655.9 3319.68   1
  -5  10  -2 28639.1 3118.94   1
 -10   5   2 22804.9 2879.07   2
  -5  -5  -2 19046.7 2547.42   2
  -5  -5  -1 389.936 385.619   2
  -5  10  -1 548.503 496.041   1
   5   5   1-287.300 455.105   1
 -10   5   1 21.6693 295.000   1
  10  -5  -1-227.101 530.218   1
 -10   5   1 335.093 508.293   2
   5 -10   1 79.1067 209.037   1
   5 -10  -1 567.159 574.496   1
  -5  -5   1 593.855 544.983   2
   5   5  -1 472.800 374.988   1
 -10   5  -1 646.155 767.119   1
  10  -5   1-128.134 384.381   1
  -5  10   1 129.217 312.366   1
 -10   5  -1-222.603 245.758   2
  -5  -5   1-222.830 361.637   1
 -10   5  -2 42194.0 3790.14   1
  10  -5   2 43086.8 3802.53   1
  -5  -5   2 48731.2 4097.42   1
   5   5  -2 37538.2 3672.89   1
 -10   5  -2 38972.8 3773.06   2
  -5  -5   2 46193.5 4087.83   2
  -5  10   2 37953.9 3613.59   1
   5 -10  -3-186.274 434.213   1
  -5  -5   3-379.912 411.024   2
   5   5  -3 640.008 598.232   1
  10  -5   3-96.1440 232.855   1
  -5  -5   3-82.4833 377.455   1
  -5  10   3 873.759 617.512   1
 -10   5  -3 339.814 412.322   1
 -10   5  -3 439.289 699.050   2
 -10   5  -4 265094. 9979.92   1
  -5  -5   4 297822. 10422.2   1
   5   5  -4 263713. 9808.15   1
 -10   5  -4 303669. 10495.6   2
   5 -10  -4 279463. 10311.2   1
  -5  -5   4 269852. 10015.7   2
   5 -10  -5-426.705 495.705   1
  -5  -5   5-200.237 527.703   2
   5   5  -5-229.646 407.309   1
  10  -5   5-223.539 243.882   1
  -5  -5   5-478.794 537.115   1
 -10   5  -5 112.565 192.607   1
  -5  10   5-200.193 233.838   1
 -10   5  -5 206.910 577.055   2
  -5  10   6 17846.8 2560.42   1
  -5  -5   6 14784.3 2352.72   1
 -10   5  -6 15385.8 2397.74   2
   5   5  -6 18579.4 2585.96   1
   5 -10  -6 24514.8 3082.09   1
  -5  -5   6 14693.1 2329.87   2
  -5  10   7-187.585 426.834   1
   5 -10  -7 258.537 494.816   1
  -5  -5   7 336.789 616.111   2
   5   5  -7 182.323 259.323   1
  -5  -5   7 782.254 601.386   1
 -10   5  -7 28.5111 504.330   2
  -5  -5   8 100331. 6123.94   1
   5   5  -8 108803. 6313.57   1
 -10   5  -8 95460.1 6258.58   2
  -5  -5   8 102049. 6321.00   2
  -5  -5   9 188.882 352.673   2
 -10   5  -9-154.073 667.374   2
   5   5  -9-302.107 605.874   1
  -5  -5   9 105.213 611.731   1
  -5  -5  10 32827.2 3587.66   1
   5   5 -10 30840.9 3442.76   1
 -10   5 -10 21137.3 2937.73   2
  -5  -5  10 31793.2 3466.50   2
  -5  -5  11 692.068 476.270   2
   5   5 -11 480.607 299.467   1
  -5  -5  11 16.5783 235.049   1
  -5  -5  12 753089. 17397.6   1
  -5  -5  12 759708. 17639.1   2
   5   5 -13-350.449 338.958   1
  -5  -5  13-775.135 799.823   2
  -5  -5  13 474.919 601.678   1
  -6  10 -14 74550.5 5851.36   1
   6 -10  14 67775.9 5472.31   1
  -4  10 -13 141937. 7761.42   1
  10  -6 -13 150390. 7759.21   1
 -10   6  13 130253. 7233.66   1
 -10   4  13 124010. 7112.33   1
  10  -4 -13 136361. 7723.69   1
  -6  10 -13 124745. 7433.74   1
   4 -10  13 115464. 6986.81   1
   6 -10  13 100866. 6651.28   1
  10  -6 -12 59151.4 4780.13   1
 -10   6  12 64289.1 4999.85   1
  -4  10 -12 62408.9 4953.64   1
 -10   4  12 69851.0 5248.91   1
  10  -4 -12 71375.7 5390.89   1
  -6  10 -12 49873.0 4666.83   1
   4 -10  12 68442.4 5335.09   1
   6 -10  12 63681.8 5116.46   1
  10  -6 -11 21698.8 2871.52   1
 -10   6  11 25953.2 3180.92   1
 -10   4  11 27432.4 3254.95   1
  10  -4 -11 21362.5 2875.65   1
  -4  10 -11 25859.0 3250.44   1
  -6  10 -11 22787.8 2966.87   1
   4 -10  11 23702.0 3062.06   1
   6 -10  11 22068.7 2989.87   1
 -10   4  11 18631.5 2946.71   2
  10  -6 -10 362267. 11544.7   1
 -10   6  10 302533. 10707.6   1
 -10   4  10 372374. 11867.6   1
  10  -4 -10 395858. 12342.1   1
  -4  10 -10 291020. 10787.6   1
 -10   4  10 299498. 11653.2   2
  -6  10 -10 317219. 11109.0   1
   4 -10  10 343085. 11549.2   1
   6 -10  10 336851. 11681.3   1
  10  -6  -9 16284.2 2414.11   1
 -10   6   9 16009.9 2392.57   1
 -10   4   9 16121.6 2435.99   1
  10  -4  -9 15586.8 2416.40   1
 -10   6   9 15964.1 2527.92   2
  -4  10  -9 16288.1 2533.20   1
  -6  10  -9 17094.1 2575.30   1
   4 -10   9 15086.5 2425.07   1
   6 -10   9 13443.5 2384.67   1
 -10   4   9 16884.8 2722.57   2
  -4  10  -8 2115.47 956.183   1
 -10   6   8 757.715 573.309   1
 -10   4   8 2197.90 947.656   1
  10  -6  -8 2012.27 810.112   1
  10  -4  -8 1816.86 798.664   1
  -6  10  -8 2605.05 944.550   1
   4 -10   8 2103.22 1085.15   1
 -10   6   8 1240.21 664.839   2
   6 -10   8 2408.79 1121.64   1
 -10   4   8 1300.76 711.685   2
  10  -6  -7 87763.8 5481.66   1
 -10   6   7 82317.5 5414.17   1
 -10   4   7 91269.6 5711.87   1
  10  -4  -7 79991.7 5418.21   1
  -4  10  -7 104540. 6073.90   1
  -6  10  -7 99319.6 5946.29   1
   4 -10   7 98135.1 5912.48   1
   6 -10   7 99391.8 6140.48   1
 -10   6   7 83580.8 5756.91   2
 -10   4   7 84940.5 5836.06   2
  10  -6  -6 70983.9 4941.08   1
 -10   6   6 83815.5 5440.27   1
 -10   4   6 76721.0 5279.63   1
  10  -4  -6 75011.9 5177.61   1
  -4  10  -6 77108.5 5190.58   1
   4 -10   6 83546.6 5506.44   1
  -6  10  -6 68807.8 4915.06   1
   6 -10   6 81495.1 5546.68   1
 -10   6   6 80428.5 5519.28   2
 -10   4   6 79891.5 5596.74   2
  10  -6  -5 56086.5 4426.01   1
 -10   6   5 52196.4 4300.20   1
 -10   4   5 49333.0 4187.20   1
  10  -4  -5 48216.8 4141.87   1
  -4  10  -5 60855.5 4542.08   1
   4 -10   5 49907.1 4220.53   1
  -6  10  -5 50206.8 4272.39   1
 -10   6   5 50747.3 4406.71   2
 -10   4   5 56029.5 4599.57   2
   6 -10   5 53080.4 4497.19   1
  -6  10  -4 11053.8 1927.30   1
  10  -4  -4 10806.8 2080.84   1
 -10   6   4 10446.0 1918.72   1
 -10   4   4 12993.6 2101.80   1
  10  -6  -4 10652.8 1897.97   1
  -4  10  -4 11938.3 1890.96   1
   6 -10   4 14483.7 2309.49   1
  -6  -4  -4 14488.8 2313.75   2
 -10   6   4 9723.26 1909.47   2
   4 -10   4 9469.77 1811.11   1
 -10   4   4 10220.6 1931.15   2
  10  -6  -3 91041.4 5515.75   1
 -10   6   3 83316.0 5368.65   1
  10  -4  -3 91638.9 5473.67   1
 -10   4   3 87501.7 5548.96   1
  -4  10  -3 84244.0 5409.62   1
   4 -10   3 81992.3 5454.31   1
   6 -10   3 86511.3 5594.30   1
 -10   4   3 82166.2 5514.29   2
  -6  10  -3 82538.1 5121.05   1
 -10   6   3 75806.9 5399.37   2
  10  -6  -2 389406. 11568.5   1
 -10   6   2 411129. 11953.7   1
  10  -4  -2 415647. 11818.0   1
 -10   4   2 403450. 11694.0   1
  -4  10  -2 415552. 11879.7   1
   4 -10   2 507232. 13665.1   1
   6 -10   2 473410. 13153.2   1
 -10   6   2 390590. 11861.4   2
 -10   4   2 429951. 12314.9   2
  -6  -4  -2 365891. 11492.1   2
  -6  10  -2 383492. 11241.2   1
  -4  -6  -2 434777. 12696.8   2
  10  -6  -1 172285. 7583.58   1
  10  -4  -1 176082. 7629.27   1
 -10   4   1 179800. 7759.26   1
  -4  -6  -1 227641. 8760.96   1
   6   4   1 157930. 7359.65   1
 -10   6   1 170484. 7859.28   2
  -4  10  -1 194213. 8256.21   1
   4 -10   1 138026. 7114.97   1
   4   6   1 183518. 7911.68   1
   6 -10   1 252327. 9371.01   1
 -10   4   1 174085. 7786.61   2
  -6  -4  -1 180124. 7980.16   2
  -4  -6  -1 185933. 8145.40   2
  -6  10  -1 173967. 7580.42   1
 -10   6   0 77106.5 5166.79   1
  -6  10   0 77311.6 5094.88   1
  10  -6   0 79525.2 5147.64   1
  10  -4   0 74124.4 4879.96   1
 -10   4   0 76516.4 5186.03   1
  -6  -4   0 77877.6 5162.30   1
  -4  -6   0 80186.3 5281.63   1
 -10   6   0 75077.9 5122.38   2
   6   4   0 77603.1 5209.67   1
  -4  10   0 88211.0 5507.54   1
   4 -10   0 97738.1 5923.70   1
   4   6   0 85659.8 5437.30   1
 -10   4   0 75990.5 5100.56   2
   6 -10   0 60866.3 4679.12   1
  -6  -4   0 86658.0 5579.74   2
  -4  -6   0 86229.7 5630.55   2
  10  -6   1 88440.3 5513.03   1
  -6  10   1 100610. 5825.31   1
  10  -4   1 89624.7 5462.21   1
 -10   4  -1 93762.1 5607.14   1
  -6  -4   1 110010. 6212.03   1
  -4  -6   1 87014.3 5493.11   1
  -4  10   1 77639.7 5255.17   1
   6   4  -1 97383.0 5807.87   1
   4 -10  -1 81529.0 5501.95   1
 -10   6  -1 94978.8 5691.49   1
 -10   6  -1 71650.9 5232.97   2
 -10   4  -1 91635.7 5655.03   2
   4   6  -1 90797.9 5691.34   1
   6 -10  -1 102945. 6190.16   1
  -6  -4   1 105281. 6152.75   2
  -4  -6   1 101096. 6010.71   2
  10  -6   2 384574. 11952.5   1
  10  -4   2 367569. 11183.4   1
  -6  10   2 338653. 11048.1   1
 -10   4  -2 405366. 11958.3   1
  -6  -4   2 436203. 12457.8   1
  -4  -6   2 397433. 11874.7   1
   6 -10  -2 479420. 13353.4   1
 -10   6  -2 328655. 10766.0   1
   6   4  -2 403383. 11987.2   1
   4 -10  -2 490935. 13747.7   1
 -10   6  -2 391941. 11942.2   2
  -4  10   2 326354. 10698.6   1
 -10   4  -2 364412. 11414.1   2
   4   6  -2 419686. 12261.1   1
  -6  -4   2 365067. 11552.7   2
  -4  -6   2 412557. 12062.1   2
  10  -4   3 68353.4 4775.08   1
  -6  10   3 74451.1 5126.05   1
 -10   6  -3 70348.9 4980.53   1
  -6  -4   3 68615.7 4992.82   1
  -4  -6   3 64024.8 4818.74   1
   6   4  -3 68734.8 4857.56   1
 -10   6  -3 61569.0 4731.47   2
 -10   4  -3 60677.9 4729.28   2
   4   6  -3 64021.1 4793.97   1
  -4  10   3 67095.2 4797.10   1
   6 -10  -3 72691.0 5233.90   1
  -6  -4   3 53915.8 4461.30   2
  -4  -6   3 70110.7 5070.00   2
  10  -6   3 70233.0 5058.01   1
 -10   4  -4 4248.94 1300.43   1
  -6  -4   4 5828.38 1471.37   2
   6   4  -4 6579.54 1538.01   1
   6 -10  -4 5544.12 1566.85   1
  -4  -6   4 6216.95 1454.35   2
  -4  10   4 4793.54 1278.93   1
  10  -6   4 5517.29 1458.21   1
  -6  10   4 5415.50 1352.98   1
  10  -4   4 5814.29 1408.48   1
   4   6  -4 7383.92 1642.70   1
 -10   6  -4 5365.61 1433.15   1
  -6  -4   4 7154.49 1721.55   1
  -4  -6   4 5657.72 1382.37   1
 -10   6  -4 4761.80 1338.99   2
 -10   4  -4 5046.52 1348.03   2
   4 -10  -4 4384.02 1264.17   1
   4 -10  -5 33654.2 3579.95   1
  -6  10   5 23092.1 2906.58   1
  -6  -4   5 24476.6 3106.02   1
  -4  -6   5 25021.4 2959.38   1
   6   4  -5 25606.9 3083.31   1
 -10   6  -5 25839.7 3099.79   2
 -10   4  -5 25928.9 3059.01   2
   4   6  -5 28657.9 3160.89   1
   6 -10  -5 40149.0 3812.52   1
  -4  10   5 26327.3 3072.31   1
 -10   6  -5 27330.9 3145.13   1
  -6  -4   5 27979.7 3290.95   2
  10  -6   5 29302.0 3285.08   1
  -4  -6   5 28954.2 3317.92   2
  -4  -6   6 132428. 7125.04   2
   4   6  -6 126233. 6839.35   1
  -6  10   6 134327. 7010.22   1
  -6  -4   6 114648. 6614.81   1
  -4  -6   6 108569. 6292.21   1
   6   4  -6 133051. 7077.33   1
 -10   6  -6 121899. 6602.69   1
 -10   6  -6 128551. 7009.08   2
 -10   4  -6 132694. 7029.83   2
   6 -10  -6 105415. 6425.48   1
  -4  10   6 107861. 6212.23   1
  10  -6   6 122882. 6730.42   1
  -6  -4   6 121336. 6850.51   2
   6   4  -7 9489.11 1827.37   1
  -6  -4   7 7936.10 1773.51   2
   6 -10  -7 8671.23 1796.83   1
  -4  -6   7 8150.84 1759.57   2
   4   6  -7 9461.08 1892.49   1
  -6  10   7 8096.61 1744.28   1
  -6  -4   7 11370.3 2044.65   1
  -4  -6   7 7990.07 1751.47   1
 -10   6  -7 7614.02 1728.27   2
 -10   4  -7 9682.85 1969.66   2
  -4  10   7 10029.6 1915.61   1
  -4  -6   8 22758.0 3003.17   2
  -6  10   8 21480.2 2854.46   1
  -6  -4   8 23640.3 3046.16   1
  -4  -6   8 24796.3 2988.44   1
 -10   4  -8 17251.8 2621.29   2
   6   4  -8 28378.0 3174.67   1
 -10   6  -8 25556.3 3154.52   2
   4   6  -8 25972.2 3100.58   1
   6 -10  -8 21362.9 2990.14   1
  -6  -4   8 23019.3 2953.49   2
  -4  -6   9 150830. 7697.91   2
  -6  -4   9 148685. 7568.29   1
  -6  10   9 135697. 7260.73   1
  -4  -6   9 133921. 7248.98   1
   6   4  -9 145437. 7447.09   1
 -10   6  -9 122260. 7076.61   2
 -10   4  -9 123759. 7164.74   2
   4   6  -9 151864. 7449.30   1
   6 -10  -9 138484. 7700.51   1
  -6  -4   9 146709. 7541.56   2
  -6  -4  10 189705. 8718.59   1
  -4  -6  10 174965. 8282.32   1
   6   4 -10 173341. 8248.08   1
 -10   4 -10 152395. 8190.44   2
   4   6 -10 177850. 8200.22   1
  -6  -4  10 176443. 8456.02   2
  -4  -6  11 172395. 8276.05   2
  -6  -4  11 186589. 8454.81   1
  -4  -6  11 166248. 8066.03   1
   6   4 -11 167553. 8047.38   1
 -10   4 -11 169744. 8711.51   2
   4   6 -11 176566. 8219.59   1
  -6  -4  11 198714. 8902.64   2
  -4  -6  12 26701.1 3260.39   2
  -6  -4  12 23466.6 3032.54   1
  -4  -6  12 19044.5 2806.95   1
   6   4 -12 22917.2 2983.24   1
   4   6 -12 19943.6 2786.72   1
  -6  -4  12 17842.1 2725.09   2
  -6  -4  13 10053.3 2020.86   2
  -7  10 -13 516.046 432.572   1
 -10   7  13-464.004 650.131   1
  10  -7 -13 498.148 503.234   1
   7 -10  13 257.267 266.173   1
   3 -10  12 12181.5 2097.91   1
  10  -7 -12 15488.0 2391.61   1
 -10   7  12 14605.8 2355.48   1
 -10   3  12 15345.8 2316.15   1
  10  -3 -12 11217.1 2311.55   1
  -7  10 -12 10499.2 2138.09   1
   7 -10  12 11697.7 2167.77   1
  -3  10 -12 10769.0 2101.61   1
 -10   3  12 10400.0 2265.57   2
  10  -7 -11 28955.7 3370.43   1
 -10   7  11 23628.8 3056.81   1
  -3  10 -11 25458.3 3187.84   1
 -10   3  11 29047.1 3380.09   1
  10  -3 -11 25548.3 3454.82   1
  -7  10 -11 26440.4 3331.32   1
   3 -10  11 32581.9 3535.05   1
   7 -10  11 26752.4 3319.26   1
 -10   3  11 28659.8 3531.40   2
  10  -7 -10 108569. 6461.49   1
 -10   7  10 101632. 6271.71   1
  -3  10 -10 96888.6 6029.43   1
 -10   3  10 102732. 6193.58   1
  10  -3 -10 103728. 6406.91   1
  -7  10 -10 94914.1 6237.26   1
   3 -10  10 91996.5 6055.18   1
   7 -10  10 106802. 6562.23   1
 -10   3  10 90908.9 6440.98   2
  10  -7  -9 138934. 7132.44   1
 -10   7   9 111342. 6512.10   1
 -10   3   9 111196. 6498.82   1
  -3  10  -9 112154. 6597.97   1
  10  -3  -9 105586. 6497.58   1
   3 -10   9 109449. 6526.12   1
  -7  10  -9 102070. 6365.71   1
   7 -10   9 115983. 6973.32   1
 -10   3   9 113449. 6969.57   2
  10  -7  -8 69821.3 5038.68   1
 -10   7   8 57286.6 4617.42   1
 -10   3   8 67345.7 5032.26   1
  10  -3  -8 62352.9 4981.33   1
  -3  10  -8 60050.4 4843.29   1
   3 -10   8 66150.1 5033.14   1
  -7  10  -8 66669.4 5027.16   1
   7 -10   8 68696.6 5269.33   1
 -10   3   8 59637.2 5001.83   2
  10  -7  -7 59471.5 4594.50   1
 -10   7   7 74507.2 5139.57   1
 -10   3   7 59716.1 4788.56   1
  10  -3  -7 73175.0 5160.58   1
  -3  10  -7 72061.4 5192.67   1
   3 -10   7 67602.3 5020.46   1
   7 -10   7 79871.5 5552.27   1
  -7  10  -7 74423.8 5253.06   1
 -10   7   7 76705.5 5607.18   2
 -10   3   7 74819.3 5493.04   2
  10  -7  -6 321482. 10598.4   1
 -10   7   6 328174. 10910.0   1
 -10   3   6 347164. 11302.7   1
  10  -3  -6 344548. 11312.2   1
  -3  10  -6 371311. 11697.0   1
   3 -10   6 403889. 12020.7   1
   7 -10   6 374050. 12081.6   1
 -10   7   6 333633. 11504.8   2
  -7  10  -6 336112. 11040.4   1
 -10   3   6 384696. 12264.9   2
   7 -10   5 93425.2 5875.23   1
  10  -7  -5 80889.9 5298.42   1
 -10   7   5 79069.6 5302.56   1
 -10   3   5 80982.9 5495.18   1
  10  -3  -5 74519.4 5295.22   1
 -10   7   5 74175.2 5358.53   2
  -3  10  -5 82983.7 5519.29   1
   3 -10   5 77570.2 5396.97   1
 -10   3   5 85332.2 5684.16   2
  -7  -3  -5 75542.4 5534.97   2
  -7  10  -5 85144.6 5342.35   1
   7 -10   4 597.646 514.190   1
 -10   3   4 622.436 451.385   1
  -3  10  -4 966.685 703.071   1
  10  -7  -4 733.071 460.095   1
  -7  10  -4 50.7873 241.121   1
  10  -3  -4 499.451 611.034   1
   3 -10   4 737.489 689.986   1
 -10   7   4-184.394 652.189   2
 -10   3   4-18.2434 342.642   2
  -7  -3  -4 995.358 583.451   2
 -10   7   4 82.9882 440.018   1
  -7  10  -3 117779. 6360.46   1
  10  -7  -3 130518. 6661.49   1
 -10   7   3 142951. 6944.41   1
 -10   3   3 132097. 6901.12   1
  10  -3  -3 136946. 6960.65   1
  -3  10  -3 146149. 7106.76   1
   3 -10   3 125630. 6833.71   1
 -10   7   3 132726. 7006.42   2
   7 -10   3 154414. 7431.82   1
 -10   3   3 143182. 7308.97   2
  -7  -3  -3 148213. 7478.13   2
  10  -7  -2 194405. 8149.79   1
  -7  10  -2 180528. 7914.42   1
 -10   3   2 198631. 8369.35   1
  10  -3  -2 205360. 8601.54   1
  -3  10  -2 204871. 8581.74   1
   3 -10   2 171757. 7949.24   1
 -10   7   2 186903. 8338.78   2
 -10   3   2 183251. 8240.27   2
  -7  -3  -2 193544. 8504.17   2
 -10   7   2 196179. 8213.92   1
  10  -7  -1 123639. 6602.58   1
  -7  10  -1 128935. 6650.36   1
 -10   3   1 144427. 7076.90   1
  10  -3  -1 126120. 6583.94   1
  -3  -7  -1 148005. 7200.88   1
   3   7   1 114959. 6360.29   1
  -3  10  -1 122625. 6700.57   1
 -10   7   1 135328. 6738.48   1
   3 -10   1 154754. 7506.09   1
 -10   7   1 133141. 6986.33   2
 -10   3   1 152446. 7383.73   2
   7 -10   1 112165. 6495.45   1
  -7  -3  -1 111909. 6445.96   2
  -3  -7  -1 98751.7 6146.53   2
  10  -7   0 43684.2 3999.98   1
  10  -3   0 40308.6 3797.13   1
 -10   3   0 44975.1 4037.67   1
  -7  10   0 36777.4 3576.57   1
  -7  -3   0 45588.2 4037.67   1
  -3  -7   0 46838.2 4057.93   1
 -10   7   0 44654.1 3923.48   1
   7   3   0 39413.4 3713.78   1
  -3  10   0 42309.9 3914.96   1
   3 -10   0 46934.1 4097.06   1
 -10   7   0 44999.4 4108.23   2
 -10   3   0 35869.2 3586.68   2
   7 -10   0 42063.6 3955.06   1
  -7  -3   0 39953.1 3793.45   2
   3   7   0 40376.8 3805.94   1
  -3  -7   0 39910.7 3830.27   2
  -7  -3   1 31573.2 3412.36   2
  10  -3   1 34180.4 3396.06   1
 -10   3  -1 32569.8 3378.42   1
  -7  10   1 31532.5 3286.68   1
 -10   7  -1 31016.6 3305.10   1
  -7  -3   1 34716.6 3526.43   1
  -3  -7   1 28392.2 3210.25   1
   7   3  -1 37943.0 3701.24   1
  -3  10   1 22900.6 2887.62   1
   3 -10  -1 41025.0 3928.07   1
 -10   7  -1 33852.3 3453.13   2
 -10   3  -1 27029.7 3050.78   2
   7 -10  -1 29706.9 3345.76   1
   3   7  -1 31944.0 3366.00   1
  -3  -7   1 28320.0 3212.00   2
  10  -7   1 35478.8 3625.48   1
 -10   7  -2 283717. 10071.0   1
  10  -3   2 241527. 9016.21   1
 -10   3  -2 267064. 9724.29   1
  -7  10   2 224539. 8864.42   1
  -7  -3   2 244223. 9312.77   1
  -3  -7   2 252805. 9554.22   1
   7   3  -2 266980. 9849.60   1
  -3  10   2 294802. 10201.0   1
 -10   7  -2 245608. 9555.31   2
 -10   3  -2 265809. 9541.72   2
   7 -10  -2 203802. 8658.66   1
   3   7  -2 246106. 9384.18   1
  -7  -3   2 243703. 9416.91   2
  10  -7   2 259422. 9770.29   1
  -3  -7   2 246090. 9501.41   2
  -7  -3   3 2226.17 995.701   2
  -3  -7   3 3455.96 1138.27   2
   7 -10  -3 2682.83 1025.92   1
  10  -7   3 2339.15 1008.24   1
 -10   3  -3 1657.04 798.580   1
 -10   7  -3 1715.47 750.077   1
  10  -3   3 1453.85 815.988   1
   3   7  -3 1639.15 933.266   1
  -7  10   3 1886.22 859.821   1
  -7  -3   3 1249.94 768.612   1
  -3  -7   3 1289.22 565.124   1
  -3  10   3 1753.64 827.244   1
 -10   7  -3 724.020 286.877   2
 -10   3  -3 1610.34 935.435   2
   3 -10  -3 1469.69 850.282   1
   7   3  -3 592.668 515.258   1
  -3  -7   4 51427.5 4360.14   2
  -7  -3   4 40383.5 3837.05   1
  -7  10   4 38795.5 3650.88   1
  -3  -7   4 34906.7 3600.99   1
   7   3  -4 35009.4 3510.83   1
  -3  10   4 36464.4 3628.79   1
   3 -10  -4 33026.6 3559.87   1
 -10   7  -4 38998.0 3844.38   2
 -10   3  -4 38830.1 3800.80   2
 -10   7  -4 35219.2 3522.40   1
   7 -10  -4 39585.4 3776.14   1
   3   7  -4 34301.4 3523.24   1
  -7  -3   4 36992.7 3727.90   2
  10  -7   4 36250.6 3664.37   1
  -3  -7   5 61858.7 4837.31   2
  -7  -3   5 74380.4 5168.09   1
  -3  -7   5 60643.6 4625.54   1
  -7  10   5 102002. 6001.05   1
   7   3  -5 80241.7 5448.46   1
 -10   7  -5 93120.0 5772.21   1
  -3  10   5 74507.9 5223.51   1
   3 -10  -5 94503.4 6080.16   1
 -10   7  -5 77200.9 5451.76   2
 -10   3  -5 78793.0 5395.18   2
   3   7  -5 77260.3 5319.77   1
   7 -10  -5 74760.0 5334.74   1
  10  -7   5 78974.0 5361.77   1
  -7  -3   5 85934.2 5745.74   2
  -3  -7   6 169574. 8105.35   2
  -7  -3   6 185685. 8339.65   1
  -3  -7   6 213500. 8847.22   1
  -7  10   6 150914. 7336.65   1
 -10   7  -6 208579. 8688.80   1
   7   3  -6 209130. 8862.46   1
  -3  10   6 173110. 8160.86   1
 -10   7  -6 200159. 8882.02   2
 -10   3  -6 186340. 8404.65   2
   3   7  -6 206764. 8833.98   1
   7 -10  -6 114327. 6597.54   1
  10  -7   6 198106. 8600.00   1
  -7  -3   6 201385. 8733.27   2
  -3  -7   7 279727. 10456.1   2
  -7  -3   7 249397. 9698.13   1
 -10   7  -7 238607. 9412.52   1
  -3  -7   7 238400. 9486.04   1
  -7  10   7 276527. 10019.8   1
   7   3  -7 262908. 9995.57   1
 -10   7  -7 276758. 10401.0   2
   3   7  -7 250676. 9930.88   1
  10  -7   7 260892. 10055.2   1
   7 -10  -7 224421. 9302.10   1
  -7  -3   7 257601. 9992.72   2
  -3  -7   8 18889.9 2759.21   2
  -7  -3   8 18816.6 2695.89   1
  -3  -7   8 18447.4 2625.09   1
   7   3  -8 18209.9 2647.78   1
  -7  10   8 13979.0 2276.45   1
   3   7  -8 17232.1 2575.58   1
   7 -10  -8 21286.5 2853.75   1
 -10   3  -8 19009.2 2796.49   2
  -7  -3   8 20147.5 2713.31   2
  -3  -7   9 76245.5 5402.82   2
  -7  -3   9 68753.4 5135.01   1
  -3  -7   9 66927.1 5066.26   1
   7   3  -9 77751.0 5351.79   1
  -7  10   9 71987.7 5181.23   1
 -10   3  -9 62867.9 4999.79   2
   3   7  -9 67382.8 5113.83   1
  -7  -3   9 57257.8 4827.03   2
  -3  -7  10 254712. 10110.2   2
  -7  -3  10 271116. 10281.4   1
  -3  -7  10 250056. 9833.70   1
   7   3 -10 262521. 10142.4   1
   3   7 -10 263226. 9991.81   1
   7 -10 -10 280810. 11089.7   1
  -7  -3  10 251950. 10178.6   2
  -3  -7  11 12511.4 2202.92   2
   3   7 -11 11439.4 1987.37   1
  -3  -7  11 13068.2 2231.02   1
  -7  -3  11 12073.8 2196.05   1
   7   3 -11 11524.2 2216.77   1
 -10   3 -11 8702.55 2037.82   2
  -7  -3  11 14204.0 2510.52   2
  -7  -3  12 1643.66 927.306   2
  -3  -7  12 1932.18 752.915   2
   3   7 -12 1993.30 920.657   1
  -7  -3  12 2626.71 1034.51   1
  -3  -7  12 1522.93 887.741   1
 -10   3 -12 1419.89 995.747   2
   7   3 -12 2618.42 1196.44   1
 -10   2  13 677.871 925.937   2
  10  -8 -12 153508. 8031.37   1
 -10   8  12 163701. 8435.68   1
  -8  10 -12 165768. 8546.56   1
   8 -10  12 152512. 8213.07   1
 -10   2  12 156770. 8424.90   2
   2 -10  11 425.415 399.528   2
  10  -8 -11 1079.17 705.723   1
 -10   2  11 1474.91 766.081   1
 -10   8  11 63.1812 391.165   1
  -8  10 -11 786.548 559.101   1
  10  -2 -11 1855.43 681.235   1
   2 -10  11 742.395 589.393   1
  -2  10 -11 424.408 549.974   1
   8 -10  11 1187.85 783.430   1
 -10   2  11 1308.28 731.105   2
  10  -8 -10 1851.98 888.628   1
 -10   2  10 1648.03 847.673   1
  10  -2 -10 1659.31 840.166   1
  -8  10 -10 949.992 640.339   1
   2 -10  10 1355.41 732.304   1
  -2  10 -10 1093.09 597.794   1
 -10   8  10 696.376 561.370   1
   8 -10  10 1101.97 792.176   1
 -10   2  10 1414.34 897.171   2
  10  -8  -9 608.321 530.057   1
 -10   2   9-378.929 597.334   1
  10  -2  -9-68.2565 268.982   1
 -10   8   9 238.772 226.449   1
   2 -10   9-291.994 540.145   1
  -8  10  -9 601.500 611.567   1
  -2  10  -9 610.236 525.183   1
   8 -10   9 23.5184 297.872   1
 -10   2   9 583.058 230.025   2
  10  -8  -8 293746. 10472.5   1
 -10   8   8 268504. 10145.2   1
  -2  10  -8 317688. 10785.3   1
 -10   2   8 283188. 10409.1   1
  10  -2  -8 292200. 10734.2   1
   2 -10   8 288932. 10584.0   1
   8 -10   8 306786. 11363.6   1
  -8  10  -8 254731. 10030.3   1
 -10   2   8 295248. 10924.6   2
  10  -8  -7 19691.1 2664.47   1
  -2  10  -7 12484.9 2253.52   1
 -10   2   7 15495.2 2402.23   1
  10  -2  -7 13311.4 2266.10   1
   2 -10   7 19075.8 2671.57   1
   8 -10   7 13782.6 2369.46   1
  -8  10  -7 15313.2 2360.14   1
 -10   2   7 17002.8 2587.22   2
 -10   8   7 14880.5 2300.41   1
   8 -10   6 1490.98 865.126   1
  -2  10  -6 2120.90 832.144   1
 -10   8   6 100.233 316.878   1
  -8  10  -6 965.032 548.226   1
  10  -8  -6 1305.95 761.190   1
 -10   2   6 656.338 428.483   1
  10  -2  -6 1562.20 876.230   1
   2 -10   6 1119.46 613.527   1
 -10   8   6 1023.50 789.266   2
  -8  -2  -6 1476.18 919.121   2
 -10   2   6 788.574 672.170   2
   8 -10   5-308.383 332.587   1
  -2  10  -5 437.168 539.495   1
  10  -8  -5-156.624 539.729   1
 -10   2   5-257.206 509.961   1
  -8  10  -5 161.716 234.543   1
  10  -2  -5-188.096 215.487   1
   2 -10   5 1040.42 930.446   1
 -10   8   5-387.539 246.547   2
 -10   8   5-411.557 521.773   1
  -8  -2  -5 937.081 684.474   2
 -10   2   5 54.3842 606.446   2
  10  -8  -4 486193. 13504.6   1
  -8  10  -4 518628. 13691.4   1
 -10   2   4 482491. 13323.7   1
  10  -2  -4 490447. 13714.2   1
  -2  10  -4 486614. 13437.5   1
   2 -10   4 582144. 14752.3   1
 -10   8   4 503851. 13508.2   1
 -10   8   4 562884. 15201.8   2
   8 -10   4 558735. 14629.1   1
  -8  -2  -4 448623. 13569.0   2
 -10   2   4 515195. 14223.2   2
  -8  10  -3 6243.87 1473.84   1
   8 -10   3 5658.40 1357.11   1
   2 -10   3 3984.93 1238.97   2
  -2  10  -3 4810.87 1406.59   1
  10  -8  -3 5261.43 1342.03   1
 -10   2   3 6298.92 1500.86   1
 -10   8   3 4934.34 1330.04   1
  10  -2  -3 7457.72 1732.04   1
   2 -10   3 4615.97 1200.05   1
 -10   8   3 6663.03 1750.76   2
 -10   2   3 6018.99 1515.19   2
  -8  -2  -3 6101.27 1395.01   2
  10  -8  -2 34711.6 3544.91   1
   2 -10   2 29677.2 3619.58   2
  -8  10  -2 43247.3 3865.23   1
 -10   2   2 39799.0 3915.05   1
  10  -2  -2 40760.7 3834.62   1
 -10   8   2 37514.8 3664.45   1
  -2  10  -2 32488.3 3455.11   1
   2 -10   2 37354.4 3699.32   1
 -10   8   2 37599.4 3811.53   2
  -8  -2  -2 43956.8 4105.33   2
   8 -10   2 39296.6 3822.65   1
 -10   2   2 42508.9 3989.34   2
   8 -10   1-254.281 272.099   1
  10  -8  -1 183.212 476.057   1
  -2  10  -1 131.617 545.716   1
  -8  10  -1-191.385 333.736   1
 -10   2   1 336.167 467.223   1
  10  -2  -1 678.520 685.648   1
   2   8   1-19.6697 275.186   1
  -2  -8  -1 336.157 470.047   1
 -10   8   1-373.392 500.520   1
 -10   8   1 110.951 231.369   2
   2 -10   1 181.290 235.565   1
 -10   2   1 101.992 566.725   2
  -8  -2  -1 43.5740 235.946   2
 -10   8   0 401643. 12015.4   1
 -10   2   0 373311. 11727.3   1
  10  -2   0 362320. 11390.8   1
  -8  -2   0 296314. 10611.2   1
  -8  10   0 336953. 10723.8   1
   8   2   0 335496. 11819.1   1
  -2  10   0 264700. 9927.37   1
  -2  -8   0 521281. 13779.2   1
   2 -10   0 366535. 11677.0   1
 -10   8   0 387190. 12396.8   2
 -10   2   0 410805. 12384.3   2
   8 -10   0 334326. 11114.9   1
  -8  -2   0 421122. 12635.4   2
  10  -8   0 377671. 11767.6   1
   2   8   0 351596. 11386.1   1
  -2  -8   0 436477. 12964.0   2
  -8  -2   1 3799.83 1257.54   2
  -2  -8   1 3873.77 1271.30   2
   8 -10  -1 2953.37 1034.05   1
  10  -8   1 2475.06 825.983   1
 -10   8  -1 2961.79 982.377   1
 -10   2  -1 4781.71 1363.33   1
  -2  10   1 4064.82 1170.92   1
  -8  -2   1 3453.31 1093.66   1
  -8  10   1 2906.07 1020.85   1
  10  -2   1 3631.20 1124.79   1
   2   8  -1 4451.41 1222.64   1
  -2  -8   1 4430.77 1302.73   1
 -10   8  -1 3335.02 1094.42   2
   8   2  -1 3483.37 1191.44   1
   2 -10  -1 4609.73 1328.07   1
 -10   2  -1 3004.70 1094.37   2
  -2  -8   2 23512.6 3000.25   2
  10  -2   2 20657.7 2707.82   1
  -8  -2   2 20499.1 2863.25   1
   8   2  -2 20746.4 2697.99   1
  -2  10   2 22365.2 2816.87   1
  -8  10   2 20752.3 2651.52   1
  -2  -8   2 19855.6 2712.66   1
   2 -10  -2 33334.7 3588.00   1
 -10   8  -2 19777.2 2787.54   2
 -10   2  -2 25464.3 3048.28   2
 -10   8  -2 24352.8 2925.66   1
   8 -10  -2 17592.6 2598.43   1
  -8  -2   2 23289.0 2877.24   2
  10  -8   2 20224.0 2742.57   1
   2   8  -2 23048.7 2920.17   1
  -8  -2   3 2153.52 827.748   2
  -2  -8   3 2360.76 979.747   2
   8 -10  -3 737.656 688.757   1
  10  -8   3 1463.83 879.928   1
  -2  10   3 881.369 608.958   1
  -8  -2   3 491.821 443.654   1
   2   8  -3 863.887 583.475   1
  -8  10   3 1062.20 484.843   1
  -2  -8   3 792.109 632.487   1
 -10   8  -3 1490.63 892.859   2
 -10   8  -3 316.133 341.116   1
   8   2  -3 1232.33 608.306   1
   2 -10  -3 1050.71 612.199   1
 -10   2  -3 1114.03 745.208   2
  -2  -8   4 396130. 12313.3   2
  -8  -2   4 367348. 11702.1   1
   8   2  -4 367014. 11747.4   1
  -2  10   4 349974. 11514.4   1
  -2  -8   4 364573. 11659.0   1
  -8  10   4 384513. 11646.6   1
 -10   8  -4 338085. 10955.6   1
   2 -10  -4 513941. 14320.8   1
 -10   8  -4 398570. 12501.8   2
 -10   2  -4 313007. 10893.5   2
  -8  -2   4 411090. 12507.5   2
   8 -10  -4 307439. 10837.1   1
  10  -8   4 384586. 12053.3   1
   2   8  -4 424186. 12520.7   1
  -2  -8   5 22364.5 2952.62   2
  -8  -2   5 16381.4 2450.02   1
   8   2  -5 17373.0 2603.40   1
 -10   8  -5 21938.4 2784.05   1
  -2  -8   5 15906.4 2404.06   1
  -8  10   5 21869.4 2691.76   1
 -10   2  -5 18121.7 2687.81   2
  10  -8   5 18213.4 2653.34   1
  -8  -2   5 21274.5 2768.67   2
   8 -10  -5 23556.5 2989.96   1
   2   8  -5 18779.9 2667.89   1
  -8  -2   6 487.845 621.719   2
  10  -8   6 10.6119 353.527   1
  -2  -8   6 37.5796 279.444   2
   8 -10  -6 524.822 523.603   1
 -10   8  -6 381.674 428.314   1
  -8  -2   6 27.5441 335.667   1
   2   8  -6-505.933 738.994   1
  -2  -8   6-202.871 388.452   1
  -8  10   6 58.6469 291.516   1
 -10   2  -6 295.834 290.518   2
   8   2  -6-279.820 461.779   1
  -8  -2   7 6357.80 1465.45   2
  10  -8   7 7246.54 1723.02   1
  -2  -8   7 7616.44 1796.50   2
   8 -10  -7 5607.87 1483.85   1
 -10   8  -7 6740.38 1645.42   1
  -8  -2   7 6489.08 1600.72   1
   2   8  -7 4687.92 1370.63   1
  -2  -8   7 5574.29 1442.90   1
  -8  10   7 6807.28 1425.88   1
 -10   2  -7 6554.05 1603.10   2
   8   2  -7 8424.60 1807.59   1
 -10   8  -8 331609. 11701.7   1
  -8  -2   8 319975. 11196.1   1
  -2  -8   8 361472. 11705.6   1
   8   2  -8 344397. 11644.2   1
  -8  10   8 337446. 11383.6   1
 -10   2  -8 365227. 12346.4   2
  10  -8   8 363158. 12401.3   1
   2   8  -8 341639. 11457.9   1
  -8  -2   8 334688. 11568.5   2
   8 -10  -8 349119. 11959.1   1
  -8  -2   9 10137.2 2065.29   2
  -2  -8   9 8850.18 1835.27   2
   8 -10  -9 11759.7 2194.58   1
   2   8  -9 9410.87 1821.28   1
  -8  -2   9 8401.22 1848.23   1
  -2  -8   9 7604.83 1785.00   1
 -10   2  -9 5375.88 1434.92   2
   8   2  -9 8115.73 1756.43   1
  -8  10   9 10477.1 2046.90   1
  -8  -2  10 4948.93 1571.64   2
  -2  -8  10 4446.49 1350.43   2
   8 -10 -10 3372.65 1184.98   1
   2   8 -10 4885.94 1319.74   1
  -8  -2  10 4336.13 1310.13   1
  -2  -8  10 6938.74 1681.53   1
 -10   2 -10 4553.62 1409.48   2
   8   2 -10 5152.37 1440.54   1
  -8  10  10 6895.80 1669.95   1
  -8  10  11 1660.89 817.784   1
  -8  -2  11 2136.15 1082.92   2
  -2  -8  11 975.515 662.700   2
   8 -10 -11 1409.01 781.257   1
   2   8 -11 1178.85 735.925   1
  -8  -2  11 1603.78 823.643   1
  -2  -8  11 1107.96 692.644   1
   8   2 -11 1169.27 534.325   1
  10  -9 -11 66285.7 5503.84   1
  -9  10 -11 67535.2 5530.19   1
   9 -10  11 64958.8 5414.54   1
 -10   1  11 78750.6 5867.36   2
  10  -9 -10 147098. 8038.75   1
  -1  10 -10 124935. 7022.14   1
   1 -10  10 114539. 7158.03   2
 -10   1  10 130377. 7257.64   1
  10  -1 -10 99651.6 6690.07   1
   1 -10  10 141813. 7374.31   1
 -10   9  10 141615. 7612.13   1
  -9  10 -10 98239.8 6504.84   1
   9 -10  10 128159. 7570.65   1
 -10   1  10 135952. 7672.27   2
  10  -9  -9 135682. 7557.67   1
  -1  10  -9 102842. 6323.09   1
   1 -10   9 112829. 7175.14   2
 -10   1   9 121354. 6985.70   1
  10  -1  -9 104460. 6718.22   1
 -10   9   9 101659. 6498.25   1
   1 -10   9 94736.7 6041.39   1
   9 -10   9 90465.7 6331.89   1
  -9  10  -9 96271.8 6386.66   1
 -10   1   9 108977. 6753.44   2
   1 -10   8 44854.1 4427.32   2
  -1  10  -8 55989.3 4640.86   1
 -10   1   8 52603.4 4487.10   1
  10  -1  -8 50117.7 4534.58   1
 -10   9   8 61290.0 4937.65   1
   1 -10   8 47453.8 4257.24   1
   9 -10   8 52548.8 4770.00   1
  -9  10  -8 42125.4 4053.48   1
 -10   1   8 54946.1 4648.73   2
  -1  10  -7 11203.7 2100.71   1
   1 -10   7 7771.24 1924.05   2
 -10   9   7 12720.4 2071.26   1
  10  -9  -7 10887.6 2133.07   1
 -10   1   7 10138.1 1986.00   1
  10  -1  -7 11020.9 1955.92   1
   1 -10   7 11609.9 2080.64   1
   9 -10   7 14350.5 2493.98   1
  -9  -1  -7 8161.57 1819.33   2
  -9  10  -7 11922.0 2191.07   1
 -10   1   7 12738.7 2185.51   2
  -9  10  -6 55205.4 4582.56   1
   1 -10   6 37008.0 4007.23   2
  -1  10  -6 62497.1 4867.22   1
 -10   1   6 54131.7 4562.99   1
 -10   9   6 61752.9 4793.51   1
  10  -1  -6 61918.7 4983.56   1
   1 -10   6 64414.3 5015.90   1
   9 -10   6 57777.2 4882.14   1
  -9  -1  -6 43902.6 4290.13   2
 -10   1   6 75237.6 5383.23   2
  10  -9  -6 67314.7 5076.36   1
   1 -10   5 20242.0 3007.14   2
  -9  10  -5 23048.1 2973.30   1
  -1  10  -5 21466.4 2871.22   1
 -10   1   5 21112.6 2910.01   1
 -10   9   5 23590.5 2920.39   1
  10  -1  -5 20505.7 2882.61   1
   1 -10   5 19956.2 2793.99   1
   9 -10   5 20153.1 2889.67   1
  -9  -1  -5 23586.5 3119.92   2
 -10   1   5 22071.7 2951.67   2
  10  -9  -5 19526.9 2808.73   1
   1 -10   4 794.252 556.909   1
   9 -10   4 946.910 711.583   1
   1 -10   4 1383.39 720.904   2
  -9  10  -4 989.581 490.429   1
  10  -9  -4 289.847 273.314   1
 -10   1   4 688.484 267.520   1
 -10   9   4 795.254 499.825   1
  10  -1  -4 793.957 554.383   1
 -10   9   4 525.688 536.711   2
  -1  10  -4 531.819 259.330   1
  -9  -1  -4 881.797 549.161   2
 -10   1   4 1464.29 873.209   2
   1 -10   3 62380.2 5232.15   2
 -10   9   3 92929.9 5716.99   1
  -1  10  -3 83209.4 5525.04   1
  -9  10  -3 93937.5 5886.65   1
 -10   1   3 80744.7 5542.02   1
  10  -1  -3 85365.2 5798.19   1
   1 -10   3 72104.7 5334.27   1
 -10   9   3 106795. 6641.19   2
  -9  -1  -3 103102. 6510.77   2
   9 -10   3 84764.1 5805.90   1
 -10   1   3 95123.2 6135.01   2
  10  -9  -3 83807.7 5508.53   1
 -10   9   2 325847. 10968.2   1
   1 -10   2 267662. 10633.6   2
 -10   1   2 327735. 11221.3   1
  -1  10  -2 303703. 10653.4   1
  10  -1  -2 308371. 11022.9   1
  -9  10  -2 301545. 10418.2   1
   1 -10   2 266351. 10277.3   1
 -10   9   2 301414. 11206.4   2
  -9  -1  -2 344473. 11617.5   2
 -10   1   2 381527. 12150.1   2
   9 -10   2 304723. 10949.1   1
  10  -9  -2 327878. 11115.8   1
   1   9   1 126467. 7025.06   1
 -10   1   1 108190. 6508.28   1
  -1  10  -1 124176. 6892.57   1
  10  -1  -1 106527. 6487.16   1
  -9  10  -1 120235. 6476.37   1
  -1  -9  -1 117323. 6699.75   1
   1 -10   1 104913. 6422.00   1
 -10   9   1 121521. 7207.73   2
 -10   1   1 124492. 6973.88   2
  -9  -1  -1 123222. 7036.80   2
   9 -10   1 119947. 6760.60   1
 -10   9   1 115699. 6461.26   1
  10  -9  -1 110338. 6358.86   1
   1   9   0 45711.6 4183.98   1
 -10   1   0 41358.7 4092.83   1
  10  -1   0 38654.0 3905.62   1
  -1  10   0 40260.6 3874.85   1
   9   1   0 39797.5 3892.56   1
  -9  10   0 45693.9 3990.62   1
  -1  -9   0 42898.4 4055.96   1
   1 -10   0 39160.3 3961.15   1
 -10   9   0 42305.0 4160.23   2
 -10   9   0 44394.1 3929.63   1
 -10   1   0 40353.8 3951.95   2
  -9  -1   0 45255.5 4184.38   2
   9 -10   0 42560.1 4028.27   1
  10  -9   0 44377.3 3999.86   1
  -1  -9   1 124980. 7000.84   2
   1   9  -1 143302. 7455.06   1
  10  -1   1 153662. 7651.38   1
  -9  -1   1 141632. 7366.97   1
  -1  10   1 164138. 8008.31   1
   9   1  -1 140392. 7427.64   1
  -9  10   1 155091. 7373.76   1
  -1  -9   1 147985. 7461.30   1
   1 -10  -1 128948. 7158.63   1
 -10   9  -1 144094. 7220.31   1
 -10   9  -1 139394. 7597.86   2
 -10   1  -1 156068. 7688.84   2
  -9  -1   1 162535. 7915.39   2
   9 -10  -1 144066. 7354.76   1
  10  -9   1 150843. 7406.25   1
  -1  -9   2 380542. 12479.1   2
   1   9  -2 348438. 11646.0   1
  -9  -1   2 338109. 11518.6   1
  -1  10   2 428400. 12926.5   1
   9   1  -2 333365. 11958.3   1
  -1  -9   2 219749. 9168.86   1
   1 -10  -2 292098. 10915.0   1
  -9  10   2 324852. 10697.1   1
 -10   9  -2 319801. 10768.4   1
 -10   1  -2 371866. 11980.1   2
  -9  -1   2 283579. 10425.2   2
   9 -10  -2 357612. 11467.1   1
  10  -9   2 334003. 11141.9   1
  -1  -9   3 45424.0 4281.88   2
   1   9  -3 31664.7 3596.26   1
  -9  -1   3 37931.4 3829.58   1
  -1  10   3 42879.0 4107.23   1
   9   1  -3 33451.5 3789.36   1
 -10   9  -3 33860.1 3480.35   1
  -1  -9   3 28095.6 3276.72   1
  -9  10   3 41205.7 3833.77   1
 -10   1  -3 33214.2 3556.45   2
  -9  -1   3 38969.6 3923.30   2
  10  -9   3 40498.0 3865.54   1
   9 -10  -3 42436.9 3971.69   1
   1   9  -4 44794.5 4113.10   1
  -1  -9   4 40545.0 3991.36   2
  -9  -1   4 39166.1 3910.86   1
   9   1  -4 34622.2 3841.60   1
 -10   9  -4 40052.8 3879.19   1
  -1  -9   4 32981.9 3418.98   1
  -9  10   4 53859.2 4367.13   1
 -10   1  -4 45902.9 4254.57   2
  10  -9   4 45519.3 4229.99   1
  -9  -1   4 56036.3 4690.54   2
   9 -10  -4 55744.5 4501.77   1
   1   9  -5 14901.6 2415.02   1
  10  -9   5 13927.9 2252.27   1
  -1  -9   5 11222.3 2125.51   2
   9 -10  -5 13549.7 2140.24   1
 -10   9  -5 14574.1 2340.96   1
   9   1  -5 11558.1 2249.36   1
  -9  -1   5 11730.8 2104.26   1
  -1  -9   5 14440.5 2316.59   1
  -9  10   5 13831.4 2253.11   1
 -10   1  -5 11816.1 2152.70   2
  -9  -1   5 12746.9 2330.46   2
   1   9  -6 27492.8 3250.06   1
  -1  -9   6 34310.5 3812.96   2
 -10   9  -6 30813.2 3569.71   1
  -9  -1   6 33756.1 3637.32   1
   9   1  -6 25768.5 3470.38   1
  -1  -9   6 35860.3 3594.33   1
 -10   1  -6 27138.3 3316.49   2
  10  -9   6 25299.6 3322.13   1
  -9  10   6 37837.5 3735.64   1
  -9  -1   6 28866.8 3431.84   2
   9 -10  -6 39749.3 3838.20   1
  -1  -9   7 99489.6 6490.77   2
 -10   9  -7 93208.8 6153.74   1
  -9  -1   7 114193. 6654.27   1
   9   1  -7 105118. 6777.06   1
  -1  -9   7 123224. 6912.16   1
 -10   1  -7 93509.9 6247.69   2
  10  -9   7 95777.3 6423.26   1
  -9  10   7 114964. 6662.51   1
  -9  -1   7 123476. 7122.84   2
   9 -10  -7 84562.6 5920.84   1
   1   9  -7 119038. 6686.19   1
  -9  -1   8 1414.17 887.616   2
  10  -9   8 1960.11 871.704   1
  -1  -9   8 2458.18 1041.53   2
   9 -10  -8 4262.72 1407.24   1
  -9  10   8 3072.41 1161.14   1
  -9  -1   8 2538.71 1037.93   1
   1   9  -8 2674.02 946.353   1
 -10   9  -8 1857.79 923.417   1
  -1  -9   8 2911.45 1122.73   1
   9   1  -8 1867.01 939.097   1
 -10   1  -8 2175.83 957.372   2
  -1  -9   9 44764.7 4380.17   2
  -9  -1   9 41031.7 4051.75   1
   9   1  -9 35124.9 4312.36   1
  -1  -9   9 39036.8 3859.28   1
 -10   1  -9 31808.8 3676.12   2
  10  -9   9 37242.7 4042.84   1
  -9  -1   9 41296.1 4063.30   2
 -10   9  -9 31928.6 3610.39   1
   1   9  -9 39491.1 3906.78   1
   9 -10  -9 27948.5 3460.49   1
  -9  10   9 46605.7 4389.59   1
  -1  -9  10 291345. 11172.4   2
  -9  -1  10 224192. 9480.92   1
   9   1 -10 183125. 8930.20   1
  -1  -9  10 251657. 9923.27   1
  -9  -1  10 242647. 10211.0   2
   1   9 -10 245591. 9717.29   1
   9 -10 -10 152824. 8247.57   1
  -9  10  10 236033. 9951.65   1
   9 -10 -11 4880.96 1395.80   1
  -9  10  11 5464.52 1485.94   1
  -9  10  12-389.330 532.526   1
   0  10   0 42441.0 4136.32   1
   0 -10   0 45090.7 4227.16   1
 -10  10   0 48230.5 4200.84   1
 -10   0   0 51886.8 4574.96   2
  10 -10   0 52421.8 4484.69   1
   0  10  -1 116041. 6842.28   1
   0  10   1 152198. 7795.88   1
 -10   0   1 133546. 7405.84   1
  10   0  -1 135811. 7612.48   1
 -10  10  -1 140656. 7199.79   1
   0 -10   1 144774. 7653.25   1
   0 -10  -1 133645. 7395.97   1
 -10  10   1 155540. 7491.47   1
 -10   0  -1 147918. 7862.44   2
 -10   0   1 144645. 7601.37   2
  10 -10   1 138961. 7343.01   1
  10 -10  -1 151082. 7473.45   1
   0  10  -2 328050. 11452.6   1
 -10   0   2 281519. 10807.6   1
  10   0  -2 341419. 11778.4   1
 -10  10  -2 330697. 10910.2   1
   0 -10   2 267138. 10381.6   1
 -10  10   2 387343. 11904.2   1
 -10   0  -2 344338. 11860.5   2
 -10   0   2 363631. 12169.9   2
  10 -10   2 349114. 11744.3   1
  10 -10  -2 354727. 11564.9   1
   0 -10   3 47273.1 4463.30   2
   0  10  -3 46316.8 4244.81   1
 -10   0   3 41510.8 4048.95   1
 -10  10  -3 33888.4 3578.51   1
  10   0  -3 41716.0 4203.30   1
   0 -10   3 39962.9 3922.53   1
 -10  10   3 43740.8 4014.94   1
 -10   0  -3 41272.6 4092.17   2
  10 -10   3 43908.7 4128.88   1
 -10   0   3 49808.3 4506.98   2
  10 -10  -3 45560.9 4236.04   1
  10 -10   4 9954.76 1984.29   1
   0 -10   4 4869.87 1424.61   2
 -10  10   4 8429.53 1749.66   1
  10 -10  -4 7494.98 1710.73   1
 -10  10  -4 7836.51 1749.13   1
 -10   0   4 6664.81 1687.63   1
  10   0  -4 6184.69 1634.30   1
   0 -10   4 9909.31 1977.23   1
   0  10  -4 8076.50 1708.17   1
 -10   0  -4 8123.19 1806.03   2
 -10   0   4 9758.68 1955.64   2
   0 -10   5 16001.8 2554.08   2
   0  10  -5 17984.5 2688.17   1
 -10  10  -5 17572.1 2638.22   1
 -10   0   5 14674.1 2502.04   1
  10   0  -5 16688.8 2752.97   1
   0 -10   5 15156.4 2423.40   1
 -10   0  -5 13395.4 2258.23   2
  10 -10   5 17452.1 2750.71   1
 -10   0   5 16433.3 2660.97   2
 -10  10   5 18729.4 2587.46   1
  10 -10  -5 17685.9 2612.49   1
   0 -10   6 21053.9 2993.06   2
   0  10  -6 21303.7 2832.49   1
 -10  10  -6 17371.0 2620.63   1
 -10   0   6 19184.5 2732.74   1
  10   0  -6 16915.5 2740.16   1
   0 -10   6 15556.1 2542.57   1
 -10   0  -6 16799.2 2582.48   2
  10 -10   6 21578.3 3043.39   1
 -10   0   6 18441.3 2843.61   2
  10 -10  -6 21733.0 2991.69   1
 -10  10   6 22221.6 2863.64   1
 -10  10   7 33072.8 3606.10   1
   0  10  -7 39095.8 3985.43   1
   0 -10   7 35556.6 3993.18   2
 -10   0   7 31722.4 3547.73   1
  10   0  -7 29568.9 3761.57   1
   0 -10   7 37034.1 3782.82   1
 -10   0  -7 31001.3 3622.53   2
  10 -10   7 32212.4 3658.88   1
 -10   0   7 32479.7 3741.88   2
  10 -10  -7 39103.4 3978.41   1
 -10  10  -7 27599.4 3332.00   1
 -10   0   8 6664.03 1712.64   2
  10 -10   8 5077.70 1540.53   1
   0 -10   8 6487.46 1696.19   2
  10 -10  -8 5998.75 1589.53   1
 -10  10  -8 4086.01 1288.50   1
 -10   0   8 5893.65 1519.68   1
 -10  10   8 5157.17 1411.96   1
   0  10  -8 6682.88 1569.74   1
   0 -10   8 7663.56 1690.29   1
  10   0  -8 3288.57 1207.68   1
   0 -10   9 45444.9 4489.23   2
 -10  10   9 47829.2 4434.17   1
 -10   0   9 49346.6 4451.69   1
  10   0  -9 45823.2 4647.57   1
  10 -10   9 39444.0 4289.00   1
 -10  10  -9 44821.1 4392.36   1
 -10   0   9 53524.9 4875.48   2
  10 -10  -9 56336.5 4859.22   1
  10 -10  10 13024.1 2537.61   1
  -6  11 -11 72343.4 5459.34   1
   6 -11  11 69984.1 5407.27   1
  11  -6 -10 221031. 9136.81   1
 -11   6  10 187727. 8590.80   1
  11  -5 -10 192087. 8734.50   1
 -11   5  10 216511. 9330.94   1
  -5  11 -10 269053. 10503.4   1
  -6  11 -10 280297. 10679.0   1
   5 -11  10 217088. 9358.52   1
   6 -11  10 230635. 9673.36   1
 -11   5  10 172807. 8891.75   2
  11  -6  -9 59805.4 4746.23   1
 -11   6   9 61611.1 4901.39   1
  11  -5  -9 61252.2 4847.59   1
 -11   5   9 67721.9 5189.91   1
  -5  11  -9 61449.3 4919.10   1
  -6  11  -9 63047.1 4950.44   1
   5 -11   9 64736.4 5065.03   1
   6 -11   9 63910.2 5151.33   1
 -11   6   9 51544.8 4720.11   2
 -11   5   9 52541.9 4862.54   2
  11  -6  -8 20050.6 2635.28   1
 -11   6   8 19837.9 2668.85   1
  11  -5  -8 19323.9 2673.50   1
 -11   5   8 21388.1 2871.74   1
 -11   6   8 14385.0 2460.18   2
  -5  11  -8 23289.4 2967.72   1
  -6  11  -8 17577.6 2643.78   1
   5 -11   8 20536.6 2873.88   1
   6 -11   8 24909.8 3147.33   1
 -11   5   8 18482.3 2742.52   2
  11  -6  -7 24306.3 2923.01   1
 -11   6   7 26531.8 3217.38   1
  11  -5  -7 27655.1 3188.79   1
 -11   5   7 31053.0 3475.16   1
  -5  11  -7 28144.5 3289.53   1
  -6  11  -7 29166.1 3314.69   1
   5 -11   7 22707.4 3057.25   1
   6 -11   7 27003.5 3241.57   1
 -11   6   7 22859.6 3119.09   2
 -11   5   7 26046.9 3239.54   2
  11  -6  -6 84498.5 5562.19   1
 -11   6   6 85765.2 5676.42   1
  11  -5  -6 90953.9 5833.91   1
 -11   5   6 89473.8 5846.06   1
  -5  11  -6 89998.3 5808.40   1
  -6  11  -6 80374.6 5443.75   1
   5 -11   6 100814. 6309.55   1
   6 -11   6 98390.4 6201.37   1
 -11   6   6 78063.5 5653.49   2
 -11   5   6 84153.5 5758.42   2
  11  -6  -5 76358.2 5258.88   1
  11  -5  -5 80320.8 5388.85   1
 -11   6   5 73260.5 5248.05   1
 -11   5   5 74568.3 5251.10   1
  -5  11  -5 74991.0 5332.40   1
  -6  11  -5 76634.7 5276.37   1
   5 -11   5 81709.9 5661.41   1
   6 -11   5 75912.7 5394.08   1
 -11   6   5 75826.0 5540.56   2
 -11   5   5 75643.9 5438.19   2
  11  -6  -4 16134.7 2368.06   1
  11  -5  -4 14888.9 2265.12   1
 -11   6   4 14538.0 2297.72   1
 -11   5   4 17762.2 2565.86   1
  -5  11  -4 17434.1 2568.39   1
   5 -11   4 17803.0 2702.96   1
  -6  11  -4 13213.4 2268.83   1
   6 -11   4 14215.4 2390.65   1
 -11   6   4 13005.2 2365.04   2
 -11   5   4 13951.2 2306.50   2
  11  -6  -3 75979.9 5251.18   1
  11  -5  -3 62655.7 4728.42   1
 -11   6   3 72171.6 5205.43   1
 -11   5   3 66792.8 5011.16   1
  -5  11  -3 82325.6 5377.64   1
   5 -11   3 77963.5 5588.95   1
   6 -11   3 67485.1 5147.37   1
  -6  11  -3 88144.8 5685.48   1
 -11   5   3 69059.4 5109.48   2
 -11   6   3 71126.9 5222.12   2
  11  -6  -2 266777. 9839.12   1
  11  -5  -2 244585. 9331.66   1
 -11   6   2 268260. 9984.70   1
 -11   5   2 231750. 9207.54   1
  -5  11  -2 266084. 9817.37   1
   5 -11   2 274862. 10419.1   1
   6 -11   2 269971. 10465.6   1
 -11   6   2 275485. 10321.2   2
  -6  11  -2 252344. 9616.65   1
 -11   5   2 271498. 10076.7   2
  -6  -5  -2 316602. 11258.2   2
  -6  -5  -1 10648.5 2006.32   2
  -5  -6  -1 10261.8 1992.94   2
  -6  11  -1 9427.37 1784.04   1
 -11   5   1 9051.91 1792.72   1
  11  -6  -1 9477.56 1889.82   1
  11  -5  -1 8977.09 1841.38   1
  -5  11  -1 8383.30 1795.62   1
 -11   6   1 8756.41 1882.77   2
 -11   5   1 9942.23 1904.56   2
   5 -11   1 6491.71 1652.91   1
   6 -11   1 9798.55 1945.77   1
  11  -6   0 19829.5 2643.46   1
 -11   6   0 18941.4 2604.40   1
  11  -5   0 21154.6 2752.16   1
 -11   5   0 20698.7 2861.38   1
   5 -11   0 18620.9 2719.78   1
  -5  11   0 23164.3 2931.53   1
   6 -11   0 25305.5 3148.16   1
 -11   6   0 21899.1 2864.71   2
 -11   5   0 23226.4 2990.81   2
  -6  11   0 23768.4 2969.64   1
  -6  -5   0 20052.0 2797.15   2
  -5  -6   0 18950.8 2677.92   2
  11  -6   1 51520.8 4319.55   1
  11  -5   1 54682.3 4561.66   1
  -6  -5   1 49107.4 4430.85   1
  -5  -6   1 57873.0 4835.07   1
   6   5  -1 57635.9 4692.90   1
   5   6  -1 65749.0 5018.74   1
   5 -11  -1 59874.8 4828.81   1
  -5  11   1 64256.7 4962.44   1
 -11   6  -1 59769.9 4809.35   2
   6 -11  -1 61694.5 4926.67   1
 -11   5  -1 51723.6 4417.17   2
 -11   6  -1 54002.3 4543.90   1
  -6  11   1 65292.3 4844.91   1
  -6  -5   1 56059.2 4685.50   2
  -5  -6   1 53332.2 4593.97   2
 -11   5  -2 326885. 11253.2   1
  11  -6   2 301369. 10859.3   1
  11  -5   2 307483. 10738.0   1
  -6  -5   2 330845. 11414.2   1
  -5  -6   2 283004. 10646.8   1
 -11   6  -2 287383. 10506.7   1
   6   5  -2 310596. 11049.9   1
   5   6  -2 339500. 11598.8   1
   5 -11  -2 228317. 9789.63   1
 -11   6  -2 304498. 10762.8   2
 -11   5  -2 315546. 10972.3   2
   6 -11  -2 355596. 11716.9   1
  -5  11   2 332873. 11114.3   1
  -6  -5   2 297796. 10920.5   2
  -5  -6   2 374005. 12285.2   2
  -6  11   2 340223. 11135.8   1
  11  -6   3 150042. 7737.06   1
  11  -5   3 128482. 6904.70   1
 -11   6  -3 131098. 7094.68   1
  -6  -5   3 130873. 7286.69   1
  -5  -6   3 86346.7 5941.11   1
   6   5  -3 139888. 7311.29   1
 -11   5  -3 131951. 7158.10   1
   5   6  -3 140944. 7407.10   1
   5 -11  -3 193290. 8890.94   1
 -11   6  -3 131812. 7104.05   2
 -11   5  -3 132829. 7144.07   2
   6 -11  -3 124758. 7106.97   1
  -5  11   3 106061. 6265.15   1
  -6  -5   3 163162. 7990.60   2
  -5  -6   3 121189. 7026.56   2
  -6  11   3 141789. 7234.28   1
  11  -5   4 32660.1 3578.58   1
  -6  11   4 24879.6 3003.07   1
 -11   6  -4 26077.7 3157.58   1
  -6  -5   4 26132.0 3243.30   1
  -5  -6   4 23274.0 3114.06   1
   6   5  -4 30901.8 3513.09   1
   5   6  -4 25332.6 3140.38   1
   5 -11  -4 26260.5 3340.49   1
 -11   6  -4 25947.2 3225.90   2
 -11   5  -4 28933.8 3322.10   2
   6 -11  -4 26342.3 3291.29   1
  -5  11   4 23905.2 2974.49   1
  -6  -5   4 22255.4 2969.91   2
  -5  -6   4 31194.9 3525.60   2
  11  -6   4 25502.7 3179.79   1
  -6  11   5 46812.8 4224.53   1
  -6  -5   5 37392.5 3825.44   1
  -5  -6   5 28478.0 3452.40   1
   6   5  -5 34908.8 3777.45   1
   5   6  -5 43518.1 4126.08   1
 -11   6  -5 42615.1 4064.20   2
 -11   5  -5 33578.0 3633.80   2
   5 -11  -5 53954.1 4780.92   1
   6 -11  -5 48671.0 4541.25   1
  -5  11   5 28515.9 3395.82   1
  -6  -5   5 45642.5 4265.81   2
  11  -6   5 40998.2 4040.56   1
  -5  -6   5 39387.9 3969.71   2
  -6  11   6 75007.2 5486.10   1
  -6  -5   6 85876.6 5761.99   1
  -5  -6   6 87524.3 5927.80   1
   6   5  -6 87654.3 5929.24   1
   5   6  -6 81005.6 5774.15   1
 -11   6  -6 81822.5 5690.89   2
 -11   5  -6 87735.8 6053.23   2
   5 -11  -6 102906. 6664.67   1
   6 -11  -6 75917.1 5611.55   1
  -5  11   6 93957.2 6029.42   1
  -6  -5   6 88927.4 6065.78   2
  -5  -6   6 83516.7 5860.03   2
  -6  11   7 36843.6 3884.60   1
  -6  -5   7 38703.9 3939.58   1
  -5  -6   7 41786.4 4063.21   1
   6   5  -7 42635.2 4062.29   1
   5   6  -7 43384.0 4185.16   1
 -11   6  -7 44478.6 4248.88   2
 -11   5  -7 40042.8 3977.61   2
   6 -11  -7 46191.5 4528.94   1
  -5  11   7 30705.1 3431.10   1
  -6  -5   7 54139.3 4729.35   2
  -5  -6   7 38692.5 3882.87   2
  -6  11   8 1878.43 942.887   1
  -6  -5   8 1444.79 847.470   2
   6   5  -8 2262.55 993.070   1
  -5  -6   8 1519.58 861.556   2
   5   6  -8 1345.32 922.117   1
  -6  -5   8 895.919 725.281   1
  -5  -6   8 1268.41 835.210   1
 -11   6  -8 572.776 550.270   2
 -11   5  -8 1481.10 799.746   2
  -6  -5   9 65751.0 5213.16   1
  -5  -6   9 61860.7 5058.29   1
   6   5  -9 68375.0 5315.95   1
   5   6  -9 79946.5 5653.17   1
 -11   6  -9 61764.4 5010.69   2
 -11   5  -9 61884.2 5148.34   2
  -6  -5   9 83599.4 5857.13   2
  -5  -6   9 75475.1 5565.30   2
  -6  -5  10 189248. 8822.82   1
  -5  -6  10 200987. 9118.73   1
   6   5 -10 187300. 8868.32   1
   5   6 -10 190016. 8773.02   1
 -11   5 -10 204019. 9472.87   2
  -6  -5  10 182970. 8694.22   2
 -11   5 -11 22139.3 3128.84   2
  -7  11 -11 4642.27 1394.42   1
   7 -11  11 5470.66 1602.08   1
 -11   4  11 5141.94 1480.45   2
  11  -7 -10 30122.4 3479.39   1
 -11   7  10 33832.4 3570.79   1
 -11   4  10 34974.9 3618.68   1
  11  -4 -10 28630.1 3288.07   1
  -4  11 -10 29633.0 3424.15   1
  -7  11 -10 36310.1 3895.65   1
   4 -11  10 24552.9 3200.63   1
   7 -11  10 29780.7 3573.04   1
 -11   4  10 27625.8 3565.35   2
  -4  11  -9 174.362 274.421   1
 -11   7   9 342.060 440.936   1
 -11   4   9 252.966 395.537   1
  11  -7  -9 480.397 339.563   1
  -7  11  -9 21.9110 246.307   1
  11  -4  -9 661.834 738.999   1
   4 -11   9 249.700 351.145   1
   7 -11   9 750.254 735.944   1
 -11   4   9-581.766 546.095   2
  11  -7  -8 491273. 13654.7   1
 -11   7   8 515636. 14132.4   1
 -11   4   8 515273. 14219.2   1
  11  -4  -8 504353. 14071.0   1
  -4  11  -8 518616. 14206.9   1
   4 -11   8 502278. 14083.6   1
   7 -11   8 495913. 14419.5   1
 -11   4   8 499959. 14718.3   2
  11  -7  -7 22978.4 2815.24   1
 -11   7   7 21606.9 2870.13   1
 -11   4   7 21853.9 2920.61   1
  11  -4  -7 21866.5 2809.32   1
  -4  11  -7 20551.2 2813.90   1
   4 -11   7 23193.9 2988.03   1
  -7  11  -7 17009.9 2582.22   1
   7 -11   7 22007.8 2941.66   1
 -11   7   7 19126.7 2844.92   2
 -11   4   7 21646.9 3007.59   2
 -11   7   6 5063.42 1408.97   1
  -4  11  -6 6221.34 1542.47   1
 -11   4   6 6855.65 1537.18   1
  11  -7  -6 7336.37 1652.82   1
  11  -4  -6 4611.27 1371.82   1
  -7  11  -6 5645.17 1510.56   1
   4 -11   6 5046.00 1301.13   1
 -11   7   6 4658.96 1489.10   2
 -11   4   6 6138.36 1514.91   2
   7 -11   6 4581.37 1378.40   1
 -11   7   5-147.329 358.417   1
 -11   4   5 318.695 379.088   1
  -4  11  -5 479.066 590.663   1
  11  -7  -5 114.490 427.020   1
  11  -4  -5-253.643 308.178   1
   4 -11   5 363.044 610.984   1
 -11   7   5-513.649 630.998   2
 -11   4   5-245.498 445.250   2
   7 -11   5 73.5322 252.940   1
  -7  11  -5-482.800 634.149   1
  11  -7  -4 250988. 9675.12   1
  11  -4  -4 252983. 9567.26   1
 -11   4   4 248735. 9771.38   1
  -4  11  -4 277271. 10197.1   1
   4 -11   4 255841. 10060.5   1
   7 -11   4 231699. 9733.18   1
 -11   7   4 234091. 9772.79   2
  -7  11  -4 240180. 9417.33   1
 -11   4   4 270178. 10345.2   2
  -7  11  -3 8634.80 1697.18   1
 -11   4   3 6207.76 1598.03   1
  11  -7  -3 7181.53 1743.79   1
  -4  11  -3 6909.99 1648.04   1
  11  -4  -3 7041.10 1631.54   1
 -11   7   3 6075.84 1569.55   1
 -11   7   3 6162.46 1615.14   2
   4 -11   3 8063.70 1780.93   1
 -11   4   3 6880.43 1630.63   2
   7 -11   3 7897.86 1735.76   1
  -7  -4  -3 7972.43 1834.57   2
  11  -7  -2 41364.8 3824.97   1
  11  -4  -2 36084.4 3557.05   1
 -11   4   2 38260.6 3846.28   1
  -4  11  -2 35721.2 3627.39   1
   4 -11   2 46535.6 4337.71   1
 -11   7   2 31604.9 3712.89   2
   7 -11   2 44574.3 4184.76   1
 -11   4   2 42178.8 4023.98   2
  -7  -4  -2 37144.1 3888.86   2
  -7  11  -2 47700.6 4064.15   1
 -11   7   2 38027.7 3751.47   1
  -7  -4  -1 1600.82 836.670   2
   7 -11   1 1734.45 965.743   1
 -11   4   1 1398.11 753.105   1
  11  -7  -1 902.654 640.140   1
  11  -4  -1 580.430 458.164   1
  -7  11  -1 680.986 365.120   1
  -4  11  -1 1805.66 848.791   1
 -11   7   1 783.605 506.496   1
 -11   7   1 811.409 565.755   2
   4 -11   1 853.570 464.525   1
 -11   4   1 1884.34 747.205   2
  -7  11   0 488418. 13205.5   1
  11  -7   0 464326. 13616.3   1
  11  -4   0 418116. 12382.9   1
 -11   4   0 438676. 13079.5   1
 -11   7   0 462305. 13362.0   1
   4 -11   0 435803. 13275.8   1
 -11   7   0 451130. 13455.8   2
   4   7   0 473555. 13606.0   1
   7 -11   0 480174. 13755.5   1
 -11   4   0 440045. 12806.9   2
  -7  -4   0 477339. 13840.3   2
  -4  -7   0 450471. 13698.7   2
  -7  -4   1 4730.58 1436.55   2
   7 -11  -1 5759.27 1456.64   1
  -4  -7   1 6855.83 1739.70   2
 -11   7  -1 5641.41 1474.59   1
 -11   4  -1 6356.33 1537.96   1
  11  -7   1 4801.99 1445.38   1
   4   7  -1 6150.79 1566.74   1
  11  -4   1 5685.28 1534.98   1
  -7  -4   1 6086.81 1598.10   1
  -4  -7   1 5074.74 1474.19   1
  -4  11   1 6893.39 1587.26   1
  -7  11   1 5268.77 1347.36   1
 -11   7  -1 6020.78 1516.91   2
 -11   4  -1 7029.15 1651.58   2
   4 -11  -1 6249.68 1488.39   1
   7   4  -1 5723.61 1534.98   1
  11  -4   2 38752.1 3803.74   1
  -7  11   2 33048.3 3528.74   1
 -11   4  -2 33312.4 3621.13   1
 -11   7  -2 31191.7 3501.74   1
  -7  -4   2 35987.4 3720.12   1
  -4  -7   2 42569.0 4050.49   1
   7   4  -2 33778.4 3673.92   1
  -4  11   2 25551.3 3123.17   1
   4 -11  -2 30075.7 3556.04   1
 -11   7  -2 35369.2 3764.18   2
 -11   4  -2 37885.1 3719.15   2
   4   7  -2 35719.0 3747.29   1
   7 -11  -2 41374.6 4018.63   1
  -7  -4   2 38641.8 3837.44   2
  -4  -7   2 35082.3 3719.85   2
  11  -7   2 35535.7 3766.29   1
  -7  -4   3 1301.06 881.151   2
   7 -11  -3 2231.05 971.637   1
  -4  -7   3 1110.18 759.856   2
  -7  11   3 1897.54 847.966   1
  11  -7   3 1235.40 696.291   1
   4   7  -3 1855.27 871.612   1
  11  -4   3 551.606 373.178   1
 -11   7  -3 626.186 364.942   1
  -7  -4   3 1551.91 777.357   1
  -4  -7   3 1622.47 649.582   1
  -4  11   3 612.415 562.260   1
 -11   7  -3 341.205 415.162   2
 -11   4  -3 1428.83 784.869   2
   4 -11  -3-590.100 586.164   1
   7   4  -3 956.056 432.693   1
  -7  11   4 226886. 9334.17   1
  -7  -4   4 212774. 9134.33   1
  -4  -7   4 246021. 9886.09   1
   7   4  -4 232060. 9549.18   1
  -4  11   4 201471. 8888.32   1
 -11   7  -4 264160. 10313.1   2
 -11   4  -4 223655. 9352.06   2
   4   7  -4 233202. 9782.23   1
   7 -11  -4 222468. 9626.63   1
 -11   7  -4 233087. 9465.07   1
  -7  -4   4 207948. 9246.37   2
  11  -7   4 234065. 9640.20   1
  -4  -7   4 236530. 9836.99   2
  -7  11   5 33645.8 3647.52   1
  -7  -4   5 30319.5 3496.52   1
  -4  -7   5 27724.8 3308.26   1
   7   4  -5 32975.0 3696.80   1
  -4  11   5 35481.8 3708.45   1
   4 -11  -5 20666.0 2983.37   1
 -11   7  -5 33801.5 3655.52   2
 -11   7  -5 34257.7 3645.22   1
 -11   4  -5 33654.6 3491.63   2
   4   7  -5 34056.1 3703.09   1
   7 -11  -5 35533.9 3877.95   1
  -7  -4   5 29279.2 3491.60   2
  11  -7   5 30824.1 3528.88   1
  -4  -7   5 29854.3 3442.84   2
   7   4  -6 4858.13 1444.28   1
  -7  -4   6 2817.91 995.025   2
   7 -11  -6 3569.26 1260.16   1
  -4  -7   6 2986.88 1189.44   2
  11  -7   6 3678.52 1210.98   1
   4   7  -6 1936.61 893.644   1
  -7  11   6 3945.23 1201.86   1
  -7  -4   6 4203.09 1296.54   1
  -4  -7   6 5263.80 1334.11   1
 -11   7  -6 3323.64 1267.51   2
 -11   4  -6 4011.79 1254.18   2
   7   4  -7 305.872 397.965   1
  -7  -4   7 1078.19 907.017   2
   7 -11  -7 163.937 241.473   1
  -4  -7   7-511.500 390.326   2
   4   7  -7-619.491 565.224   1
  -7  11   7-74.6826 214.342   1
  -7  -4   7-226.600 281.719   1
  -4  -7   7-91.0512 417.520   1
 -11   7  -7-474.385 265.707   2
 -11   4  -7 571.323 569.424   2
  -4  -7   8 530538. 14919.0   2
  -7  11   8 432540. 13325.5   1
  -7  -4   8 491193. 14054.6   1
  -4  -7   8 518414. 14627.6   1
   7   4  -8 486911. 13847.8   1
 -11   7  -8 517741. 14603.4   2
 -11   4  -8 456551. 14060.7   2
   4   7  -8 502673. 13994.5   1
   7 -11  -8 504752. 15239.3   1
  -7  -4   8 517032. 14652.3   2
  -4  -7   9 17084.4 2614.95   2
  -7  11   9 15197.4 2493.51   1
  -7  -4   9 14174.0 2372.30   1
  -4  -7   9 13970.5 2430.17   1
   7   4  -9 14078.8 2373.50   1
   4   7  -9 18337.1 2630.45   1
 -11   4  -9 12705.3 2240.23   2
  -7  -4   9 16241.6 2632.98   2
  -7  -4  10 12180.5 2263.31   2
  -4  -7  10 10571.6 2030.45   2
   4   7 -10 12649.2 2153.98   1
  -7  -4  10 9661.86 2035.69   1
  -4  -7  10 9917.10 2033.58   1
 -11   4 -10 10874.6 2250.96   2
   7   4 -10 9935.84 1948.43   1
 -11   4 -11 1037.87 549.214   2
  -8  11 -10 136155. 7619.17   1
   8 -11  10 156227. 8174.49   1
 -11   3  10 136841. 7929.96   2
  11  -8  -9 16109.2 2690.58   1
  -3  11  -9 14359.9 2406.32   1
 -11   3   9 14247.1 2402.69   1
  11  -3  -9 14429.9 2361.55   1
   3 -11   9 18614.4 2744.31   1
  -8  11  -9 15671.7 2551.30   1
   8 -11   9 12919.7 2397.89   1
 -11   3   9 16907.8 2755.70   2
 -11   8   9 15489.0 2468.35   1
  11  -8  -8 102637. 6426.94   1
 -11   8   8 103878. 6449.54   1
 -11   3   8 106536. 6588.34   1
  -3  11  -8 98195.3 6152.84   1
  11  -3  -8 96887.5 6362.95   1
   3 -11   8 95411.1 6222.88   1
  -8  11  -8 111988. 6658.68   1
   8 -11   8 105098. 6676.27   1
 -11   3   8 107116. 6910.89   2
  11  -8  -7 88581.8 5817.39   1
 -11   8   7 84426.7 5735.84   1
 -11   3   7 80560.6 5745.09   1
  11  -3  -7 77075.5 5538.86   1
  -3  11  -7 89932.9 5898.11   1
   3 -11   7 85419.9 5780.47   1
   8 -11   7 83444.2 5788.67   1
  -8  11  -7 94034.7 6109.56   1
 -11   3   7 80298.8 5880.74   2
  11  -8  -6 269241. 9953.90   1
 -11   3   6 216935. 9438.59   1
  11  -3  -6 245982. 9793.94   1
  -3  11  -6 208949. 9097.27   1
   3 -11   6 278851. 10533.0   1
   8 -11   6 272660. 10740.1   1
 -11   8   6 245309. 10392.1   2
  -8  11  -6 267605. 10129.8   1
 -11   3   6 261650. 10442.8   2
 -11   8   6 260453. 9869.28   1
  11  -8  -5 171888. 7949.38   1
 -11   3   5 149829. 7679.49   1
  11  -3  -5 169500. 8101.84   1
  -3  11  -5 160962. 7963.30   1
   3 -11   5 185243. 8502.56   1
 -11   8   5 146155. 7916.01   2
   8 -11   5 168981. 8353.45   1
  -8  11  -5 158502. 7708.68   1
 -11   3   5 170684. 8421.38   2
 -11   8   5 165978. 7878.61   1
   8 -11   4 3622.71 1296.00   1
  -3  11  -4 3480.07 1146.64   1
  11  -8  -4 2998.66 1139.24   1
 -11   3   4 2358.25 995.039   1
  -8  11  -4 2715.36 910.925   1
  11  -3  -4 4790.37 1359.94   1
 -11   8   4 3223.31 1146.79   1
   3 -11   4 3387.58 1148.93   1
 -11   8   4 2545.95 1079.89   2
 -11   3   4 4484.32 1358.22   2
  -8  -3  -4 2565.24 1054.02   2
  11  -8  -3 157791. 7784.04   1
 -11   3   3 119041. 6893.05   1
  11  -3  -3 145641. 7523.00   1
  -3  11  -3 149120. 7599.87   1
 -11   8   3 139948. 7290.60   1
   3 -11   3 114210. 6698.39   1
 -11   8   3 136369. 7546.56   2
   8 -11   3 161740. 7867.36   1
 -11   3   3 138850. 7489.82   2
  -8  -3  -3 112741. 6970.14   2
  -8  11  -3 146084. 7188.44   1
  11  -8  -2 124862. 7034.19   1
  -8  11  -2 129632. 6809.23   1
 -11   3   2 106741. 6461.35   1
  11  -3  -2 120849. 6755.90   1
 -11   8   2 123328. 6905.79   1
  -3  11  -2 110226. 6448.68   1
   3 -11   2 121604. 6800.40   1
 -11   8   2 116995. 6987.27   2
   8 -11   2 109251. 6476.79   1
 -11   3   2 108707. 6552.62   2
  -8  -3  -2 120186. 7075.14   2
  -8  11  -1 44409.1 4083.92   1
  11  -3  -1 31865.8 3548.61   1
 -11   3   1 32124.2 3516.13   1
 -11   8   1 37366.4 3768.10   1
  -3  11  -1 32632.1 3560.60   1
   3 -11   1 34515.8 3630.51   1
 -11   8   1 31855.7 3675.38   2
 -11   3   1 34231.3 3662.54   2
   8 -11   1 38131.6 3926.91   1
  -8  -3  -1 32126.8 3562.72   2
  11  -8  -1 42394.2 4025.85   1
  -8  -3   0 6223.96 1639.99   2
   8 -11   0 6009.32 1556.23   1
  -8  11   0 5883.24 1524.89   1
  11  -8   0 5457.04 1461.73   1
 -11   3   0 3556.42 1168.94   1
  -3  11   0 5640.08 1420.07   1
   3   8   0 5572.04 1470.75   1
  11  -3   0 6424.38 1656.75   1
 -11   8   0 7912.02 1706.27   1
 -11   8   0 5015.81 1406.44   2
   3 -11   0 5470.78 1461.64   1
 -11   3   0 6987.06 1655.94   2
  -8  -3   1 8367.77 1752.37   2
   8 -11  -1 9081.07 1780.27   1
  -3  -8   1 5909.00 1527.18   2
  11  -8   1 6241.62 1640.49   1
  -8  11   1 7336.96 1635.84   1
 -11   3  -1 6752.64 1692.00   1
   3   8  -1 7337.96 1740.56   1
  -3  11   1 7587.81 1746.45   1
  11  -3   1 5711.35 1478.30   1
 -11   8  -1 7692.88 1727.51   1
  -3  -8   1 7550.36 1668.45   1
   3 -11  -1 11752.2 2285.42   1
 -11   8  -1 7666.83 1835.65   2
   8   3  -1 7457.08 1804.70   1
 -11   3  -1 7146.19 1629.52   2
  -8  11   2 170830. 8020.93   1
  -8  -3   2 138492. 7596.92   1
  -3  -8   2 143767. 7567.48   1
   8   3  -2 147873. 7734.44   1
  -3  11   2 141010. 7472.52   1
   3 -11  -2 171079. 8467.68   1
 -11   8  -2 162160. 8140.87   2
 -11   3  -2 163736. 7888.46   2
   8 -11  -2 181378. 8653.44   1
   3   8  -2 148095. 7678.91   1
  -8  -3   2 166245. 8142.74   2
 -11   8  -2 145134. 7419.01   1
  11  -8   2 152325. 7779.04   1
  -3  -8   2 158324. 8193.74   2
  -8  -3   3 11317.5 2156.42   2
   8 -11  -3 12338.2 2133.60   1
  11  -8   3 11533.0 2146.51   1
  -8  11   3 12722.5 2138.21   1
  -3  -8   3 12402.7 2249.22   1
  -8  -3   3 9914.10 2009.93   1
   8   3  -3 11696.8 2203.62   1
  -3  11   3 15204.1 2463.79   1
   3 -11  -3 15447.9 2536.45   1
 -11   8  -3 12919.4 2325.36   2
 -11   3  -3 13645.6 2316.44   2
 -11   8  -3 12139.7 2170.79   1
   3   8  -3 13227.1 2416.47   1
  -3  -8   3 11346.8 2265.52   2
  -3  -8   4 135085. 7579.13   2
  -8  -3   4 120122. 6956.75   1
  -8  11   4 155612. 7589.96   1
  -3  -8   4 151172. 7731.35   1
   8   3  -4 137054. 7448.74   1
  -3  11   4 113785. 6756.35   1
   3 -11  -4 132911. 7597.02   1
 -11   8  -4 135444. 7265.10   1
 -11   8  -4 124139. 7234.31   2
 -11   3  -4 141153. 7488.05   2
   8 -11  -4 107352. 6621.73   1
   3   8  -4 126636. 7163.30   1
  -8  -3   4 146982. 7699.21   2
  11  -8   4 148065. 7617.44   1
  -3  -8   5 34314.0 3723.71   2
  -8  -3   5 36916.2 3857.97   1
  -8  11   5 36752.0 3730.64   1
  -3  -8   5 36121.4 3827.06   1
   8   3  -5 35835.7 3860.03   1
 -11   8  -5 35591.4 3718.71   1
 -11   8  -5 45922.9 4389.82   2
 -11   3  -5 38666.0 3949.67   2
   3   8  -5 36240.8 3944.15   1
   8 -11  -5 41243.8 4059.60   1
  11  -8   5 35927.1 3767.47   1
  -8  -3   5 33888.3 3727.27   2
  -3  -8   6 320158. 11590.8   2
  -8  -3   6 305078. 11217.8   1
  -8  11   6 335481. 11316.4   1
 -11   8  -6 265555. 10201.7   1
  -3  -8   6 278005. 10594.8   1
   8   3  -6 306073. 11210.9   1
 -11   8  -6 279284. 10654.6   2
 -11   3  -6 275537. 10576.7   2
   3   8  -6 306138. 11253.9   1
   8 -11  -6 358925. 12234.8   1
  11  -8   6 280620. 10812.5   1
  -8  -3   6 276962. 10530.0   2
  -3  -8   7 114926. 6858.63   2
  -8  -3   7 111146. 6781.74   1
  -3  -8   7 122993. 7125.39   1
  -8  11   7 81950.4 5582.67   1
   8   3  -7 138062. 7539.12   1
 -11   3  -7 127071. 7195.17   2
   3   8  -7 113688. 6871.32   1
  11  -8   7 111384. 6971.76   1
   8 -11  -7 107933. 6780.70   1
  -8  -3   7 143451. 7590.79   2
  -8  -3   8-184.498 391.553   2
  -3  -8   8 215.768 265.350   2
   8 -11  -8-364.700 344.804   1
   3   8  -8-4.94533 373.838   1
  -8  -3   8-216.012 400.596   1
  -8  11   8 649.030 666.895   1
  -3  -8   8-310.795 594.195   1
 -11   3  -8-596.703 598.988   2
   8   3  -8 23.5841 229.905   1
  -3  -8   9 134571. 7415.62   2
  -8  -3   9 118271. 6984.68   1
  -3  -8   9 97975.5 6370.59   1
  -8  11   9 86795.0 5951.94   1
   8   3  -9 126651. 7208.45   1
 -11   3  -9 85704.1 6251.07   2
   3   8  -9 114043. 6822.59   1
   8 -11  -9 86072.5 6246.50   1
  -8  -3   9 107029. 6820.97   2
  -8  11  10 43853.2 4304.44   1
 -11   3 -10 39631.3 4294.78   2
  -9  11  -9 2352.31 987.405   1
   9 -11   9 4118.27 1246.83   1
   2 -11   8 7118.92 1843.15   2
  11  -9  -8 8330.70 1956.84   1
 -11   2   8 9764.90 1891.96   1
 -11   9   8 8662.93 1897.80   1
  11  -2  -8 6909.32 1872.78   1
   2 -11   8 8503.19 1878.02   1
  -2  11  -8 9289.45 1890.06   1
  -9  11  -8 8773.07 1971.78   1
   9 -11   8 9592.52 2078.75   1
 -11   2   8 10453.3 2178.94   2
  11  -9  -7 28413.3 3368.75   1
   2 -11   7 25988.7 3506.14   2
  -2  11  -7 26188.2 3201.70   1
 -11   2   7 29443.1 3469.39   1
  11  -2  -7 25460.6 3319.63   1
 -11   9   7 32513.2 3558.26   1
   2 -11   7 29723.3 3420.53   1
   9 -11   7 29158.0 3472.62   1
  -9  11  -7 27678.1 3292.44   1
 -11   2   7 24307.4 3214.06   2
  11  -9  -6 219616. 9600.95   1
  -2  11  -6 225087. 9374.13   1
 -11   2   6 205194. 9164.15   1
  11  -2  -6 210317. 9288.49   1
 -11   9   6 202600. 8916.77   1
   2 -11   6 205695. 9238.22   1
   9 -11   6 221181. 9698.45   1
 -11   2   6 210902. 9391.05   2
  -9  11  -6 191538. 8626.38   1
  11  -9  -5 100973. 6374.79   1
   2 -11   5 49785.2 4805.09   2
 -11   2   5 86694.0 5992.65   1
  -2  11  -5 83229.5 5759.55   1
  11  -2  -5 82097.6 5852.83   1
 -11   9   5 99337.6 6171.43   1
   2 -11   5 105702. 6500.48   1
   9 -11   5 96041.7 6239.16   1
  -9  -2  -5 70696.1 5560.40   2
 -11   2   5 103915. 6613.06   2
  -9  11  -5 96182.0 5929.45   1
   2 -11   4 9275.20 2036.41   2
 -11   2   4 14708.1 2520.63   1
  -2  11  -4 14850.8 2403.59   1
 -11   9   4 13149.4 2311.91   1
  11  -9  -4 11421.0 2150.71   1
  11  -2  -4 16234.8 2575.58   1
  -9  11  -4 12694.2 2085.08   1
 -11   9   4 13050.5 2455.78   2
   2 -11   4 12358.4 2167.15   1
   9 -11   4 13597.9 2331.92   1
  -9  -2  -4 13027.8 2370.55   2
 -11   2   4 14490.2 2601.50   2
  -9  11  -3 132939. 7133.85   1
 -11   9   3 139517. 7389.08   1
 -11   2   3 111082. 6857.82   1
  11  -2  -3 127792. 7249.32   1
  -2  11  -3 123236. 7083.71   1
   2 -11   3 141812. 7612.59   1
 -11   9   3 111152. 7248.34   2
   9 -11   3 146157. 7769.67   1
 -11   2   3 119985. 7098.99   2
  -9  -2  -3 119678. 7242.47   2
  11  -9  -3 137027. 7334.18   1
 -11   9   2 93639.9 5928.54   1
  -9  11  -2 91235.4 5909.80   1
 -11   2   2 77508.5 5662.04   1
  11  -2  -2 74712.9 5562.11   1
  -2  11  -2 79961.9 5637.48   1
   2 -11   2 95447.9 6246.03   1
 -11   9   2 80323.1 5963.48   2
   9 -11   2 84235.3 5872.76   1
 -11   2   2 96965.0 6266.87   2
  -9  -2  -2 80394.4 5855.54   2
  11  -9  -2 91626.3 5904.94   1
 -11   9   1 72475.9 5284.73   1
 -11   2   1 62388.7 5072.63   1
  -9  11  -1 62815.4 4923.55   1
  11  -2  -1 63238.7 5105.89   1
  -2  11  -1 72219.6 5352.57   1
   2 -11   1 90390.2 6154.31   1
 -11   9   1 55856.5 5259.22   2
 -11   2   1 79912.3 5508.21   2
   9 -11   1 67559.3 5252.27   1
  -9  -2  -1 59244.5 5019.64   2
  11  -9  -1 70489.2 5252.56   1
   9 -11   0 8174.90 1760.30   1
  -2  11   0 7632.04 1706.26   1
 -11   9   0 7064.42 1620.31   1
  11  -9   0 6904.05 1638.20   1
 -11   2   0 4920.80 1496.65   1
  -9  11   0 6176.58 1458.41   1
  11  -2   0 6090.19 1564.21   1
   2   9   0 5923.12 1549.98   1
 -11   9   0 4796.25 1397.58   2
   2 -11   0 3467.80 1233.67   1
 -11   2   0 5042.67 1474.55   2
  -9  -2   0 4662.45 1408.05   2
   9 -11  -1 1929.80 1022.54   1
  -2  11   1 989.315 857.178   1
  11  -9   1 770.311 606.741   1
  -9  11   1 1260.82 810.237   1
   2   9  -1 1131.29 844.431   1
  -2  -9   1 1145.33 686.952   1
 -11   9  -1 696.141 328.339   2
   2 -11  -1 755.579 700.964   1
 -11   2  -1 1644.33 827.796   2
 -11   9  -1 2575.39 973.775   1
  -9  -2   1 972.338 662.654   2
  -2  -9   2 287174. 11162.1   2
  -9  -2   2 207965. 9338.57   1
  -9  11   2 248402. 9527.16   1
  -2  11   2 197423. 9094.28   1
   9   2  -2 179530. 8911.48   1
  -2  -9   2 196004. 9067.51   1
   2 -11  -2 241565. 10119.8   1
 -11   9  -2 227372. 9288.45   1
 -11   9  -2 261339. 10654.4   2
 -11   2  -2 208843. 9012.39   2
   9 -11  -2 238783. 9699.05   1
  -9  -2   2 246778. 10090.7   2
  11  -9   2 234721. 9566.27   1
   2   9  -2 203464. 9091.29   1
  -2  -9   3 31018.6 3697.92   2
  -9  -2   3 29307.5 3510.66   1
  -2  11   3 34981.5 3824.02   1
   9   2  -3 35973.0 4158.10   1
  -9  11   3 38003.0 3709.93   1
  -2  -9   3 32171.2 3638.14   1
 -11   9  -3 38019.0 3788.72   1
 -11   9  -3 33546.8 3765.13   2
 -11   2  -3 40035.3 3959.04   2
   9 -11  -3 42418.8 4120.48   1
  -9  -2   3 37743.9 3950.02   2
  11  -9   3 36857.5 3754.41   1
   2   9  -3 39603.8 4011.01   1
  -2  -9   4 50971.6 4616.42   2
  -9  -2   4 46376.3 4450.27   1
   9   2  -4 55395.0 4948.09   1
  -9  11   4 65970.8 4921.26   1
  -2  -9   4 67594.5 5193.26   1
 -11   9  -4 55997.6 4608.83   1
 -11   2  -4 72614.2 5365.20   2
   9 -11  -4 82736.5 5745.63   1
  -9  -2   4 81328.6 5760.05   2
  11  -9   4 61275.9 5015.96   1
   2   9  -4 60530.3 4960.31   1
  -2  -9   5 133942. 7727.08   2
  -9  -2   5 135537. 7462.76   1
 -11   9  -5 129765. 7187.90   1
   9   2  -5 166453. 8477.25   1
  -2  -9   5 166983. 8308.23   1
  -9  11   5 212587. 8972.18   1
 -11   2  -5 143866. 7746.04   2
  11  -9   5 155029. 8061.56   1
   9 -11  -5 177676. 8441.41   1
  -9  -2   5 154480. 7922.98   2
   2   9  -5 161812. 8079.92   1
  -2  -9   6 224839. 9815.07   2
 -11   9  -6 197898. 9026.70   1
  -9  -2   6 193459. 8868.41   1
   9   2  -6 221516. 9615.13   1
  -2  -9   6 177878. 8514.60   1
  -9  11   6 176032. 8320.21   1
 -11   2  -6 222603. 9631.15   2
  11  -9   6 204996. 9504.45   1
   9 -11  -6 249457. 10163.7   1
  -9  -2   6 217088. 9449.72   2
   2   9  -6 211554. 9194.34   1
  -2  -9   7 21286.9 3018.39   2
 -11   9  -7 15243.9 2579.68   1
  -9  -2   7 18999.5 2768.38   1
   9   2  -7 20774.0 2965.38   1
  -2  -9   7 21850.8 3033.15   1
  -9  11   7 20129.6 2732.59   1
 -11   2  -7 16551.5 2633.77   2
  11  -9   7 16367.2 2659.10   1
  -9  -2   7 21996.5 3021.36   2
   2   9  -7 22827.2 3028.85   1
   9 -11  -7 20636.1 2985.69   1
  -9  -2   8 890.924 567.731   2
  11  -9   8 946.042 758.199   1
  -2  -9   8 675.138 275.074   2
   9 -11  -8 1238.24 711.701   1
  -9  -2   8 130.174 271.536   1
   2   9  -8 1335.35 560.379   1
  -2  -9   8 1380.69 912.010   1
  -9  11   8 726.978 508.746   1
   9   2  -8 589.525 400.034   1
 -11   2  -8 338.229 463.477   2
  -9  11   9 30858.6 3524.03   1
 -11   2  -9 24846.1 3311.30   2
   9 -11  -9 25650.1 3358.14   1
  -9  11  10 34280.6 3828.30   1
   9 -11 -10 33515.5 3822.99   1
  10 -11   7 9135.25 1871.45   1
   1 -11   7 5890.83 1587.83   2
 -10  11  -7 8647.34 1981.95   1
  10 -11   6 671.341 476.715   1
   1 -11   6 1050.85 884.677   2
  11 -10  -6 1910.31 906.939   1
 -11   1   6 912.557 679.960   1
 -10  11  -6 1159.28 511.297   1
 -11  10   6 1189.68 666.113   1
  11  -1  -6 1201.38 777.105   1
   1 -11   6 775.673 725.443   1
  -1  11  -6 877.851 557.487   1
 -10  -1  -6 890.637 705.517   2
 -11   1   6 1189.79 600.931   2
  10 -11   5 6475.59 1439.01   1
   1 -11   5 2487.09 1009.90   2
  11 -10  -5 4733.01 1488.12   1
 -11   1   5 7954.29 1782.62   1
 -11  10   5 6964.56 1686.41   1
  11  -1  -5 7313.68 1700.56   1
 -10  11  -5 7312.52 1690.44   1
   1 -11   5 7173.74 1717.57   1
  -1  11  -5 6407.65 1541.14   1
 -10  -1  -5 6128.99 1608.59   2
 -11   1   5 5404.07 1501.23   2
   1 -11   4 105867. 7110.19   2
 -10  11  -4 152783. 7834.58   1
  -1  11  -4 168469. 8266.24   1
 -11   1   4 142451. 7748.20   1
  11  -1  -4 158444. 8213.57   1
   1 -11   4 187522. 8820.41   1
 -10  -1  -4 160658. 8353.93   2
  10 -11   4 202210. 9215.07   1
 -11   1   4 179204. 8635.96   2
  11 -10  -4 160462. 8092.26   1
 -11  10   4 174459. 8227.97   1
  10 -11   3 5537.60 1585.19   1
 -11  10   3 7537.41 1594.49   1
  11 -10  -3 5846.95 1546.36   1
 -10  11  -3 6408.36 1574.87   1
 -11   1   3 3070.52 1214.95   1
  11  -1  -3 6072.82 1629.50   1
   1 -11   3 3758.06 1259.04   1
 -11  10   3 3917.99 1381.88   2
  -1  11  -3 5670.29 1567.71   1
 -10  -1  -3 6337.18 1708.96   2
 -11   1   3 5791.31 1502.99   2
 -11  10   2 689.382 828.442   1
  10 -11   2 636.939 703.389   1
  11 -10  -2-730.045 925.187   1
 -10  11  -2 989.772 861.171   1
 -11   1   2 315.709 543.422   1
  11  -1  -2-667.391 656.143   1
   1 -11   2 768.659 656.920   1
  -1  11  -2 471.559 522.970   1
 -10  -1  -2 313.486 287.184   2
 -11   1   2 1469.47 837.305   2
  10 -11   1 2709.23 922.172   1
  11 -10  -1 2113.77 882.539   1
 -10  11  -1 3476.67 1189.57   1
  11  -1  -1 1210.46 724.699   1
   1 -11   1 1908.89 854.013   1
 -11  10   1 2909.36 1011.75   1
  -1  11  -1 2043.45 927.785   1
 -11   1   1 1829.33 966.431   2
 -10  -1  -1 1648.26 952.312   2
   1  10   0 407623. 13297.0   1
  -1  11   0 404603. 12881.9   1
 -10  11   0 391268. 12167.0   1
 -11  10   0 435480. 12863.2   1
 -11   1   0 384338. 12593.6   2
 -10  -1   0 420493. 13426.3   2
  10 -11   0 394416. 12664.2   1
  11 -10   0 400901. 12557.6   1
  10 -11  -1 1685.30 862.836   1
  11 -10   1 1046.68 524.253   1
 -10  11   1 892.655 663.405   1
   1  10  -1 1569.24 845.148   1
  -1 -10   1 1251.70 718.644   1
 -11  10  -1 2068.92 852.323   1
   1 -11  -1 2361.50 1151.82   1
 -11   1  -1 1957.54 943.923   2
  -1  11   1 1081.70 741.074   1
 -10  -1   1 2268.50 1023.09   2
  10 -11  -2 1224.16 458.769   1
  11 -10   2 1720.42 983.292   1
 -10  11   2 1398.57 878.545   1
 -11  10  -2 1126.03 735.015   1
   1  10  -2 2198.36 1029.26   1
  10   1  -2 1058.94 439.069   1
  -1 -10   2 1148.21 784.255   1
 -11   1  -2 1567.59 927.435   2
 -10  -1   2 1860.77 969.261   2
  11 -10   3 405.966 467.296   1
  10 -11  -3-535.632 707.963   1
 -10  -1   3 252.923 481.582   1
 -11  10  -3 321.574 431.824   1
   1  10  -3 94.2702 197.748   1
 -10  11   3 212.342 224.146   1
  -1 -10   3 698.098 602.465   1
  10   1  -3-617.254 529.945   1
 -11   1  -3 503.751 538.822   2
 -10  -1   3 68.7665 549.627   2
  -1 -10   4 182866. 9110.99   2
 -10  -1   4 192729. 9067.76   1
 -11  10  -4 268509. 10427.4   1
  10   1  -4 175127. 9187.63   1
  -1 -10   4 248934. 10139.8   1
 -10  11   4 274079. 10149.6   1
 -11   1  -4 235952. 9961.94   2
  11 -10   4 258206. 10473.5   1
 -10  -1   4 302692. 11233.5   2
  10 -11  -4 221739. 9491.20   1
   1  10  -4 255917. 10293.5   1
 -10  -1   5 4165.64 1316.02   2
  11 -10   5 5234.31 1525.92   1
  -1 -10   5 4481.16 1394.26   2
  10 -11  -5 5377.65 1485.87   1
 -11  10  -5 6550.53 1615.58   1
 -10  -1   5 3489.08 1183.97   1
   1  10  -5 4760.79 1325.38   1
  -1 -10   5 4484.53 1366.22   1
  10   1  -5 5203.67 1641.72   1
 -10  11   5 5447.45 1354.77   1
 -11   1  -5 3682.64 1261.95   2
  11 -10   6 9006.02 2007.13   1
 -11  10  -6 7836.26 1925.41   1
  -1 -10   6 7737.17 1711.43   2
  10 -11  -6 6934.93 1645.29   1
 -10  -1   6 6615.76 1697.39   1
   1  10  -6 8269.07 1801.27   1
  -1 -10   6 7893.57 1859.50   1
  10   1  -6 6254.43 1794.30   1
 -10  11   6 9894.52 1878.26   1
 -11   1  -6 7539.45 1791.58   2
  11 -10   7 3337.55 1194.56   1
  -1 -10   7 4926.27 1386.59   2
 -10  -1   7 4715.60 1455.17   1
  10   1  -7 3534.39 1221.88   1
 -11  10  -7 4772.91 1464.69   1
 -11   1  -7 4699.77 1536.95   2
  11 -10   8 118312. 7304.23   1
   0  11   0 17545.4 2778.17   1
 -11   0   0 21689.1 3103.29   2
  11 -11   0 26223.9 3339.85   1
   0  11  -1 16067.1 2617.09   1
 -11  11  -1 16320.7 2544.04   1
   0 -11   1 11934.3 2315.97   1
 -11   0  -1 13791.8 2423.06   2
 -11   0   1 15491.3 2562.09   2
  11 -11   1 16628.1 2638.91   1
   0  11  -2 119045. 7249.40   1
 -11   0  -2 112575. 6953.52   2
  11 -11   2 120623. 7066.81   1
   0  11  -3 58647.4 4991.12   1
 -11   0   3 55450.3 4982.96   1
  11   0  -3 62628.2 5331.06   1
   0 -11   3 56655.7 5021.05   1
 -11   0  -3 55963.5 4950.16   2
   0  11  -4 27776.5 3410.55   1
 -11   0   4 20498.3 3088.47   1
  11   0  -4 24243.9 3303.54   1
   0 -11   4 21288.1 2982.34   1
 -11   0  -4 18795.8 2871.39   2
 -11   0   5 67917.0 5559.82   1
 -11   0  -5 60113.8 5070.26   2
 -12   6   8 265760. 11055.5   2
 -12   6   7 118.417 264.815   2
  12  -6  -6 18186.6 2562.36   1
 -12   6   6 17573.8 2680.92   1
  -6  12  -6 19811.4 2785.97   1
   6 -12   6 19323.8 2733.97   1
 -12   6   6 16592.4 2580.38   2
 -12   6   5 478.122 681.077   1
  12  -6  -5-362.702 522.286   1
  -6  12  -5-843.899 695.778   1
 -12   6   5-288.043 303.405   2
   6 -12   5 357.029 589.772   1
  12  -6  -4 274920. 10377.2   1
 -12   6   4 280990. 10665.9   1
  -6  12  -4 290238. 10662.6   1
   6 -12   4 287199. 11015.9   1
 -12   6   4 287768. 11034.7   2
 -12   6   3-163.592 409.871   1
  -6  12  -3 255.567 194.874   1
 -12   6   3-324.185 215.513   2
   6 -12   3-148.412 311.052   1
 -12   6   2 375.927 279.435   1
  12  -6  -2 658.579 502.840   1
  -6  12  -2 1102.77 796.871   1
 -12   6   2 1566.10 824.884   2
   6 -12   2 522.052 399.599   1
 -12   6   1 148.562 372.653   1
  12  -6  -1 292.598 449.170   1
 -12   6   1 80.0003 280.149   2
  -6  12  -1 37.7916 420.124   1
   6 -12   1 374.293 300.087   1
  12  -6   0 171092. 8236.94   1
   6 -12   0 181027. 8740.17   1
  -6  12   0 180238. 8456.18   1
 -12   6   0 181077. 8524.06   2
  -6  -6   0 122562. 7348.93   2
 -12   6   0 121802. 7003.72   1
  -6  -6   1 79.1516 463.156   2
  12  -6   1-301.856 478.802   1
 -12   6  -1-885.400 933.724   2
 -12   6  -1 369.751 472.085   1
   6 -12  -1 616.731 731.078   1
  -6  12   1-481.472 651.423   1
  -6  -6   2 3736.02 1335.22   2
  -6  12   2 3484.94 1174.32   1
   6   6  -2 4698.64 1327.50   1
  12  -6   2 2866.01 1181.57   1
 -12   6  -2 2125.46 1056.62   1
 -12   6  -2 3609.65 1165.48   2
   6 -12  -2 5208.52 1489.27   1
  -6  -6   3 118.183 475.612   2
   6   6  -3 30.8690 356.834   1
  -6  12   3 11.9819 283.321   1
  12  -6   3 233.705 363.522   1
  -6  -6   3-415.256 535.469   1
 -12   6  -3 1428.32 1008.90   2
 -12   6  -3 681.339 757.158   1
   6 -12  -3-13.3333 309.950   1
  -6  -6   4 412174. 13425.5   1
   6   6  -4 425916. 13471.3   1
   6 -12  -4 339349. 12337.6   1
 -12   6  -4 427709. 13441.2   2
  -6  -6   4 353973. 12399.9   2
  -6  -6   5-758.743 762.748   2
   6   6  -5 29.4264 226.524   1
  -6  12   5-238.522 264.887   1
  -6  -6   5-526.787 420.823   1
 -12   6  -5-341.708 541.358   2
   6 -12  -5-33.6658 210.600   1
  -6  -6   6 29400.9 3575.65   1
   6   6  -6 37529.9 3995.67   1
 -12   6  -6 42435.5 4187.34   2
   6 -12  -6 31677.5 3902.01   1
  -6  12   6 37181.5 3969.55   1
  -6  -6   6 43911.2 4397.16   2
  -6  -6   7 427.952 553.993   2
   6   6  -7 146.639 277.131   1
  -6  -6   7-299.396 479.756   1
 -12   6  -7 388.116 436.158   2
 -12   5   8 17098.3 2772.09   2
 -12   7   7 56641.0 5003.30   2
 -12   5   7 55414.9 4912.26   2
  12  -7  -6 351133. 11663.7   1
 -12   7   6 349450. 11899.8   1
  12  -5  -6 363701. 11715.5   1
 -12   5   6 350089. 11801.4   1
  -5  12  -6 329065. 11437.4   1
  -7  12  -6 353206. 11798.8   1
   5 -12   6 340064. 11733.8   1
   7 -12   6 410850. 13094.5   1
 -12   7   6 290769. 11459.4   2
 -12   5   6 338264. 12020.8   2
 -12   7   5 13060.3 2271.03   1
  12  -5  -5 13408.1 2198.55   1
 -12   5   5 11285.6 2118.90   1
  12  -7  -5 13393.4 2231.59   1
  -5  12  -5 13476.0 2213.23   1
   5 -12   5 16396.8 2582.74   1
   7 -12   5 15252.5 2523.88   1
  -7  12  -5 11024.6 2098.89   1
 -12   7   5 11620.8 2259.51   2
 -12   5   5 11859.6 2200.38   2
 -12   5   4 6713.79 1715.51   1
  12  -7  -4 7557.36 1621.88   1
  -5  12  -4 10198.7 2000.78   1
  12  -5  -4 8346.74 1787.11   1
  -7  12  -4 8696.77 1816.12   1
 -12   7   4 6685.89 1610.16   2
   5 -12   4 8908.93 1841.90   1
 -12   5   4 7174.69 1725.27   2
   7 -12   4 6719.12 1550.14   1
  12  -7  -3 13485.0 2337.49   1
 -12   7   3 12846.6 2348.02   1
  12  -5  -3 16620.9 2572.76   1
 -12   5   3 12724.9 2259.70   1
  -5  12  -3 16426.4 2553.89   1
   5 -12   3 11918.7 2263.25   1
   7 -12   3 14918.7 2385.95   1
  -7  12  -3 13629.2 2310.03   1
 -12   7   3 13776.2 2449.23   2
 -12   5   3 13949.3 2373.46   2
  12  -7  -2 63763.3 4913.17   1
  12  -5  -2 65615.7 5095.44   1
 -12   5   2 57027.8 4835.38   1
  -5  12  -2 62554.7 5005.43   1
   7 -12   2 74861.9 5630.14   1
 -12   7   2 60509.9 5062.42   2
  -7  12  -2 73179.3 5340.34   1
 -12   5   2 61703.2 4965.73   2
 -12   7   2 69058.8 5255.24   1
  12  -7  -1 116742. 6698.36   1
  12  -5  -1 109701. 6481.62   1
 -12   5   1 97249.4 6325.73   1
  -5  12  -1 101976. 6420.70   1
   5 -12   1 148783. 7949.61   1
 -12   7   1 118599. 6816.77   1
   7 -12   1 139447. 7668.44   1
 -12   7   1 107637. 6903.51   2
 -12   5   1 114292. 6840.47   2
  -7  12  -1 136036. 7166.81   1
  -7  -5  -1 108664. 6881.81   2
  12  -7   0 29310.5 3490.00   1
  12  -5   0 28140.3 3321.60   1
 -12   5   0 19282.2 2885.19   1
 -12   7   0 28659.1 3254.02   1
  -5  12   0 30872.0 3491.37   1
   5 -12   0 15912.2 2662.31   1
   7 -12   0 31214.9 3675.50   1
 -12   7   0 29317.1 3517.15   2
 -12   5   0 31084.1 3574.63   2
  -7  12   0 30862.9 3401.92   1
  -7  -5   0 20938.5 3109.02   2
  12  -7   1 27344.5 3432.96   1
  12  -5   1 34150.4 3721.93   1
 -12   5  -1 19915.1 2901.68   1
 -12   7  -1 27280.2 3349.35   1
  -5  12   1 36120.9 3749.84   1
   5 -12  -1 36952.9 4027.02   1
 -12   7  -1 37807.4 3981.11   2
   7 -12  -1 39259.6 4043.24   1
 -12   5  -1 32805.6 3606.21   2
  -7  12   1 34475.1 3661.39   1
  -7  -5   1 31398.3 3637.98   2
  -5  -7   1 27553.6 3586.88   2
  12  -5   2 145100. 7723.03   1
 -12   7  -2 130302. 7318.20   1
  -5  12   2 175568. 8474.07   1
   5   7  -2 137127. 7621.57   1
   5 -12  -2 189355. 9119.15   1
 -12   7  -2 145889. 7752.64   2
 -12   5  -2 162405. 7970.76   2
   7 -12  -2 140368. 7803.73   1
 -12   5  -2 130032. 7339.22   1
  -7  -5   2 144454. 7821.23   2
  -5  -7   2 118089. 7297.27   2
  -7  12   2 174071. 8188.52   1
  12  -7   2 160898. 8224.21   1
   7   5  -3 1386.95 670.227   1
   7 -12  -3 3114.17 1264.18   1
  -7  -5   3 1082.18 582.504   2
  -5  -7   3 1428.76 855.546   2
   5   7  -3 1310.29 801.368   1
  12  -7   3 2102.24 1032.57   1
 -12   7  -3 853.602 486.168   1
  -7  -5   3 903.684 724.590   1
  -7  12   3 945.865 620.227   1
  -5  -7   3 752.377 581.863   1
  -5  12   3 1579.58 660.432   1
 -12   7  -3 754.308 334.209   2
 -12   5  -3 2431.87 970.368   2
   5 -12  -3 879.521 692.991   1
   7   5  -4 3478.13 1271.50   1
   7 -12  -4 4992.23 1455.55   1
  -7  -5   4 3341.88 1197.47   2
  -5  -7   4 1817.66 959.796   2
   5   7  -4 2782.05 1147.09   1
 -12   7  -4 2637.60 1000.39   1
  12  -7   4 3301.27 1110.36   1
  -7  -5   4 1345.43 687.838   1
  -5  -7   4 2568.83 1063.82   1
  -7  12   4 3480.15 1151.13   1
 -12   7  -4 2954.07 1108.95   2
 -12   5  -4 4686.59 1425.23   2
  -5  12   4 3973.67 1344.75   1
   5 -12  -4 3045.98 1151.61   1
  -7  12   5 84778.2 5847.88   1
  -7  -5   5 89786.0 6220.63   1
  -5  -7   5 103261. 6815.00   1
   7   5  -5 115605. 7048.52   1
   5   7  -5 122531. 7263.81   1
  -5  12   5 116244. 7077.62   1
   5 -12  -5 142875. 8068.73   1
 -12   7  -5 114260. 6970.58   2
 -12   5  -5 118219. 6940.77   2
   7 -12  -5 122649. 7453.82   1
  -7  -5   5 117990. 7158.75   2
  -5  -7   5 118320. 7173.85   2
  -7  12   6 193459. 8911.70   1
  -7  -5   6 195925. 9249.13   1
  -5  -7   6 213185. 9626.18   1
   7   5  -6 192020. 9015.42   1
   5   7  -6 204257. 9322.75   1
 -12   7  -6 184082. 8784.68   2
 -12   5  -6 195834. 9121.26   2
  -7  -5   6 203526. 9454.15   2
  -7  12   7 90130.5 6143.05   1
  -7  -5   7 109341. 6872.98   1
  -5  -7   7 116914. 7143.13   1
   7   5  -7 114735. 7040.20   1
   5   7  -7 107284. 6709.49   1
 -12   5  -7 109715. 6787.50   2
   7 -12  -7 126926. 7842.26   1
  -5  -7   7 104748. 6728.08   2
 -12   4   7 64103.7 5348.63   2
  12  -4  -6 152723. 7724.99   1
 -12   4   6 152290. 7849.57   1
 -12   8   6 124234. 7619.38   2
 -12   4   6 145383. 7969.21   2
  12  -8  -5 115341. 6573.58   1
  12  -4  -5 116574. 6738.55   1
 -12   4   5 105598. 6589.44   1
  -4  12  -5 106678. 6599.30   1
   4 -12   5 109924. 6549.69   1
   8 -12   5 129116. 7248.72   1
  -8  12  -5 125216. 7069.56   1
 -12   8   5 88505.1 6353.42   2
 -12   4   5 107051. 6757.38   2
 -12   8   5 119908. 6911.15   1
  -8  12  -4 3535.94 1185.94   1
  -4  12  -4 2583.42 969.971   1
 -12   4   4 1924.64 917.279   1
  12  -8  -4 3395.00 1216.31   1
  12  -4  -4 2386.06 927.306   1
   4 -12   4 2969.80 914.359   1
 -12   8   4 2935.28 1097.49   1
 -12   8   4 3103.68 1226.40   2
 -12   4   4 2003.59 888.528   2
   8 -12   4 1517.50 625.946   1
  12  -8  -3 71715.1 5529.91   1
  12  -4  -3 60287.8 4896.70   1
 -12   4   3 60317.5 4952.78   1
  -4  12  -3 58536.6 4866.74   1
 -12   8   3 66694.8 5169.95   1
   4 -12   3 61784.0 5026.13   1
   8 -12   3 65046.4 5214.58   1
 -12   8   3 61558.9 5122.34   2
 -12   4   3 64999.0 5152.42   2
  -8  12  -3 51610.6 4468.92   1
  12  -8  -2 139765. 7606.17   1
  12  -4  -2 108350. 6502.47   1
 -12   4   2 105317. 6617.68   1
  -4  12  -2 137105. 7429.50   1
 -12   8   2 136193. 7373.66   1
   4 -12   2 123008. 7182.00   1
 -12   8   2 110632. 6993.07   2
   8 -12   2 127691. 7250.29   1
 -12   4   2 116724. 6760.40   2
  -8  -4  -2 94720.3 6612.52   2
  -8  12  -2 120624. 6733.83   1
  -8  -4  -1 7958.00 1971.86   2
  12  -4  -1 10671.5 2095.66   1
  12  -8  -1 10421.6 2105.37   1
 -12   4   1 10176.6 2068.40   1
  -4  12  -1 8552.04 1719.03   1
 -12   8   1 9474.29 2050.85   2
   8 -12   1 12885.9 2310.61   1
 -12   4   1 12721.3 2187.49   2
   4 -12   1 7818.57 1859.58   1
  -8  12  -1 12093.5 2183.70   1
 -12   8   1 10809.2 2056.53   1
  -8  -4   0 169.653 320.959   2
   8 -12   0 113.403 299.072   1
  12  -8   0 973.607 665.310   1
 -12   4   0-163.537 298.093   1
  12  -4   0 6.19271 201.280   1
  -4  12   0-588.895 627.552   1
  -8  12   0 1536.94 754.361   1
 -12   8   0 296.148 256.497   1
 -12   8   0-395.205 284.799   2
   4 -12   0 313.049 433.866   1
 -12   4   0 188.558 480.115   2
  -8  12   1 38902.8 3887.71   1
 -12   8  -1 31380.3 3511.09   1
  12  -4   1 33576.9 3695.80   1
  -4  12   1 31937.4 3661.81   1
   4 -12  -1 18408.6 2874.87   1
 -12   8  -1 35941.7 3925.13   2
 -12   4  -1 39764.3 4017.62   2
   8 -12  -1 46800.2 4414.76   1
  -8  -4   1 32581.1 3757.16   2
  12  -8   1 36466.3 3903.70   1
  -8  12   2 144094. 7412.17   1
  -4  12   2 107985. 6705.07   1
   4 -12  -2 85748.3 6253.18   1
 -12   8  -2 132657. 7462.46   2
   4   8  -2 127453. 7383.46   1
 -12   4  -2 139701. 7513.47   2
   8 -12  -2 147169. 7877.97   1
  -8  -4   2 145875. 7931.80   2
  -4  -8   2 114409. 7191.39   2
  12  -8   2 126532. 7226.80   1
 -12   8  -2 126549. 7207.75   1
  -8  12   3 63289.3 4963.42   1
  -4  -8   3 40740.4 4219.99   1
   8   4  -3 52457.4 4802.62   1
  -4  12   3 54503.9 4817.13   1
   4 -12  -3 46086.7 4500.68   1
 -12   8  -3 57070.1 4987.55   2
 -12   4  -3 52148.3 4596.35   2
   4   8  -3 50492.7 4576.33   1
   8 -12  -3 61552.7 5114.22   1
 -12   8  -3 48427.7 4444.64   1
  -8  -4   3 66729.4 5218.23   2
  12  -8   3 49220.9 4608.03   1
  -4  -8   3 41802.0 4395.36   2
  -8  12   4 82107.2 5710.56   1
  -8  -4   4 55607.7 4962.58   1
  -4  -8   4 45478.2 4451.79   1
   8   4  -4 67439.4 5489.89   1
  -4  12   4 57648.3 5018.29   1
 -12   8  -4 59604.7 5015.61   1
 -12   8  -4 78108.2 5797.40   2
 -12   4  -4 62563.0 5058.80   2
   4   8  -4 66140.6 5302.16   1
   8 -12  -4 70141.6 5514.90   1
  -8  -4   4 73653.3 5594.16   2
  12  -8   4 57969.5 4999.21   1
  -4  -8   4 61819.3 5329.94   2
  -8  -4   5 12161.5 2289.78   2
   8 -12  -5 8081.25 1865.71   1
  -4  -8   5 8766.07 2010.23   2
  12  -8   5 11281.7 2171.83   1
  -8  12   5 11244.4 2105.16   1
   4   8  -5 8863.36 1911.38   1
  -8  -4   5 10829.9 2144.02   1
   8   4  -5 10623.4 2172.94   1
 -12   8  -5 10643.7 2171.67   1
  -4  -8   5 7402.05 1734.93   1
 -12   4  -5 11589.9 2201.12   2
 -12   8  -5 12302.3 2272.81   2
  -8  12   6 230391. 9940.83   1
  -8  -4   6 216841. 9759.33   1
  -4  -8   6 250121. 10320.4   1
   8   4  -6 236121. 10168.1   1
 -12   4  -6 269102. 10610.0   2
   4   8  -6 255241. 10297.2   1
   8 -12  -6 244878. 10754.5   1
  -8  -4   6 238550. 9963.19   2
  -4  -8   6 228597. 9908.71   2
  -8  12   7 49863.3 4712.34   1
  -8  -4   7 55588.0 4984.55   1
   8   4  -7 52635.7 4694.57   1
   4   8  -7 52322.6 4715.62   1
   8 -12  -7 63987.3 5452.36   1
  -8  12   8 3036.66 1104.29   1
   3 -12   6-419.691 738.189   2
   3 -12   5 51.4304 187.600   2
 -12   3   5 1692.45 953.854   1
 -12   3   4 283330. 11047.4   1
  12  -3  -4 267994. 10542.5   1
  -3  12  -4 323589. 11542.6   1
   3 -12   4 268721. 10625.4   1
 -12   9   4 251020. 10934.0   2
 -12   3   4 302497. 11308.6   2
   9 -12   3 772.171 516.355   1
  -3  12  -3 914.193 683.512   1
  12  -9  -3 1023.72 795.934   1
 -12   3   3 1636.67 723.751   1
  -9  12  -3 1126.83 646.102   1
  12  -3  -3 1152.43 863.880   1
 -12   9   3 1245.48 734.097   1
   3 -12   3 657.090 420.328   1
 -12   9   3 988.767 711.898   2
 -12   3   3 1145.32 812.453   2
  -9  -3  -3 1493.64 912.430   2
   9 -12   2 6686.66 1670.55   1
  -3  12  -2 10836.6 2147.08   1
  12  -9  -2 8486.63 1797.49   1
 -12   3   2 4353.19 1410.67   1
  12  -3  -2 7212.03 1685.33   1
  -9  12  -2 7854.56 1683.08   1
 -12   9   2 8019.72 1824.69   1
   3 -12   2 5691.45 1567.45   1
 -12   9   2 6435.61 1733.47   2
 -12   3   2 6460.09 1586.70   2
  -9  -3  -2 6732.93 1826.14   2
   9 -12   1 89.3736 303.944   1
  -3  12  -1-79.3735 357.418   1
  12  -9  -1 127.584 175.489   1
 -12   3   1 259.303 325.292   1
 -12   9   1 433.668 406.831   1
  12  -3  -1 1292.84 839.213   1
  -9  12  -1 95.0128 278.886   1
 -12   9   1 536.932 593.597   2
   3 -12   1 725.924 638.248   1
 -12   3   1 334.092 480.259   2
  -9  -3  -1 189.083 450.590   2
  -9  12   0 123952. 6957.61   1
  12  -3   0 100841. 6441.74   1
  -3  12   0 117358. 7019.29   1
   3 -12   0 116553. 7077.37   1
 -12   9   0 113751. 7229.71   2
 -12   3   0 118092. 6804.34   2
   9 -12   0 127180. 7312.44   1
  -9  -3   0 131807. 7701.12   2
  12  -9   0 132407. 7405.32   1
 -12   9   0 130489. 7317.62   1
   9 -12  -1 1165.56 726.349   1
  -9  12   1 280.365 534.551   1
 -12   9  -1 873.128 661.006   1
  12  -9   1 918.499 553.057   1
  -3  12   1 1220.75 871.432   1
 -12   9  -1 1732.57 852.154   2
   3 -12  -1 364.618 305.152   1
 -12   3  -1 1248.01 757.086   2
  -9  -3   1 410.843 587.990   2
  -9  -3   2 941.226 673.794   2
   9 -12  -2 438.363 370.112   1
  12  -9   2 459.299 382.537   1
  -9  12   2 1636.91 889.768   1
  -3  12   2 331.864 189.187   1
   3   9  -2 824.678 612.228   1
 -12   9  -2-76.6253 626.729   2
   3 -12  -2 605.959 550.631   1
 -12   9  -2 357.356 585.764   1
 -12   3  -2 1116.91 642.594   2
  -9  -3   3 8773.10 1943.71   2
  -3  -9   3 6449.00 1711.99   2
  12  -9   3 7100.23 1686.32   1
  -9  12   3 8244.62 1850.57   1
   3   9  -3 7301.18 1800.62   1
  -3  -9   3 7095.09 1759.49   1
 -12   9  -3 7839.62 1720.96   1
 -12   9  -3 6871.65 1830.99   2
   9   3  -3 6465.69 1736.88   1
   9 -12  -3 11295.0 2243.59   1
 -12   3  -3 9190.24 1887.18   2
  -9  12   4 433073. 13313.7   1
  -9  -3   4 331396. 12079.6   1
   9   3  -4 384302. 13119.1   1
  -3  -9   4 279362. 11198.7   1
 -12   9  -4 367598. 12246.2   1
 -12   9  -4 350329. 12311.4   2
 -12   3  -4 380734. 12596.3   2
   3   9  -4 346329. 12242.0   1
   9 -12  -4 432232. 13909.4   1
  -9  -3   4 504857. 14770.1   2
  12  -9   4 383036. 12834.7   1
  -3  -9   4 307608. 11952.8   2
   9 -12  -5 2588.64 1061.64   1
  -3  -9   5 1584.32 973.463   2
  12  -9   5 1701.81 988.082   1
  -9  12   5 2729.78 1004.74   1
   3   9  -5 2520.99 1148.92   1
  -9  -3   5 2079.77 947.903   1
 -12   9  -5 2051.65 913.984   1
  -3  -9   5 1616.58 800.952   1
   9   3  -5 2347.90 1006.28   1
  12  -9   6 10082.4 2138.29   1
  -3  -9   6 7382.92 1890.66   2
  -9  -3   6 6310.42 1679.72   1
   9   3  -6 9204.12 2065.49   1
 -12   2   4 18934.9 2987.11   1
  12  -2  -4 21165.2 2991.23   1
 -12   2   3 19850.7 2949.06   1
  12  -2  -3 18810.0 2884.10   1
 -10  -2  -3 18706.1 2972.62   2
 -12   2   2 110151. 7205.16   1
  -2  12  -2 94697.6 6280.13   1
  12  -2  -2 102486. 6814.41   1
   2 -12   2 96813.8 6584.63   1
 -12  10   2 92430.3 6678.71   2
 -10  -2  -2 118065. 7349.13   2
  -2  12  -1 941.003 766.645   1
   2 -12   1 1223.81 937.377   1
 -12  10   1 1393.90 950.570   2
 -10  -2  -1 956.156 714.846   2
  -2  12   0 11141.5 2209.87   1
   2 -12   0 9519.70 2045.61   1
 -12  10   0 8848.71 2025.45   2
 -10  -2   0 10925.7 2245.47   2
  -2  12   1 27496.3 3619.24   1
 -10  -2   1 36842.8 4080.82   2
   2  10  -2 91770.6 6434.51   1
  -2 -10   3 81233.5 6135.65   1
   2  10  -3 91275.9 6326.09   1
   2  10  -4 4965.90 1419.95   1
  -2 -10   4 3680.98 1316.67   1
  10   2  -4 5645.37 1620.02   1
  13  -6  -1 3178.33 1111.83   1
 -13   6   1 2143.23 964.237   1
 -13   6   0 18.8482 243.136   1
  13  -7   0 98.1190 305.667   1
  13  -6   0 169.955 370.640   1
 -13   7   0 657.904 694.982   1
  -7  -6   1 6311.34 1826.87   2
  13  -7   1 3770.92 1343.54   1
  13  -6   1 3856.89 1364.86   1
 -13   7  -1 2351.66 1029.86   1
  -7  -6   2 70494.4 5637.65   2
  13  -7   2 63018.0 5333.02   1
  -6  -7   3 88219.9 6554.84   2
 -13   5   1 383.304 843.852   1
  13  -5  -1 627.382 561.617   1
  13  -5   0 10946.5 2240.58   1
  -8  -5   1 1040.09 671.297   2
   0   0   0    0.00    0.00   0

;
_shelx_hkl_checksum              82035
loop_
_space_group_symop_operation_xyz
'x, y, z'
'-y, x-y, z'
'-x+y, -x, z'
'-y, -x, -z+1/2'
'-x+y, y, -z+1/2'
'x, x-y, -z+1/2'
'-x, -y, -z'
'y, -x+y, -z'
'x-y, x, -z'
'y, x, z-1/2'
'x-y, -y, z-1/2'
'-x, -x+y, z-1/2'
loop_
_atom_site_label
_atom_site_type_symbol
_atom_site_fract_x
_atom_site_fract_y
_atom_site_fract_z
_atom_site_U_iso_or_equiv
_atom_site_adp_type
_atom_site_occupancy
_atom_site_site_symmetry_order
_atom_site_calc_flag
_atom_site_refinement_flags_posn
_atom_site_refinement_flags_adp
_atom_site_refinement_flags_occupancy
Co1 Co 0.6667 0.3333 0.2500 0.0135(2) Uani 1 6 d S T P
Fe1 Fe 1.0000 0.0000 0.0000 0.0123(2) Uani 1 6 d S T P
O1 O 0.88319(17) 0.34312(14) 0.16817(10) 0.0257(3) Uani 1 1 d . . .
O2 O 1.01280(14) 0.20881(16) 0.08292(8) 0.0219(3) Uani 1 1 d . . .
C1 C 0.8735(2) 0.2097(2) 0.12072(12) 0.0206(3) Uani 1 1 d . . .
H1 H 0.7558 0.1036 0.1126 0.037(8) Uiso 1 1 calc R . .
C2 C 1.3333 0.6667 0.152(2) 0.245(14) Uani 1 3 d S T P
N1 N 1.2782(7) 0.5563(13) 0.2500 0.172(13) Uani 0.334 2 d S T P
loop_
_atom_site_aniso_label
_atom_site_aniso_U_11
_atom_site_aniso_U_22
_atom_site_aniso_U_33
_atom_site_aniso_U_23
_atom_site_aniso_U_13
_atom_site_aniso_U_12
Co1 0.0116(2) 0.0116(2) 0.0173(3) 0.000 0.000 0.00582(11)
Fe1 0.0108(2) 0.0108(2) 0.0152(3) 0.000 0.000 0.00542(11)
O1 0.0218(5) 0.0206(5) 0.0337(7) -0.0070(4) 0.0066(4) 0.0099(4)
O2 0.0191(5) 0.0197(5) 0.0281(7) -0.0041(4) 0.0028(3) 0.0106(3)
C1 0.0187(5) 0.0203(6) 0.0251(7) -0.0052(4) -0.0003(4) 0.0115(5)
C2 0.0329(18) 0.0329(18) 0.67(4) 0.000 0.000 0.0165(9)
N1 0.043(4) 0.021(3) 0.44(4) 0.000 -0.101(11) 0.0103(17)
loop_
_atom_type_symbol
_atom_type_description
_atom_type_scat_dispersion_real
_atom_type_scat_dispersion_imag
_atom_type_scat_source
C C 0.0030 0.0010 'International Tables Vol C Tables 4.2.6.8 and 6.1.1.4'
H H 0.0000 0.0000 'International Tables Vol C Tables 4.2.6.8 and 6.1.1.4'
N N 0.0050 0.0030 'International Tables Vol C Tables 4.2.6.8 and 6.1.1.4'
O O 0.0090 0.0050 'International Tables Vol C Tables 4.2.6.8 and 6.1.1.4'
Fe Fe 0.3380 0.7600 'International Tables Vol C Tables 4.2.6.8 and 6.1.1.4'
Co Co 0.3460 0.8760 'International Tables Vol C Tables 4.2.6.8 and 6.1.1.4'
loop_
_geom_angle_atom_site_label_1
_geom_angle_atom_site_label_2
_geom_angle_atom_site_label_3
_geom_angle
_geom_angle_site_symmetry_1
_geom_angle_site_symmetry_3
O1 Co1 O1 93.45(5) 4_665 6
O1 Co1 O1 83.80(7) 4_665 3_665
O1 Co1 O1 176.14(6) 6 3_665
O1 Co1 O1 93.45(5) 4_665 5_655
O1 Co1 O1 93.45(5) 6 5_655
O1 Co1 O1 89.43(7) 3_665 5_655
O1 Co1 O1 176.14(6) 4_665 2_655
O1 Co1 O1 89.43(7) 6 2_655
O1 Co1 O1 93.45(5) 3_665 2_655
O1 Co1 O1 83.80(7) 5_655 2_655
O1 Co1 O1 89.43(7) 4_665 .
O1 Co1 O1 83.80(7) 6 .
O1 Co1 O1 93.45(5) 3_665 .
O1 Co1 O1 176.14(6) 5_655 .
O1 Co1 O1 93.45(5) 2_655 .
O2 Fe1 O2 180.0 . 7_755
O2 Fe1 O2 88.64(5) . 9_545
O2 Fe1 O2 91.36(5) 7_755 9_545
O2 Fe1 O2 91.36(5) . 3_765
O2 Fe1 O2 88.64(5) 7_755 3_765
O2 Fe1 O2 180.00(8) 9_545 3_765
O2 Fe1 O2 91.37(5) . 2_645
O2 Fe1 O2 88.64(5) 7_755 2_645
O2 Fe1 O2 88.64(5) 9_545 2_645
O2 Fe1 O2 91.36(5) 3_765 2_645
O2 Fe1 O2 88.63(5) . 8_665
O2 Fe1 O2 91.36(5) 7_755 8_665
O2 Fe1 O2 91.36(5) 9_545 8_665
O2 Fe1 O2 88.64(5) 3_765 8_665
O2 Fe1 O2 180.00(13) 2_645 8_665
C1 O1 Co1 125.07(10) . .
C1 O2 Fe1 125.16(10) . .
O1 C1 O2 124.27(15) . .
N1 C2 N1 51.9(10) . 3_775
N1 C2 N1 51.9(10) . 2_755
N1 C2 N1 51.9(10) 3_775 2_755
N1 N1 N1 60.001(1) 3_775 2_755
N1 N1 C2 64.0(5) 3_775 4_775
N1 N1 C2 64.0(5) 2_755 4_775
N1 N1 C2 64.0(5) 3_775 .
N1 N1 C2 64.0(5) 2_755 .
C2 N1 C2 119.3(12) 4_775 .
loop_
_geom_bond_atom_site_label_1
_geom_bond_atom_site_label_2
_geom_bond_distance
_geom_bond_site_symmetry_2
Co1 O1 2.0693(12) 4_665
Co1 O1 2.0693(12) 6
Co1 O1 2.0693(12) 3_665
Co1 O1 2.0693(12) 5_655
Co1 O1 2.0693(12) 2_655
Co1 O1 2.0693(12) .
Fe1 O2 2.0153(11) .
Fe1 O2 2.0154(11) 7_755
Fe1 O2 2.0154(11) 9_545
Fe1 O2 2.0154(11) 3_765
Fe1 O2 2.0154(11) 2_645
Fe1 O2 2.0154(11) 8_665
O1 C1 1.2417(16) .
O2 C1 1.2590(16) .
C2 N1 1.55(3) .
C2 N1 1.55(3) 3_775
C2 N1 1.55(3) 2_755
N1 N1 1.359(16) 3_775
N1 N1 1.360(16) 2_755
N1 C2 1.55(3) 4_775
