#------------------------------------------------------------------------------
#$Date: 2017-02-04 00:26:02 +0200 (Sat, 04 Feb 2017) $
#$Revision: 191250 $
#$URL: file:///home/coder/svn-repositories/cod/cif/4/34/51/4345102.cif $
#------------------------------------------------------------------------------
#
# This file is available in the Crystallography Open Database (COD),
# http://www.crystallography.net/
#
# All data on this site have been placed in the public domain by the
# contributors.
#
data_4345102
loop_
_publ_author_name
'Mazzuca, Lidia'
'Ca\~nadillas-Delgado, Laura'
'Rodr\'iguez-Velamaz\'an, J Alberto'
'Fabelo, Oscar'
'Scarrozza, Marco'
'Stroppa, Alessandro'
'Picozzi, Silvia'
'Zhao, Jiong-Peng'
'Bu, Xian-He'
'Rodr\'iguez-Carvajal, Juan'
_publ_section_title
;
 Magnetic Structures of Heterometallic M(II)-M(III) Formate Compounds.
;
_journal_issue                   1
_journal_name_full               'Inorganic chemistry'
_journal_page_first              197
_journal_page_last               207
_journal_paper_doi               10.1021/acs.inorgchem.6b01866
_journal_volume                  56
_journal_year                    2017
_chemical_formula_sum            'C8 H14 Co Fe N O12'
_chemical_formula_weight         430.97
_chemical_name_systematic
;
 ?
;
_space_group_crystal_system      trigonal
_space_group_IT_number           163
_space_group_name_Hall           '-P 3 2c'
_space_group_name_H-M_alt        'P -3 1 c'
_symmetry_space_group_name_Hall  '-P 3 2c'
_symmetry_space_group_name_H-M   'P -3 1 c'
_atom_sites_solution_hydrogens   geom
_audit_creation_method           SHELXL-2014
_cell_angle_alpha                90
_cell_angle_beta                 90
_cell_angle_gamma                120
_cell_formula_units_Z            2
_cell_length_a                   8.21840(10)
_cell_length_b                   8.21840(10)
_cell_length_c                   13.6756(2)
_cell_measurement_reflns_used    6674
_cell_measurement_temperature    30(2)
_cell_measurement_theta_max      32.3080
_cell_measurement_theta_min      5.3830
_cell_volume                     799.929(18)
_computing_cell_refinement       'CrysAlis PRO software program'
_computing_data_collection       'CrysAlis PRO software program'
_computing_data_reduction        'CrysAlis PRO software program'
_computing_molecular_graphics    'Mercury (McRae, 2006)'
_computing_publication_material  'WINGX (Farrugia, 1999)'
_computing_structure_refinement  'SHELXL-2014 (Sheldrick, 2014)'
_computing_structure_solution    'SHELXL-2014 (Sheldrick, 2014)'
_diffrn_ambient_temperature      30(2)
_diffrn_measured_fraction_theta_full 0.801
_diffrn_measured_fraction_theta_max 0.845
_diffrn_measurement_device_type  'CRISTAL beamline, SOLEIL synchrotron'
_diffrn_radiation_type           synchrotron
_diffrn_radiation_wavelength     0.66951
_diffrn_reflns_av_R_equivalents  0.0333
_diffrn_reflns_av_unetI/netI     0.0139
_diffrn_reflns_Laue_measured_fraction_full 0.801
_diffrn_reflns_Laue_measured_fraction_max 0.845
_diffrn_reflns_limit_h_max       12
_diffrn_reflns_limit_h_min       -12
_diffrn_reflns_limit_k_max       13
_diffrn_reflns_limit_k_min       -13
_diffrn_reflns_limit_l_max       18
_diffrn_reflns_limit_l_min       -19
_diffrn_reflns_number            9220
_diffrn_reflns_point_group_measured_fraction_full 0.801
_diffrn_reflns_point_group_measured_fraction_max 0.845
_diffrn_reflns_theta_full        23.685
_diffrn_reflns_theta_max         32.561
_diffrn_reflns_theta_min         5.398
_diffrn_source                   synchrotron
_exptl_absorpt_coefficient_mu    1.617
_exptl_absorpt_correction_T_max  1.00000
_exptl_absorpt_correction_T_min  0.85115
_exptl_absorpt_correction_type   multi-scan
_exptl_absorpt_process_details
;
 
'CrysAlisPro, Agilent Technologies,
Version 1.171.37.33 (release 27-03-2014 CrysAlis171 .NET)
(compiled Mar 27 2014,17:12:48)
Empirical absorption correction using spherical harmonics,
 implemented in SCALE3 ABSPACK scaling algorithm.'
;
_exptl_crystal_colour            red
_exptl_crystal_density_diffrn    1.789
_exptl_crystal_description       prism
_exptl_crystal_F_000             436
_exptl_crystal_size_max          0.09
_exptl_crystal_size_mid          0.07
_exptl_crystal_size_min          0.06
_refine_diff_density_max         0.332
_refine_diff_density_min         -0.372
_refine_diff_density_rms         0.053
_refine_ls_extinction_method     none
_refine_ls_goodness_of_fit_ref   1.078
_refine_ls_hydrogen_treatment    refU
_refine_ls_matrix_type           full
_refine_ls_number_parameters     41
_refine_ls_number_reflns         994
_refine_ls_number_restraints     0
_refine_ls_restrained_S_all      1.078
_refine_ls_R_factor_all          0.0241
_refine_ls_R_factor_gt           0.0238
_refine_ls_shift/su_max          0.000
_refine_ls_shift/su_mean         0.000
_refine_ls_structure_factor_coef Fsqd
_refine_ls_weighting_details
'w=1/[\s^2^(Fo^2^)+(0.0317P)^2^+0.3900P] where P=(Fo^2^+2Fc^2^)/3'
_refine_ls_weighting_scheme      calc
_refine_ls_wR_factor_gt          0.0614
_refine_ls_wR_factor_ref         0.0616
_reflns_Friedel_coverage         0.000
_reflns_number_gt                979
_reflns_number_total             994
_reflns_threshold_expression     'I > 2\s(I)'
_cod_data_source_file            FeCo_30K.cif
_cod_data_source_block           shelx
_cod_original_cell_volume        799.93(2)
_cod_database_code               4345102
_shelx_space_group_comment
;
The symmetry employed for this shelxl refinement is uniquely defined
by the following loop, which should always be used as a source of
symmetry information in preference to the above space-group names.
They are only intended as comments.
;
_shelxl_version_number           2014-3
_shelx_res_file
;
TITL FeCo_warm0 in P-31c
CELL  0.66951   8.2184   8.2184  13.6756   90.000   90.000  120.000
ZERR     2.00   0.0001   0.0001   0.0002    0.000    0.000    0.000
LATT   1
SYMM  - Y,   X - Y,   Z
SYMM  - X + Y, - X,   Z
SYMM  - Y, - X, 1/2 - Z
SYMM  - X + Y,   Y, 1/2 - Z
SYMM    X,   X - Y, 1/2 - Z
SFAC  C        2.31000 20.84392  1.02000 10.20751   1.58860   0.56870 =
         0.86500  51.65125   0.21560   0.003   0.001     5.315   0.770  12.011
SFAC  H        0.49300 10.51091  0.32291 26.12573   0.14019   3.14236 =
         0.04081  57.79977   0.00304   0.000   0.000     0.000   0.320   1.008
SFAC  N       12.21261  0.00570  3.13220  9.89331   2.01250  28.99754 =
         1.16630   0.58260 -11.52901   0.005   0.003    10.897   0.700  14.007
SFAC  O        3.04850 13.27711  2.28680  5.70111   1.54630   0.32390 =
         0.86700  32.90894   0.25080   0.009   0.005    20.072   0.660  15.999
SFAC  FE      11.76951  4.76111  7.35731  0.30720   3.52220  15.35351 =
         2.30450  76.88058   1.03690   0.338   0.760  2867.351   1.260  55.845
SFAC  CO      12.28411  4.27910  7.34091  0.27840   4.00340  13.53591 =
         2.34880  71.16927   1.01180   0.346   0.876  3304.255   1.260  58.933
UNIT  16   28   2    24   2    2
MERG   2
FMAP   2
PLAN   20
ACTA
L.S.  15
WGHT    0.031700    0.390000
FVAR      16.32649
CO1   6    0.666667    0.333333    0.250000    10.16667    0.00513    0.00513 =
         0.00628    0.00000    0.00000    0.00256
FE1   5    1.000000    0.000000    0.000000    10.16667    0.00364    0.00364 =
         0.00528    0.00000    0.00000    0.00182
O1    4    0.883434    0.343694    0.168008    11.00000    0.01408    0.01071 =
         0.01627   -0.00446    0.00457    0.00568
O2    4    1.013287    0.208822    0.082996    11.00000    0.00964    0.00939 =
         0.01122   -0.00185    0.00144    0.00536
C1    1    0.873100    0.210207    0.119948    11.00000    0.01013    0.01056 =
         0.01170   -0.00313   -0.00090    0.00654
AFIX  43
H1    2    0.755063    0.105164    0.110685    11.00000    0.02783
AFIX   0
C2    1    1.333333    0.666667    0.156750    10.33333    0.01885    0.01885 =
         0.27764    0.00000    0.00000    0.00942
N1    3    1.277257    0.554514    0.250000    10.16700    0.01568    0.00893 =
         0.21172    0.00000   -0.03639    0.00446
HKLF    4

REM  FeCo_warm0 in P-31c
REM R1 =  0.0238 for     979 Fo > 4sig(Fo)  and  0.0241 for all     994 data
REM     41 parameters refined using      0 restraints

END

WGHT      0.0318      0.3865

REM Highest difference peak  0.332,  deepest hole -0.372,  1-sigma level  0.053
Q1    1   1.3333  0.5645  0.1786  11.00000  0.05    0.33
Q2    1   0.8692  0.2774  0.1432  11.00000  0.05    0.32
Q3    1   0.9367  0.2103  0.0994  11.00000  0.05    0.30
Q4    1   1.4524  0.7284  0.1560  11.00000  0.05    0.26
Q5    1   1.2768  0.6341  0.2084  11.00000  0.05    0.25
Q6    1   1.3333  0.6667  0.2500  10.16667  0.05    0.24
Q7    1   0.9688  0.1981  0.2431  11.00000  0.05    0.20
Q8    1   1.3333  0.6667  0.0823  10.33333  0.05    0.19
Q9    1   0.7369  0.1342  0.0808  11.00000  0.05    0.18
Q10   1   0.6667  0.3333  0.1101  10.33333  0.05    0.18
Q11   1   0.9172  0.3154  0.1949  11.00000  0.05    0.17
Q12   1   0.6667  0.3333  0.3278  10.33333  0.05    0.16
Q13   1   0.7898  0.3138  0.1926  11.00000  0.05    0.16
Q14   1   0.7087  0.4075  0.2976  11.00000  0.05    0.16
Q15   1   1.0000  0.0000 -0.0867  10.33333  0.05    0.15
Q16   1   1.0872  0.2674  0.1085  11.00000  0.05    0.15
Q17   1   0.8470  0.1926  0.2024  11.00000  0.05    0.15
Q18   1   0.6786  0.2209  0.1408  11.00000  0.05    0.15
Q19   1   0.7639  0.0535  0.1566  11.00000  0.05    0.15
Q20   1   1.0000  0.0000  0.1442  10.33333  0.05    0.14
;
_shelx_res_checksum              73147
_shelx_hkl_file
;
   0   0  -3 149.505 81.0208   1
   0   0   3 45.8618 67.4848   1
   0   0  -5 261.645 109.048   1
   0   0   5-25.5061 84.1552   1
   0   0   6 44212.8 1115.17   1
   0   0  -6 43461.2 1130.55   1
   0   0   7 60.0819 114.735   1
   0   0  -7 179.542 153.717   1
   0   0  -9 76.4444 131.748   1
   0   0   9 102.200 110.599   1
   0   0 -10 22001.0 991.514   1
   0   0  10 23305.8 995.823   1
   0   0  11 153.243 153.058   1
   0   0 -11 55.2206 122.321   1
   0   0 -13 68.5025 134.923   1
   0  -1  -4 6590.62 390.244   2
   0  -1   4 5244.76 197.718   1
   1  -1   4 5653.02 335.373   1
  -1   1  -4 4742.94 313.887   1
  -1   1   4 5587.47 341.430   1
   0   1  -4 4967.89 198.610   1
  -1   0   4 5222.94 242.784   1
   1   0   4 5385.87 369.212   1
   1  -1  -4 6112.07 362.107   1
   1   0  -4 5793.46 254.223   1
   1  -1  -4 5131.59 265.215   2
  -1   0  -4 5468.39 370.843   1
   0  -1   4 5355.29 310.719   2
   0  -1  -4 5358.01 370.095   1
   0   1   4 5261.37 382.141   1
   1  -1  -5 12778.4 503.043   2
  -1   1  -5 15350.6 589.408   1
   1   0  -5 15046.7 481.552   1
  -1   0  -5 15499.2 686.360   1
   0  -1  -5 13920.7 639.884   2
  -1   1   5 14693.4 613.782   1
   1  -1   5 16177.0 606.195   1
   0   1   5 15529.7 682.034   1
   0  -1  -5 14895.7 682.193   1
  -1   0   5 17585.6 505.003   1
   0  -1   5 18721.8 463.200   1
   0   1  -5 16064.9 447.707   1
   1  -1  -5 14026.2 608.324   1
   1   0   5 16558.4 695.127   1
   1  -1  -6 24622.7 759.199   2
   1   0   6 23221.3 890.766   1
   1   0  -6 24915.8 690.902   1
   1  -1  -6 23178.0 841.585   1
   0  -1   6 22559.0 609.135   1
  -1   1  -6 23887.0 819.940   1
   1  -1   6 21610.5 768.482   1
   0  -1  -6 22505.3 861.103   2
   0   1   6 20459.7 846.140   1
  -1   1   6 20448.5 800.285   1
  -1   0   6 23800.0 670.101   1
   0  -1  -6 22210.0 900.271   1
   0   1  -6 24042.3 641.439   1
  -1   0  -6 22560.1 892.516   1
   0  -1  -7 99032.6 2182.88   2
   0  -1  -7 102839. 2282.46   1
  -1   1   7 106130. 2130.76   1
   1  -1   7 116633. 2137.70   1
  -1   1  -7 110421. 2128.32   1
   1   0   7 102798. 2228.99   1
   1  -1  -7 119583. 2262.50   1
   0   1   7 110967. 2301.66   1
  -1   0  -7 106974. 2309.04   1
   1  -1  -7 106385. 1962.37   2
   1   0  -7 109736. 1871.50   1
  -1   0   8 50124.0 1190.35   1
   0   1   8 44678.7 1445.00   1
  -1   0  -8 46160.2 1484.63   1
   1  -1  -8 45841.6 1240.77   2
   0  -1   8 49811.2 1135.58   1
   1   0  -8 51342.7 1224.86   1
   0  -1  -8 43084.8 1476.88   1
   1  -1   8 45707.2 1316.88   1
   1  -1  -8 47800.0 1405.14   1
  -1   1   8 47439.5 1381.53   1
   0   1  -8 47367.1 1133.24   1
   1   0   8 46382.4 1461.14   1
   0  -1  -8 41151.9 1391.56   2
  -1   1  -8 42748.7 1315.56   1
   0  -1  -9 235039. 4205.32   1
   1   0   9 226606. 4056.41   1
   1   0  -9 256971. 3700.75   1
  -1   0  -9 247249. 4237.61   1
  -1   0 -11 194750. 3913.49   1
  -1   1  11 213785. 3789.57   1
   0  -1 -11 203576. 3860.10   2
   0   1  11 190601. 3833.69   1
  -1   1 -11 206593. 3721.53   1
   0   1 -11 180746. 3233.81   1
   1  -1  11 212810. 3710.23   1
   1   0 -11 207607. 3438.77   1
   0  -1 -11 219526. 4070.46   1
   1  -1 -11 173311. 3452.21   2
   1   0  11 204932. 3902.19   1
   1  -1 -11 211033. 3807.39   1
  -1   0 -12 75291.7 2287.03   1
   1   0  12 69893.3 2189.75   1
   0   1  12 76743.0 2285.57   1
  -1   1 -12 76898.8 2147.85   1
  -1   1  12 69802.7 2060.76   1
   1  -1 -12 73980.8 2014.84   2
   0  -1 -12 72939.7 2221.65   2
   0  -1 -12 75276.2 2300.43   1
   1  -1 -12 75245.9 2193.76   1
   1  -1  12 70777.5 2032.95   1
   1   0  13 186360. 3895.70   1
   0   1  13 186745. 3942.16   1
   0  -1 -13 185181. 4028.83   1
   0  -1 -13 183178. 3870.99   2
   1  -1 -13 164899. 3660.69   1
  -1   1 -13 183442. 3747.76   1
  -1   1  13 166215. 3655.17   1
  -1   0 -13 179238. 3915.12   1
   0   1  14 416626. 6871.56   1
  -1   0 -14 435424. 7046.57   1
   0  -1 -14 418410. 6985.22   1
   0  -1 -14 411780. 6976.05   2
  -1  -1 -15 268.190 258.943   1
  -1  -1 -15 64.1576 200.233   2
   1   1  15 80.5910 207.746   1
  -1  -1 -14 16000.3 1124.37   2
  -1  -1 -14 16041.2 1157.80   1
   1   1  14 17079.5 1167.77   1
  -1  -1 -13 313.988 244.434   2
  -1  -1 -13 144.517 189.690   1
   1   1  13 186.165 193.068   1
  -1  -1 -11 291.415 218.659   1
   1   1  11-28.7654 149.403   1
  -1  -1 -11 275.637 170.145   2
   1  -2  11 56.1546 102.707   1
  -2   1  11 216.439 147.833   1
  -1   2 -11 230.951 148.368   1
   2  -1 -11-28.4156 119.465   1
   1  -2  10 79356.1 1769.16   1
   2  -1 -10 66899.9 1453.33   2
  -2   1  10 80364.5 1904.06   1
  -1   2 -10 75223.9 1787.54   1
   1   1  10 70701.3 2140.76   1
  -1  -1 -10 64928.9 2087.52   2
   2  -1 -10 70807.9 1834.02   1
  -1  -1 -10 70955.8 2204.53   1
  -2   1   9 274.475 151.562   1
   1  -2   9 49.2735 118.209   1
  -1   2  -9 428.211 153.259   1
   2  -1  -9-66.6186 132.276   1
   2  -1  -9 71.6590 76.5549   2
  -1  -1  -9-128.442 193.770   2
   1   1   9-33.3418 159.212   1
  -1  -1  -9 22.8584 174.923   1
  -2   1   7-0.36780 95.9938   1
   1   1   7 205.332 160.008   1
  -1  -1  -7 52.6752 141.025   1
  -1   2  -7 33.5627 78.0406   1
   2  -1  -7 102.627 47.6961   2
   2  -1  -7 315.864 142.234   1
   1   1   6 12649.1 730.949   1
  -1   2  -6 12082.2 513.742   1
   2  -1  -6 11163.3 566.658   1
  -1  -1  -6 11604.7 709.713   1
  -2   1   6 10669.5 546.457   1
   1  -2   6 11820.5 509.814   1
  -1  -1  -5-80.1663 144.882   1
  -1  -1  -5 284.274 132.443   2
  -1   2  -5 30.0281 70.5669   1
   1   1   5 220.601 144.437   1
   1  -2   5 24.6275 136.603   2
   2  -1  -5 248.069 119.996   1
  -2   1   5 173.973 107.551   1
   1  -2   5 131.940 77.9211   1
  -2   1   3 287.469 117.111   1
   1  -2   3 85.0410 113.368   2
   1   1   3 156.224 150.957   1
   1  -2   3 188.594 94.7421   1
   2  -1  -3 185.275 50.9704   2
  -1  -1  -3 433.746 160.031   2
  -1  -1  -3 133.727 143.586   1
  -1  -1  -1 219.545 140.562   1
  -1   2  -1 269.869 107.770   1
   2  -1  -1 262.497 113.565   1
   1   1   1 251.586 137.710   1
   1  -2   1 284.821 108.920   1
  -1  -1  -1-19.9298 131.472   2
   1  -2   1 233.420 121.068   2
  -2   1   1 45.5846 102.596   1
  -1   2   1 383.058 133.331   1
  -2   1  -1 115.309 124.902   1
  -1  -1   1 161.607 103.945   2
   1  -2  -1 153.884 103.495   1
   1  -2  -1 106.948 108.370   2
   2  -1   1 308.418 132.254   1
   1   1  -1 188.008 105.539   1
  -1  -1   1-55.8285 89.0165   1
  -1   2   3 143.897 133.657   1
   2  -1   3 157.189 136.459   1
  -2   1  -3-90.4592 118.306   1
   1  -2  -3 109.491 109.753   2
   1  -2  -3 28.6696 130.021   1
  -1  -1   3 15.4036 67.8299   2
   2  -1   5 341.730 153.354   1
   1  -2  -5 757.584 191.158   1
   1  -2  -5 342.608 160.245   2
  -2   1  -5 280.076 135.614   1
  -1   2   5 314.047 158.050   1
  -1  -1   5 265.668 106.773   2
   2  -1   6 8962.69 559.694   1
  -2   1  -6 10354.0 631.607   1
  -1   2   6 9209.90 603.496   1
   1  -2  -6 9402.47 554.141   2
  -2   1  -7 132.106 133.368   1
   2  -1   7-2.54787 124.640   1
   1  -2  -7 205.566 149.345   2
   1  -2  -7 41.2907 125.254   1
  -1   2   7-195.537 138.262   1
   2  -1   9 207.862 170.298   1
  -2   1  -9 436.022 155.896   1
   1  -2  -9 72.2213 111.370   2
  -1  -1   9 79.3367 38.4306   1
  -1   2   9 102.414 140.930   1
   1   1  -9 150.460 47.1741   1
   1  -2 -10 171165. 3337.40   2
   2  -1  10 175894. 3507.63   1
  -2   1 -10 172848. 3552.55   1
  -2   1 -11-23.3902 141.264   1
   2  -1  11 79.8449 160.484   1
   1  -2 -11 221.164 204.126   2
   1  -2 -11 679.782 269.741   1
  -1   2  11 243.016 162.302   1
   2  -1  13-6.71382 158.321   1
   1  -2 -13 259.046 164.237   1
  -1   2  13-27.6515 203.084   1
  -2   1 -13-64.5475 142.747   1
   1  -2 -13 137.734 213.325   2
  -1   2  14 49000.3 1962.56   1
  -2   1 -14 46519.5 1944.60   1
   1  -2 -14 44122.6 1908.83   1
   0  -2   0 132537. 2175.49   2
  -2   2   0 117209. 2122.77   1
  -2   2   1 89191.8 1773.96   1
   0  -2  -1 93598.4 1782.16   1
  -2   2  -1 95681.6 1785.30   1
   0   2  -1 94605.1 1618.10   1
   0  -2  -7 93972.1 2256.55   2
  -2   2  -7 98244.5 2130.75   1
   0  -2  -7 99645.5 2415.43   1
  -2   2   7 93563.6 2155.44   1
   2  -2  -7 95223.7 1830.67   2
   2  -2  -7 92951.3 2186.07   1
  -2   0  -7 99564.0 2392.61   1
   2  -2   7 101158. 2111.21   1
   0   2   7 99344.8 2396.63   1
   2   0   7 108239. 2422.30   1
   2   0   8 2791.75 381.761   1
   0  -2   8 2347.67 151.579   1
  -2   0   8 2737.89 229.493   1
   0  -2  -8 3855.72 439.851   2
   2  -2   8 2404.80 320.231   1
   0   2  -8 2664.58 175.659   1
   2  -2  -8 2431.95 300.657   2
  -2   0  -8 2209.91 343.528   1
  -2   2  -8 2825.21 361.794   1
  -2   2   8 2579.79 349.663   1
   2   0  -8 2368.64 234.589   1
   0   2   8 2466.80 391.231   1
   0  -2  -8 3253.96 416.563   1
   2  -2  -8 2675.10 366.097   1
   2   0  -9 56454.8 1224.17   1
   0  -2  -9 57414.5 1766.20   2
   2  -2  -9 53744.4 1358.91   2
   2  -2   9 53917.6 1559.64   1
  -2   0  -9 56664.0 1852.59   1
   0  -2   9 45993.1 861.378   1
  -2   2   9 59509.2 1708.96   1
  -2   0   9 54113.1 1173.26   1
  -2   2  -9 53474.5 1594.71   1
   0  -2  -9 54898.6 1830.04   1
   0   2   9 58864.6 1839.79   1
   0   2  -9 49022.3 931.851   1
   2   0   9 59525.3 1846.47   1
   2  -2  -9 54681.4 1689.91   1
  -2   0 -10 261859. 4267.75   1
   0  -2 -10 269444. 4338.88   1
   0   2  10 263276. 4224.75   1
   0  -2 -11 313365. 5407.56   2
  -2   0 -11 313728. 5641.62   1
   2  -2  11 308905. 5093.93   1
   0  -2 -11 323077. 5678.70   1
   0  -2 -12 81750.2 2476.30   2
  -2   0 -12 87400.2 2646.68   1
   0  -2 -12 83488.5 2645.08   1
  -2   2  12 97138.8 2540.45   1
   0   2  12 83020.7 2568.70   1
   2   0  12 87755.7 2610.94   1
   2  -2  12 87822.7 2358.91   1
   2  -2 -12 91610.0 2522.79   1
  -2   2 -12 85984.6 2426.54   1
   0  -2 -13 127689. 3281.74   2
  -2   2  13 129893. 3193.06   1
   0  -2 -13 126413. 3432.44   1
   0   2  13 136091. 3464.91   1
   2   0  13 123689. 3324.42   1
  -2   0 -13 133664. 3483.71   1
   2  -2 -13 134011. 3245.81   1
   2   0  14 241532. 4935.83   1
   0   2  14 235413. 4943.94   1
  -2   0 -14 227516. 4950.11   1
   0  -2 -14 240881. 4866.35   2
  -2   0 -15 2809.07 537.754   1
   0   2  15 3252.19 538.916   1
   0  -2 -15 3587.77 602.052   1
   2   0  15 2841.36 545.120   1
  -2   0 -16 3899.71 657.946   2
  -2  -1 -17 197867. 5048.20   2
  -1  -2 -16 969.969 385.203   1
   2   1  16 1617.32 491.385   1
  -1  -2 -16 1396.50 391.746   2
   1   2  16 1476.54 423.500   1
  -2  -1 -16 1598.38 453.848   2
  -2  -1 -16 1947.92 521.058   1
   2   1  15 226625. 5095.84   1
  -1  -2 -15 228811. 5094.37   2
  -1  -2 -15 230704. 5222.55   1
  -2  -1 -15 222406. 5089.05   2
  -2  -1 -15 213432. 5056.82   1
   1   2  14 83742.1 2819.30   1
  -1  -2 -14 86799.3 2849.11   2
  -2  -1 -14 79440.2 2823.46   2
  -1  -2 -14 87757.0 2905.86   1
   2   1  14 78557.6 2752.66   1
  -2  -1 -14 82819.1 2862.14   1
   1   2  13 23052.7 1397.55   1
  -2  -1 -13 22363.9 1380.75   2
  -1  -2 -13 23057.0 1419.21   2
  -2  -1 -13 21259.5 1372.95   1
  -1  -2 -13 23812.2 1454.91   1
   2   1  13 23377.2 1392.46   1
   2   1  12 586.593 258.473   1
  -3   2  12 925.300 234.009   1
  -1  -2 -12 1433.42 345.119   2
  -1  -2 -12 829.498 305.201   1
   3  -2 -12 1215.63 301.503   1
  -2  -1 -12 970.880 344.926   2
  -2  -1 -12 1065.09 304.635   1
   2  -3  11 1161.76 241.362   1
  -2  -1 -11 1517.11 364.794   2
   3  -2 -11 1676.27 323.228   1
  -2   3 -11 1634.44 307.583   1
  -2  -1 -11 1621.53 379.924   1
  -1  -2 -11 1999.17 406.962   1
  -3   2  11 1297.80 291.015   1
   2   1  11 832.773 310.552   1
   1   2  11 1204.53 314.059   1
  -1  -2 -11 2190.50 454.077   2
   3  -1 -11 1085.82 239.049   1
  -1  -2 -10 393953. 6564.56   2
   1   2   9 57721.9 2011.21   1
   1  -3   9 60874.0 1346.16   1
  -1   3  -9 64424.5 1417.46   1
  -1  -2  -9 66033.1 2099.55   2
   2  -3   9 62536.9 1656.11   1
  -2  -1  -9 61795.0 2105.63   1
  -3   1   9 65010.8 1600.18   1
   3  -2  -9 59049.7 1777.27   1
  -3   2   9 60733.8 1759.04   1
  -2   3  -9 63695.3 1682.70   1
  -1  -2  -9 61015.8 2091.15   1
   2   1   9 59868.8 2027.02   1
   3  -1  -9 64047.2 1643.23   1
  -2   3  -7 252028. 3949.39   1
   3  -2  -7 249889. 4133.81   1
   2   1   2 99534.4 2114.54   1
   2  -3   2 107770. 2173.93   2
   3  -2  -2 95373.4 2021.22   1
   1   2   2 106013. 2179.67   1
   3  -2  -2 101065. 1838.22   2
  -3   2   2 88318.1 1973.34   1
  -1  -2  -2 104408. 2177.15   2
   1  -3   2 99795.9 1880.49   1
   2  -3   2 100080. 1976.95   1
  -1  -2  -2 97390.9 2105.12   1
  -3   1   2 105415. 2015.20   1
  -2  -1  -2 110650. 2181.43   2
  -2  -1  -1 245704. 3738.12   2
   1  -3   0 658.759 170.187   2
   1  -3   0 615.925 162.487   1
  -2   3   0 500.116 166.702   1
   1   2   0 581.965 177.175   1
  -3   1   0 507.692 151.909   1
   2  -3   0 464.567 150.927   2
  -1  -2   0 480.040 126.134   2
  -3   2   0 654.361 169.881   1
  -1   3   0 756.713 202.304   1
   3  -1   0 973.398 203.542   1
   3  -2   0 630.151 190.751   1
  -2  -1   0 712.721 142.898   1
   2  -3   0 972.284 201.232   1
  -2  -1   0 767.449 168.772   2
   2   1   0 621.158 151.675   1
  -1  -2   0 828.835 159.998   1
   2  -3  -1 141026. 2603.71   1
   1  -3  -3 34929.9 1239.00   1
  -2  -1   3 39234.0 915.139   1
   2  -3  -3 34875.7 1210.33   1
  -2   3   3 41893.6 1291.37   1
   3  -2   3 37604.6 1203.80   1
  -2  -1   3 40363.0 971.585   2
   3  -1   3 38864.5 1252.97   1
  -1   3   3 38505.6 1279.17   1
  -1  -2   3 40377.0 869.899   1
   1  -3  -3 36260.6 1178.81   2
   2   1  -3 38723.3 905.241   1
  -1  -2   3 40454.1 1098.65   2
  -3   1  -3 38922.7 1264.60   1
  -3   2  -3 38386.4 1218.09   1
   1   2  -3 41422.7 890.181   1
   2  -3  -3 35968.9 1106.13   2
   1  -3  -8 41665.0 1540.28   2
  -2   3   8 41666.0 1566.35   1
  -1  -2   8 48868.6 1395.69   2
   1  -3  -8 49433.6 1753.17   1
   2  -3  -8 43217.8 1406.95   2
  -3   1  -8 49033.2 1706.32   1
  -3   2  -8 43251.8 1553.98   1
   2  -3  -8 41058.4 1588.41   1
   3  -2   8 47075.3 1572.43   1
   3  -1   8 48409.6 1669.55   1
  -1   3   8 52856.7 1781.20   1
   2  -3 -10 200091. 3658.21   2
  -3   2 -10 190260. 3925.52   1
   1  -3 -10 210039. 4250.36   1
   2  -3 -10 199420. 4086.19   1
   3  -1  10 192636. 3968.98   1
   3  -2  10 197021. 3886.86   1
  -2   3  10 200652. 4004.74   1
  -3   1 -10 194452. 4067.22   1
   1  -3 -10 187353. 3846.85   2
  -1   3  10 186145. 3974.52   1
   1  -3 -11 61169.2 2043.77   2
  -2   3  11 53995.8 1980.81   1
  -1   3  11 59440.5 2119.70   1
   3  -2  11 60461.7 2034.42   1
  -3   1 -11 62178.9 2163.11   1
   2  -3 -11 63646.3 2174.28   1
   2  -3 -11 61232.7 1853.59   2
  -3   2 -11 61867.5 2085.60   1
   3  -1  11 58145.4 2070.96   1
   1  -3 -11 52904.4 2072.56   1
   3  -2  12 732.197 286.637   1
   2  -3 -12 340.657 157.627   2
  -3   2 -12 701.254 246.965   1
   2  -3 -12 788.216 271.534   1
   1  -3 -12 533.032 262.557   1
   1  -3 -12 705.318 250.531   2
  -3   1 -12 352.998 215.042   1
  -2   3  12 532.355 239.449   1
   3  -1  12 388.226 268.085   1
  -1   3  12 626.820 302.367   1
  -3   1 -13 21562.4 1349.70   1
  -2   3  13 22785.0 1342.87   1
   2  -3 -13 24978.0 1399.29   1
   3  -2  13 23348.0 1330.27   1
  -3   2 -13 24217.8 1379.13   1
   3  -1  13 22356.2 1331.56   1
   1  -3 -13 21231.5 1344.98   1
   1  -3 -13 22118.2 1303.60   2
  -1   3  13 21947.9 1323.46   1
  -3   2 -14 196146. 4419.24   1
  -2   3  14 186463. 4343.34   1
  -1   3  14 192750. 4482.26   1
   3  -1  14 184121. 4391.61   1
  -3   1 -14 190727. 4506.56   1
   1  -3 -14 198334. 4623.32   1
   2  -3 -14 195590. 4491.23   1
  -3   1 -15 35482.1 1826.28   1
  -1   3  15 31897.2 1768.39   1
   2  -3 -15 38071.3 1885.46   1
   1  -3 -15 35081.9 1841.13   1
   1  -3 -16 180909. 4653.90   1
   3   0   1 2338.49 296.178   1
  -3   3   1 1405.93 241.098   1
   0   3  -1 1948.28 251.052   1
   0   3   1 3014.19 340.953   1
   0  -3  -1 1872.73 286.231   2
   3  -3   1 1633.70 280.179   2
   0  -3  -1 2099.83 291.074   1
  -3   0   1 2026.91 263.417   1
   3   0  -1 2361.39 272.917   1
   0  -3   1 1972.93 242.642   1
   3  -3  -1 1805.56 290.954   1
  -3   3  -1 1597.25 266.512   1
  -3   0  -1 1859.89 292.983   1
   3  -3  -1 1725.74 227.863   2
   0  -3   1 2159.38 317.440   2
   3  -3   1 2183.91 290.758   1
   0   3  -2 27225.3 877.762   1
   0  -3  -2 26065.9 1056.11   2
  -3   3  -2 27061.5 1043.18   1
   3  -3  -2 26402.0 933.488   2
   0  -3  -2 26233.0 1057.83   1
  -3   3   2 26808.6 1043.03   1
  -3   0  -2 26437.0 1033.87   1
  -3   0   2 28614.8 931.302   1
  -3   0   2 27578.9 814.546   2
   3  -3   2 28457.4 1087.38   2
   3   0  -2 25972.2 885.938   1
   0  -3   2 27339.2 873.255   1
   3   0   2 26588.1 1046.33   1
   0  -3   2 27660.4 1008.12   2
   3  -3  -2 26697.7 1041.84   1
   0   3   2 26888.0 1065.57   1
   3  -3   2 28463.5 1057.55   1
   0  -3  -3 36673.7 1297.48   1
   3  -3   3 35231.1 1190.96   1
  -3   3   3 33226.9 1216.99   1
   0  -3   3 38285.3 973.999   1
   3  -3  -3 34044.9 1231.71   1
  -3   0  -3 36082.4 1271.89   1
  -3   0   3 38318.6 894.053   2
   3  -3  -3 34129.8 1050.65   2
  -3   3  -3 33400.2 1172.59   1
   3   0   3 36953.5 1270.74   1
   3   0  -3 33157.8 994.674   1
  -3   0   3 38526.6 1070.46   1
   0   3  -3 36473.0 982.676   1
   3  -3   3 35789.8 1309.48   2
   0  -3  -3 35258.7 1252.59   2
   0  -3   3 35449.0 1183.50   2
   0   3   3 36079.0 1283.41   1
  -3   0   5 11583.5 341.395   2
  -3   3  -5 11242.5 706.098   1
   3  -3  -5 13254.0 631.082   2
   3  -3  -5 13213.6 779.950   1
   0  -3   5 12134.2 446.479   1
   0   3   5 12170.7 807.367   1
   0  -3  -5 11211.3 758.457   1
   0   3  -5 13032.5 471.643   1
   0  -3  -5 13479.3 807.952   2
   3   0  -5 12491.6 556.229   1
  -3   0   5 12358.4 543.401   1
  -3   3   5 12088.5 746.155   1
   3   0   5 11956.7 761.486   1
  -3   0  -5 11777.9 779.081   1
   0  -3   5 13143.7 722.739   2
   3  -3   5 12592.3 714.636   1
   0   3   6 10119.4 748.224   1
  -3   0  -6 8856.92 707.528   1
  -3   3   6 10329.0 686.695   1
   0  -3  -6 9464.86 690.250   2
  -3   0   6 10348.1 479.772   1
   0  -3   6 10894.5 369.962   1
   0  -3  -6 9198.33 725.829   1
   3  -3   6 13588.7 743.539   1
   3   0   6 11793.3 775.963   1
   0  -3   6 9059.47 614.659   2
   0   3  -6 9450.16 367.725   1
   3  -3  -6 8539.25 504.801   2
  -3   3  -6 9655.93 657.008   1
   3   0  -6 10152.2 493.401   1
   3  -3  -6 8777.31 662.304   1
   3   0  -7 12552.0 558.304   1
  -3   3  -7 13629.4 815.238   1
   3   0   7 12515.9 836.920   1
  -3   0  -7 12156.4 852.373   1
   0  -3  -7 12246.2 834.717   2
  -3   3   7 13909.1 830.392   1
   3  -3   7 15263.2 807.537   1
   3  -3  -7 14585.7 672.955   2
   0   3   7 12649.7 875.992   1
   0  -3   7 12460.8 754.706   2
   3  -3  -7 14248.6 858.110   1
  -3   0   7 13835.3 559.977   1
   0  -3  -7 13918.5 916.598   1
  -3   0   9 8842.16 436.050   1
   3  -3  -9 8764.77 719.541   1
   3  -3   9 8594.15 670.558   1
   0   3   9 9594.96 826.886   1
   0  -3  -9 9191.15 780.680   2
   0  -3  -9 7719.59 712.549   1
   3  -3  -9 8689.22 544.001   2
   3   0  -9 9920.98 491.420   1
  -3   3   9 7498.18 650.226   1
  -3   3  -9 7771.86 654.136   1
  -3   0  -9 9155.45 777.640   1
   3   0   9 8366.26 740.624   1
   3  -3 -10 1740.73 307.279   1
   0  -3 -10 2331.61 434.243   1
   0  -3 -10 2075.31 411.712   2
   3   0  10 2398.40 449.023   1
   3  -3  10 3277.07 424.775   1
   0   3  10 2174.33 442.859   1
  -3   3 -10 1866.56 321.587   1
  -3   0 -10 2594.14 423.861   1
   3  -3 -10 1810.83 255.903   2
  -3   3  10 1876.11 353.920   1
  -3   0 -11 1348.24 358.792   1
  -3   3 -11 1139.26 305.820   1
   0  -3 -11 1543.70 414.880   1
   3   0  11 1184.64 307.193   1
   0  -3 -11 813.681 246.431   2
   3  -3 -11 1179.35 316.069   1
  -3   3  11 1103.86 296.853   1
   0   3  11 1192.72 329.091   1
   3  -3  11 963.309 273.872   1
  -3   0 -12 403406. 7279.51   1
   0   3  12 421503. 7271.71   1
   3   0  13 335.461 308.079   1
  -3   3  13 13.2790 165.228   1
   0   3  13 71.8756 205.027   1
  -3   0 -13-306.090 271.085   1
   0  -3 -13 380.373 278.559   2
   3  -3 -13 218.163 202.896   1
   0  -3 -13-133.304 227.207   1
   0  -3 -14 1155.11 397.951   2
  -3   0 -14 945.291 374.380   1
   0   3  14 736.698 335.430   1
   3   0  14 1003.34 341.271   1
   0  -3 -14 298.797 297.129   1
   0  -3 -15 727.822 394.563   1
  -3   0 -15 380.404 313.632   1
   0  -3 -15 951.830 438.777   2
   0   3  15 601.224 296.868   1
   3   0  15 430.832 209.413   1
   0  -3 -16 338747. 6869.20   1
  -3   0 -16 316750. 6658.74   2
  -3   0 -16 337521. 6876.80   1
   3   0  16 337062. 6729.39   1
   0   3  16 322644. 6692.55   1
  -3   0 -17 1252.57 406.041   2
  -2  -2 -17-37.1607 248.770   1
  -2  -2 -17 114.536 236.485   2
   2   2  17-458.118 363.758   1
  -2  -2 -16 531104. 9229.87   2
  -2  -2 -16 538098. 9378.39   1
   2   2  16 542702. 9369.15   1
  -2  -2 -15 409.781 277.039   2
   2   2  15 104.914 230.895   1
  -2  -2 -15 310.760 347.527   1
  -2  -2 -14 167851. 4391.45   1
   2   2  14 173985. 4369.40   1
  -2  -2 -13 304.482 284.201   2
  -2  -2 -13 138.168 227.182   1
   2   2  13 226.784 246.787   1
  -2  -2 -12 63234.6 2426.43   2
  -2  -2 -12 64487.0 2463.35   1
   2   2  12 65985.7 2414.50   1
   2   2  11 64.6839 169.446   1
  -2  -2 -11 555.554 272.493   2
  -2  -2 -11 35.5794 219.860   1
  -4   2  11 90.7839 170.192   1
   2   2  10 278091. 5285.53   1
  -2  -2 -10 259695. 5252.60   1
  -4   2  10 252548. 4513.58   1
  -2  -2 -10 290164. 5425.07   2
  -2  -2  -9 153.214 215.022   2
  -4   2   9-21.9279 116.587   1
  -2  -2  -9 46.9000 178.069   1
   2  -4   9 123.497 131.126   1
  -2   4  -9 81.8981 115.367   1
   2   2   9 144.813 244.172   1
   4  -2  -9 353.515 191.901   1
   2   2   7 14.6801 153.769   1
   2  -4   7 315.822 245.734   2
  -2  -2  -7 44.9520 204.025   2
  -2  -2  -7 421.844 265.561   1
  -2   4  -7 106.229 110.459   1
   4  -2  -7 188.518 139.867   1
  -4   2   7 237.847 179.385   1
   2  -4   6 1180.23 275.947   2
   4  -2  -6 420.457 161.600   1
  -2   4  -6 761.443 197.598   1
  -2  -2  -6 770.555 278.751   1
   2  -4   6 915.172 181.204   1
  -4   2   6 886.975 218.001   1
   2   2   6 912.720 268.695   1
  -2  -2  -6 1316.82 291.878   2
   2   2   5 112.336 162.335   1
  -4   2   5 24.8701 142.566   1
  -2   4  -5 200.019 141.661   1
  -2  -2  -5 96.6257 168.215   1
   2  -4   5 378.025 114.950   1
   2  -4   5 127.087 179.266   2
   4  -2  -5 223.095 194.951   1
  -2  -2  -5 236.495 214.180   2
  -2  -2  -3 651.183 212.441   2
   4  -2  -3 114.380 132.712   1
   2  -4   3-22.8894 143.802   2
  -2   4  -3 248.163 151.683   1
  -4   2   3 444.337 191.917   1
   2   2   3-115.998 188.319   1
  -2  -2  -3 81.9149 170.227   1
  -2  -2  -1 306.084 174.740   2
   2  -4   1 177.487 178.347   2
   2  -4   1 615.700 199.997   1
  -2  -2  -1 392.316 170.987   1
  -2   4  -1 314.712 177.001   1
   4  -2  -1 627.290 171.716   1
  -4   2   1 284.138 102.674   1
   2   2   1 258.551 154.393   1
   4  -2   1-24.5357 118.914   1
  -4   2  -1 234.214 199.111   1
   2   2  -1 91.1462 105.958   1
  -2  -2   1 11.7354 99.0222   1
   2  -4  -1 26.9027 160.156   2
  -2   4   1-56.5395 159.998   1
   2  -4  -1 96.6764 132.744   1
  -2  -2   1 314.614 174.954   2
   2   2  -3-24.4007 102.188   1
  -2   4   3 79.2272 152.435   1
  -2  -2   3-90.9191 91.2857   1
  -2  -2   3 45.4711 117.295   2
   2  -4  -3 567.248 221.153   1
   2  -4  -3-198.481 191.782   2
  -4   2  -3 609.579 258.823   1
   4  -2   3-86.0321 174.037   1
  -2   4   5 237.451 176.717   1
  -4   2  -5-98.7179 150.735   1
  -2  -2   5 175.160 119.641   2
   2  -4  -5 337.495 208.945   1
  -2  -2   5 171.260 74.3249   1
   2   2  -5 145.401 53.0057   1
   4  -2   5 285.609 182.575   1
   2  -4  -5 170.319 167.903   2
   2  -4  -6 511.790 204.202   2
   4  -2   6 57.6200 177.077   1
   2  -4  -6 516.466 245.929   1
  -4   2  -6 625.939 199.159   1
  -2   4   6 286.820 212.188   1
  -2  -2   6 569.384 148.155   2
   2  -4  -7-115.735 197.441   1
   2  -4  -7-48.0271 131.591   2
  -4   2  -7 20.1845 162.879   1
  -2  -2   7 157.815 157.728   2
   4  -2   7 323.255 232.840   1
  -2   4   7 131.962 162.937   1
   2  -4  -9 181.630 175.913   1
  -4   2  -9 220.108 218.032   1
   2  -4  -9 158.258 159.823   2
  -2  -2   9 149.478 121.912   2
   4  -2   9 155.608 146.102   1
  -2   4   9 86.3266 195.079   1
   2  -4 -10 197897. 4306.08   1
   2  -4 -10 205511. 4044.15   2
  -4   2 -10 201169. 4272.54   1
  -2   4  10 187468. 4140.55   1
   4  -2  10 198603. 4187.63   1
   2  -4 -11-44.4287 143.851   2
  -2   4  11 460.733 290.037   1
   4  -2  11 267.722 215.374   1
  -4   2 -11-26.0180 171.250   1
   2  -4 -11 44.4774 207.810   1
   2  -4 -12 60071.7 2108.25   2
   2  -4 -12 58763.3 2265.49   1
   4  -2  12 61192.0 2237.52   1
  -2   4  12 61324.6 2284.10   1
  -4   2 -12 58993.4 2273.27   1
   2  -4 -13 291.203 210.095   1
  -2   4  13 34.9954 262.862   1
  -4   2 -13-12.0533 259.228   1
   4  -2  13 530.458 362.183   1
  -2   4  14 62649.0 2445.07   1
   2  -4 -14 56243.1 2396.20   1
  -4   2 -14 59121.5 2415.23   1
   4  -2  14 62947.8 2412.02   1
  -4   2 -15 580.113 333.804   1
   2  -4 -15 160.208 201.020   1
  -2   4  15-123.446 223.823   1
   2  -4 -16 631162. 10363.6   1
  -3  -1 -18 179230. 4968.83   2
  -1  -3 -17 25035.5 1754.12   1
  -3  -1 -17 23517.4 1709.99   1
   3   1  17 23203.7 1647.86   1
  -3  -1 -17 21455.2 1637.88   2
   1   3  17 21106.9 1604.08   1
  -1  -3 -16 588.086 392.475   2
  -3  -1 -16 921.908 367.354   2
  -1  -3 -16 1110.70 420.489   1
   1   3  16 625.432 369.298   1
  -3  -1 -16 1887.05 546.476   1
   3   1  16 518.714 361.186   1
   1   3  15 196577. 4936.61   1
  -1  -3 -15 206248. 4953.77   2
  -3  -1 -15 208769. 5000.52   2
   3   1  15 205565. 5018.31   1
  -3  -1 -15 194189. 4973.14   1
  -1  -3 -15 200059. 5035.77   1
  -3  -1 -14 84318.2 3032.75   2
  -1  -3 -14 90110.5 3110.46   1
   3   1  14 83240.1 2944.23   1
   1   3  14 85257.6 3029.62   1
  -1  -3 -14 92452.4 3036.37   2
  -3  -1 -14 88277.4 3071.07   1
  -3  -1 -13 251018. 5400.14   2
   1   3  13 254843. 5434.88   1
  -1  -3 -13 247912. 5325.38   2
   3   1  13 251636. 5368.15   1
  -3  -1 -13 244150. 5407.63   1
  -1  -3 -13 251316. 5438.05   1
   4  -3 -12 17377.1 1138.35   1
   3   1  12 20263.9 1333.13   1
  -1  -3 -12 21040.1 1367.95   1
  -3  -1 -12 18836.2 1299.05   2
  -4   3  12 18678.6 1123.01   1
  -3  -1 -12 20408.6 1365.22   1
   1   3  12 20992.0 1364.93   1
  -1  -3 -12 20355.1 1341.72   2
  -4   3  11 9857.32 809.403   1
  -3   4 -11 10000.4 748.881   1
   4  -3 -11 9772.16 838.230   1
   3  -4  11 9594.88 741.951   1
  -1  -3 -11 10841.5 939.753   2
  -3  -1 -11 10976.0 985.712   1
   3   1  11 11292.3 935.049   1
   1   3  11 9626.26 918.810   1
  -1  -3 -11 10139.4 918.202   1
  -3  -1 -11 11813.4 994.780   2
  -1  -3  -9 8195.10 805.246   1
  -3  -1  -9 9415.31 840.111   1
   1   3   9 7863.91 782.397   1
   3   1   9 8782.92 795.861   1
   4  -3  -9 10939.0 802.775   1
   1  -4   9 10353.8 795.862   2
   3  -4   9 7513.47 622.542   1
  -4   3   9 8440.76 707.715   1
  -3  -1  -9 8689.35 767.894   2
  -4   1   9 8665.51 587.286   1
  -1  -3  -9 8996.33 789.371   2
  -3   4  -9 8173.89 659.859   1
   4  -1  -9 8482.47 585.829   1
  -3  -1  -8 254561. 4832.86   2
  -3  -1  -8 252665. 4855.06   1
   3   1   8 253094. 4792.08   1
   1   3   8 262016. 4866.89   1
   4  -3  -8 254888. 4579.04   1
  -1  -3  -8 248496. 4828.31   1
  -1  -3  -8 256591. 4789.58   2
  -1  -3  -7 360680. 6082.75   1
  -4   3   4 20373.1 993.806   1
   4  -3  -4 18940.6 969.280   1
  -4   1   4 18447.3 839.322   1
   3  -4   4 20338.3 1042.45   2
  -3  -1  -4 20354.7 1034.25   2
  -1  -3  -4 20145.7 1055.06   1
  -1   4  -4 16634.1 752.351   1
   4  -1  -4 18761.4 848.823   1
   1   3   4 18837.2 1024.31   1
  -1  -3  -4 19731.8 1019.96   2
   1  -4   4 17751.3 767.064   1
  -3   4  -4 19067.5 911.271   1
  -3  -1  -4 19576.6 1041.01   1
   3   1   4 18025.8 986.289   1
   4  -3  -4 19254.0 788.406   2
   3  -4   4 18931.6 907.458   1
   1  -4   4 17847.1 928.597   2
  -1   4   0 58818.2 1640.50   1
  -4   1   0 61603.2 1690.79   1
  -1  -3   0 61198.7 1692.84   2
  -4   3   0 56260.8 1677.43   1
   1   3   0 58832.0 1597.26   1
   3   1   0 56117.4 1588.12   1
   4  -1   0 60259.9 1655.88   1
   3  -4   0 57326.0 1670.93   1
  -3   4   0 54945.8 1666.05   1
   1  -4   0 61969.6 1734.11   2
  -1  -3   0 60041.8 1622.17   1
  -3  -1   0 53023.0 1555.01   1
   3  -4   0 57810.4 1667.34   2
   1  -4   0 60822.9 1661.04   1
  -3  -1   0 60244.2 1607.30   2
   4  -3   0 55691.6 1667.36   1
   1  -4  -3 42262.7 1499.04   1
   1   3  -3 40109.8 1116.55   1
   4  -3   3 38691.4 1402.44   1
  -3  -1   3 44129.4 1207.93   2
  -3  -1   3 42066.7 1161.37   1
   3  -4  -3 40713.6 1470.25   1
  -1  -3   3 45123.9 1162.18   1
  -1  -3   3 41988.7 1331.41   2
  -4   3  -3 40821.9 1441.97   1
   3   1  -3 36089.1 1108.20   1
  -4   1  -3 39304.1 1436.22   1
   4  -1   3 40295.8 1440.01   1
  -3   4   3 37798.9 1422.25   1
   3  -4  -3 38446.5 1309.49   2
  -1   4   3 38917.9 1449.02   1
   1  -4  -3 40654.9 1440.88   2
  -4   3  -4 273727. 4565.43   1
   3  -4  -4 260735. 4605.27   1
  -3   4   5 50207.5 1671.76   1
  -1  -3   5 46159.2 1447.79   2
   3  -4  -5 44501.1 1626.60   1
  -1   4   5 52540.7 1761.55   1
  -1  -3   5 44457.1 958.558   1
   1   3  -5 43308.7 993.109   1
   1  -4  -5 49949.1 1730.02   1
  -3  -1   5 46419.3 1132.43   2
   1  -4  -5 48223.1 1624.65   2
   4  -1   5 49846.5 1689.09   1
  -4   3  -5 45642.7 1602.66   1
   3   1  -5 44454.6 1119.64   1
   3  -4  -5 42055.9 1406.97   2
  -4   1  -5 50517.0 1689.42   1
   4  -3   5 45879.1 1553.85   1
  -3  -1   5 47420.9 1137.63   1
  -4   1  -7 260411. 4808.81   1
   1  -4  -7 260859. 4858.47   1
   1  -4  -8 6433.88 679.210   1
   4  -1   8 6341.29 650.325   1
  -1  -3   8 8079.84 622.582   2
  -1   4   8 7436.29 712.219   1
   3  -4  -8 6938.40 654.696   1
  -4   3  -8 8047.22 695.182   1
  -4   1  -8 6655.50 683.309   1
   4  -3   8 6977.87 622.697   1
  -3   4   8 6636.70 625.990   1
   1  -4  -8 7038.49 669.090   2
   3  -4  -8 6596.70 574.375   2
  -3   4  10 138791. 3429.79   1
  -1   4  10 146670. 3633.32   1
   3  -4 -10 156913. 3691.25   1
   1  -4 -10 148985. 3540.07   2
   3  -4 -10 164609. 3254.18   2
  -4   1 -10 154538. 3722.67   1
   1  -4 -10 140360. 3610.48   1
  -4   3 -10 155006. 3544.74   1
   4  -1  10 147747. 3569.07   1
   4  -3  10 161209. 3537.74   1
  -1   4  11 181988. 4189.12   1
  -4   3 -11 174280. 3989.77   1
   3  -4 -11 180601. 3594.90   2
  -4   1 -11 183434. 4256.36   1
   4  -3  11 186175. 3982.56   1
   4  -1  11 175933. 4092.00   1
   1  -4 -11 181069. 4239.70   1
   1  -4 -11 177885. 4060.23   2
  -3   4  11 175208. 3993.84   1
   1  -4 -12 6292.65 763.807   1
  -3   4  12 6196.71 728.101   1
   4  -3  12 5967.47 660.117   1
   1  -4 -12 6657.32 760.329   2
  -4   1 -12 6071.49 704.370   1
   4  -1  12 7107.41 782.563   1
  -1   4  12 6328.61 737.391   1
  -4   3 -12 7385.54 747.648   1
   3  -4 -12 6255.73 723.046   1
   3  -4 -13 10692.9 976.217   1
  -3   4  13 9277.68 868.724   1
   4  -3  13 9874.67 875.165   1
  -4   1 -13 9228.95 929.971   1
  -1   4  13 10719.3 992.955   1
   4  -1  13 9788.80 929.531   1
   1  -4 -13 9685.06 942.681   1
  -4   3 -13 9392.68 881.748   1
   1  -4 -13 9789.88 924.251   2
  -4   1 -14 387165. 7226.41   1
   1  -4 -14 361970. 7076.34   1
   1  -4 -14 365507. 6799.50   2
   4  -1  14 396159. 7137.30   1
  -1   4  14 355303. 6898.59   1
   3  -4 -14 390629. 7045.40   1
  -3   4  14 381395. 6921.70   1
  -1   4  15 39952.4 2052.75   1
  -4   1 -15 42195.9 2123.02   1
   4  -1  15 40565.8 2036.63   1
   3  -4 -15 38619.7 1952.81   1
   1  -4 -15 46202.1 2224.10   1
  -4   1 -16 86778.0 3265.66   1
  -1   4  16 89466.1 3192.76   1
   1  -4 -16 91961.8 3337.58   1
   1  -4 -17 100883. 3592.70   1
   4   0   0 58850.1 1712.77   1
   4  -4   0 66128.1 1881.16   1
  -4   4   0 62781.0 1869.60   1
   0  -4   0 60064.7 1706.76   1
   0  -4   0 61465.9 1823.03   2
  -4   0   0 64330.6 1804.32   1
   0   4   0 58263.0 1723.11   1
   4  -4   0 62735.2 1794.75   2
   4  -4  -4 163689. 3409.34   1
   0  -4  -4 164152. 3407.42   2
   0  -4  -4 157274. 3428.91   1
  -4   0  -4 169954. 3487.74   1
   0  -4   4 157530. 3187.24   2
   0  -4   4 158514. 2728.83   1
   4   0  -4 154633. 2870.60   1
   0   4   4 151162. 3394.65   1
  -4   0   4 166039. 2907.41   1
   4  -4  -4 159048. 3001.85   2
   4   0   4 151223. 3314.93   1
   4  -4   4 157838. 3235.82   1
  -4   4   4 170953. 3411.95   1
  -4   4  -4 159041. 3283.01   1
   4   0   5 94350.1 2545.90   1
   0  -4   5 94837.4 1865.19   1
   0   4   5 98081.2 2631.98   1
   0   4  -5 97972.2 1894.70   1
   0  -4  -5 98296.8 2555.75   2
  -4   0   5 96818.5 2036.41   1
   0  -4   5 98266.2 2392.58   2
  -4   0  -5 99220.3 2614.74   1
   4  -4  -5 96922.3 2172.38   2
   4  -4  -5 93779.9 2515.34   1
  -4   4  -5 92926.2 2418.22   1
  -4   0   5 84997.5 1634.99   2
   4  -4   5 104228. 2490.79   1
   0  -4  -5 98721.6 2632.87   1
   4   0  -5 96222.5 2070.88   1
  -4   4   5 106607. 2577.36   1
   4  -4  -6 30501.4 1120.46   2
  -4   0  -6 28331.3 1370.31   1
   4   0   6 26402.0 1299.15   1
   4  -4   6 26054.1 1185.86   1
   0  -4   6 25901.8 800.223   1
  -4   0   6 25199.5 615.196   2
   0   4  -6 27837.7 845.922   1
  -4   0   6 29932.4 1015.22   1
   4  -4  -6 28293.1 1320.95   1
   0  -4   6 26983.8 1234.96   2
   0  -4  -6 31093.5 1424.77   1
   0   4   6 28539.7 1395.39   1
  -4   4  -6 29272.1 1275.12   1
   0  -4  -6 28288.1 1341.81   2
   4   0  -6 24595.1 944.399   1
  -4   4   6 26947.7 1261.21   1
   0  -4  -7 5952.63 633.262   2
   4  -4  -7 6732.55 654.529   1
   0   4  -7 5341.67 318.664   1
  -4   0   7 6236.09 430.918   1
   4  -4   7 6078.62 561.993   1
  -4   4   7 6149.22 573.117   1
  -4   0  -7 4590.24 568.740   1
  -4   4  -7 5937.85 588.009   1
   4   0  -7 5185.79 401.357   1
   4  -4  -7 6187.72 485.161   2
   0  -4  -7 5425.67 623.378   1
   4   0   7 5237.33 614.331   1
   0   4   7 5483.12 642.595   1
   0  -4   7 6763.63 603.494   2
   0  -4   8 4518.82 514.302   2
  -4   0   8 4448.18 355.549   1
   0  -4  -8 4359.47 573.610   2
   4   0  -8 5916.90 416.215   1
   4   0   8 3685.57 524.465   1
   0   4   8 4008.85 549.159   1
  -4   0  -8 4510.53 594.049   1
  -4   4   8 4652.84 538.922   1
   0  -4  -8 4161.05 585.827   1
   4  -4   8 4975.42 535.295   1
   4  -4  -8 3992.97 412.941   2
   4  -4  -8 4084.45 535.005   1
  -4   4  -8 4745.60 542.309   1
   0  -4   9 65585.8 2106.76   2
  -4   4  -9 70765.7 2186.72   1
   4   0   9 67842.0 2306.19   1
   0  -4  -9 66041.3 2283.98   2
   4  -4   9 72072.8 2140.18   1
  -4   0  -9 61316.0 2243.70   1
  -4   4   9 62691.9 2130.80   1
   4  -4  -9 71301.5 1825.24   2
   0  -4  -9 72063.8 2458.74   1
   0   4   9 71488.7 2418.82   1
   4  -4  -9 65365.2 2231.62   1
   4  -4 -10 447917. 7358.54   1
  -4   0 -10 453933. 7581.17   1
  -4   0 -11 349506. 6606.23   1
   4   0  11 354647. 6552.60   1
  -4   4  11 390443. 6473.39   1
   0   4  11 368552. 6693.21   1
   0  -4 -11 372820. 6763.06   1
   0  -4 -11 366716. 6588.10   2
   4  -4 -11 366492. 6462.34   1
   0  -4 -12 110690. 3248.31   2
   4  -4  12 108835. 2975.44   1
  -4   0 -12 106386. 3306.74   1
   4   0  12 102868. 3170.11   1
   4  -4 -12 103641. 3082.49   1
   0   4  12 108155. 3248.86   1
  -4   4  12 115810. 3144.47   1
  -4   4 -12 109080. 3063.42   1
   0  -4 -12 109854. 3339.50   1
   4  -4 -13 249692. 5218.25   1
   0  -4 -13 240863. 5240.79   2
   4   0  13 235232. 5220.57   1
  -4   0 -13 244248. 5391.35   1
  -4   4  13 250776. 5096.11   1
   0   4  13 229619. 5192.53   1
   4  -4 -14 394415. 7269.43   1
   0   4  14 413786. 7634.05   1
   0  -4 -14 404761. 7689.98   1
  -4   0 -14 403137. 7651.45   1
   0  -4 -14 420504. 7662.85   2
   0  -4 -15 37172.1 2065.59   1
   0   4  15 38996.7 2064.83   1
   4   0  15 37521.7 2025.48   1
  -4   0 -15 34548.7 1946.77   2
  -4   0 -15 39544.6 2083.79   1
   0  -4 -15 35794.0 1977.64   2
  -4   0 -16 1642.62 496.779   2
   4   0  16 2005.59 518.270   1
   0   4  16 1694.82 458.662   1
   0  -4 -16 2388.79 542.800   1
  -4   0 -16 1932.70 477.787   1
   0  -4 -17 10418.0 1153.17   1
   0   4  17 12417.3 1231.68   1
  -4   0 -17 11104.8 1201.65   1
  -4   0 -17 9850.40 1082.09   2
  -4   0 -18 19693.3 1558.38   2
  -3  -2 -18 127478. 4201.79   1
   2   3  18 118994. 4094.61   1
  -2  -3 -18 121843. 4194.18   1
  -3  -2 -18 124560. 4102.30   2
   3   2  17 66996.9 2922.97   1
  -2  -3 -17 69484.4 2952.35   1
   2   3  17 64704.6 2881.35   1
  -2  -3 -17 66010.1 2910.95   2
  -3  -2 -17 58378.6 2686.03   2
  -3  -2 -17 63542.5 2866.51   1
  -3  -2 -16 30784.8 1910.27   2
   2   3  16 33761.4 1981.62   1
  -2  -3 -16 31396.1 1928.86   2
  -2  -3 -16 32528.7 1956.22   1
  -3  -2 -16 36741.6 2092.72   1
   3   2  16 33789.1 2000.85   1
  -2  -3 -15 31478.5 1864.63   1
  -3  -2 -15 34405.8 1941.54   1
   3   2  15 32609.2 1905.87   1
   2   3  15 32381.7 1867.49   1
  -3  -2 -15 32585.7 1823.08   2
  -2  -3 -15 30975.6 1879.91   2
  -2  -3 -14 199416. 4864.98   2
   2   3  14 194531. 4832.08   1
  -2  -3 -14 196854. 4921.10   1
   3   2  14 187648. 4781.23   1
  -3  -2 -14 192229. 4858.40   1
  -3  -2 -14 188973. 4789.82   2
  -3  -2 -13 23028.5 1486.68   2
   2   3  13 22259.1 1495.94   1
  -3  -2 -13 20917.4 1474.62   1
   3   2  13 22816.9 1486.51   1
  -2  -3 -13 20087.3 1396.90   2
  -2  -3 -13 21862.1 1487.37   1
  -2  -3 -12 10058.6 986.816   1
  -3  -2 -12 10274.1 1001.55   2
  -2  -3 -12 9185.88 911.148   2
   3   2  12 10055.6 972.334   1
  -3  -2 -12 9490.29 991.818   1
   2   3  12 9320.05 947.997   1
  -5   3  11 142468. 3402.46   1
  -2  -3 -11 142015. 3779.49   2
   5  -3 -11 151061. 3556.03   1
  -2  -3 -11 143250. 3835.84   1
  -3  -2 -11 150413. 3914.11   2
  -3  -2 -11 136748. 3799.41   1
   3   2  11 146802. 3841.52   1
   2   3  11 143613. 3839.47   1
  -3  -2 -10 213798. 4757.75   2
   2   3  10 206799. 4688.19   1
   5  -2 -10 224695. 4140.16   1
   5  -3 -10 216676. 4324.10   1
  -2  -3 -10 209798. 4673.89   2
  -5   2  10 227860. 4109.80   1
  -3  -2 -10 221064. 4840.87   1
  -3   5 -10 203670. 4019.29   1
   3   2  10 211212. 4682.40   1
  -2  -3 -10 196358. 4607.06   1
  -5   3  10 225912. 4326.33   1
   5  -3  -9 263500. 4806.06   1
  -5   2   9 251380. 4432.88   1
  -2  -3  -9 242025. 5038.58   2
  -5   3   9 245000. 4597.85   1
  -3  -2  -9 245098. 5082.38   2
  -2  -3  -9 231388. 5005.58   1
   3   2   9 250711. 5149.45   1
  -3  -2  -9 247680. 5158.44   1
   2  -5   9 247802. 4990.43   2
   2   3   9 256859. 5164.41   1
  -2  -3  -8 39503.0 1756.16   2
  -3  -2  -8 42697.8 1846.57   1
  -2   5  -8 40212.1 1387.79   1
  -3   5  -8 45638.4 1585.97   1
   2  -5   8 44071.8 1772.83   2
   3   2   8 42953.7 1839.34   1
  -5   3   8 40275.1 1585.63   1
   5  -3  -8 42053.5 1634.48   1
   3  -5   8 42952.1 1503.51   1
   3  -5   8 45061.3 1828.98   2
  -2  -3  -8 39906.1 1789.95   1
   5  -2  -8 39215.5 1483.89   1
  -5   2   8 45237.2 1557.06   1
  -3  -2  -8 41891.3 1833.04   2
   2   3   8 45841.3 1901.65   1
   2  -5   8 42756.3 1369.06   1
  -5   3   7 216876. 4088.00   1
   2  -5   7 202559. 4188.67   2
   5  -2  -7 212884. 3917.77   1
  -2   5  -7 219779. 3725.87   1
  -2  -3  -7 191940. 4260.96   2
  -3  -2  -7 211088. 4424.76   2
   5  -3  -7 211630. 4073.81   1
  -5   2   7 212191. 3848.02   1
   3  -5   7 210628. 4356.69   2
   3  -5   7 229202. 3947.39   1
  -3   5  -7 206277. 3898.24   1
  -3  -2  -7 208755. 4437.92   1
   3   2   7 204023. 4378.08   1
  -2  -3  -7 208538. 4464.11   1
   2   3   7 197034. 4313.30   1
  -3  -2  -5 252113. 4771.15   1
   2  -5   5 243184. 4538.79   2
  -2  -3  -5 248555. 4712.19   1
   3  -5   5 241711. 4617.67   2
  -2  -3  -5 246813. 4660.03   2
  -2  -3  -4 149875. 3334.76   2
  -3  -2  -4 143272. 3249.00   2
  -2  -3  -4 152787. 3361.24   1
  -3   5  -4 144275. 3049.19   1
   2   3   4 145610. 3300.10   1
  -2   5  -4 139855. 2898.14   1
   2  -5   4 139080. 3171.68   2
  -5   3   4 150207. 3151.75   1
  -3  -2  -4 144655. 3295.21   1
   3  -5   4 153970. 3346.84   2
   5  -3  -4 150100. 3163.18   1
   3  -5   4 145552. 3021.44   1
  -5   2   4 149271. 3069.95   1
   3   2   4 138973. 3247.40   1
   5  -2  -4 148040. 3071.27   1
   3  -5   3 125558. 2780.77   1
  -3   5  -3 128376. 2854.15   1
   5  -2  -3 131820. 2864.92   1
  -2   5  -3 122750. 2737.49   1
   3   2   3 136699. 3087.09   1
   2  -5   3 134772. 3038.84   2
  -5   3   3 126463. 2892.59   1
   5  -3  -3 132780. 2938.36   1
   2  -5   3 133957. 2783.07   1
  -5   2   3 133357. 2858.63   1
   2   3   3 125242. 2991.49   1
   3  -5   3 138430. 3105.66   2
  -3  -2  -3 143804. 3137.41   1
  -2  -3  -3 129545. 3012.76   1
  -2  -3  -3 141614. 3117.39   2
  -3  -2  -3 133909. 3020.15   2
   5  -3  -1 54830.4 1769.12   1
   2  -5   1 58994.2 1766.08   1
  -3  -2  -1 57372.4 1771.86   2
  -5   2   1 58366.7 1782.50   1
   3  -5   1 57091.3 1834.99   2
   5  -2  -1 52507.1 1708.52   1
   3  -5   1 58678.0 1795.26   1
   2  -5   1 56233.2 1824.77   2
  -2  -3  -1 53192.5 1718.53   1
  -3  -2  -1 57060.8 1770.90   1
   2   3   1 49774.2 1697.23   1
  -5   3   1 59143.0 1805.14   1
  -2  -3  -1 62545.4 1868.47   2
  -3   5  -1 55538.6 1783.44   1
  -2   5  -1 54336.7 1714.98   1
   3   2   1 53275.1 1751.25   1
   5  -2   0 27011.5 1191.89   1
  -3  -2   0 26090.0 1134.95   1
   3   2   0 26165.4 1142.65   1
  -2   5   0 25810.9 1173.48   1
   2   3   0 28570.9 1184.74   1
   3  -5   0 29826.9 1288.77   1
  -5   3   0 29072.4 1251.94   1
  -2  -3   0 26156.4 1143.53   1
   2  -5   0 29113.2 1241.54   1
   3  -5   0 26674.9 1222.07   2
  -3  -2   0 30205.5 1214.47   2
  -2  -3   0 27369.4 1187.33   2
  -3   5   0 27354.0 1214.01   1
   2  -5   0 25589.4 1204.70   2
   5  -3   0 27285.2 1229.83   1
  -5   2   0 27933.5 1223.56   1
  -2   5   1 156679. 3306.05   1
  -3  -2   1 154887. 3040.52   1
   3  -5  -1 170653. 3390.76   2
   3  -5  -1 168864. 3430.57   1
  -3   5   1 166298. 3401.10   1
   2  -5  -1 158400. 3290.77   1
  -5   2  -1 164132. 3343.12   1
  -2  -3   1 167187. 3245.13   2
  -5   3  -1 143673. 3230.73   1
   2   3  -1 160453. 3077.83   1
   2  -5  -1 165948. 3363.01   2
   3   2  -1 155588. 3072.41   1
   5  -2   1 152645. 3229.89   1
  -2  -3   1 158086. 3049.20   1
  -3  -2   1 156535. 3123.16   2
   5  -3   1 165461. 3372.01   1
  -5   2  -4 72898.3 2214.99   1
   2  -5  -4 70499.0 2104.15   2
   3  -5  -4 77713.2 2264.38   1
  -3   5   4 84990.4 2333.12   1
   5  -2   4 71711.9 2158.32   1
   5  -3   4 77091.8 2177.95   1
  -3  -2   4 70134.6 1830.96   2
  -2  -3   4 79234.3 1681.33   1
  -2  -3   4 72197.1 1913.48   2
   3   2  -4 76191.8 1751.13   1
   2   3  -4 73415.6 1685.07   1
  -3  -2   4 68987.8 1672.72   1
  -2   5   4 79829.7 2306.22   1
   3  -5  -4 71904.3 2074.76   2
   2  -5  -4 77515.5 2284.33   1
  -5   3  -4 72553.7 2205.57   1
   2  -5  -7 280911. 5343.39   1
  -5   3  -7 286565. 5244.33   1
   3  -5  -7 280587. 4983.73   2
   2  -5  -7 289756. 5181.58   2
   3  -5  -7 280147. 5271.98   1
   3  -5  -8 48227.7 1941.80   1
  -5   2  -8 47972.7 1879.52   1
   2  -5  -8 45373.6 1808.15   2
   5  -2   8 47857.0 1857.58   1
  -5   3  -8 49732.0 1907.49   1
  -2   5   8 47471.6 1923.80   1
   2  -5  -8 48912.0 1994.15   1
   5  -3   8 47290.5 1827.04   1
   3  -5  -8 48438.5 1765.76   2
  -2  -3   8 53205.8 1635.01   2
  -3   5   8 46310.7 1850.92   1
   3  -5  -9 51017.0 1812.59   2
  -5   2  -9 42913.9 1866.87   1
  -2   5   9 44541.9 1907.71   1
  -5   3  -9 46026.8 1882.30   1
  -3   5   9 38168.1 1746.94   1
   2  -5  -9 45549.0 1821.21   2
   2  -5  -9 48320.3 1988.24   1
   3  -5  -9 44324.9 1903.64   1
   5  -2   9 44281.5 1847.11   1
   5  -3   9 43206.2 1788.54   1
   5  -2  10 302857. 5754.87   1
   3  -5 -10 325787. 6022.35   1
   3  -5 -10 323763. 5522.56   2
  -5   2 -10 288958. 5777.09   1
  -2   5  10 311003. 5913.91   1
  -3   5  10 339136. 6047.78   1
   2  -5 -10 312490. 6013.45   1
   2  -5 -10 313930. 5725.46   2
   3  -5 -11 27599.2 1391.30   2
  -5   3 -11 24632.6 1449.20   1
  -3   5  11 22161.4 1396.55   1
  -2   5  11 21931.6 1381.42   1
   5  -3  11 25069.9 1408.29   1
   2  -5 -11 22133.2 1424.28   1
   2  -5 -11 22320.2 1367.00   2
   5  -2  11 22369.9 1357.70   1
   3  -5 -11 25409.0 1523.91   1
  -5   2 -11 22770.8 1434.28   1
   5  -2  12 40678.9 1889.19   1
   5  -3  12 35754.1 1767.69   1
   3  -5 -12 38645.2 1897.29   1
  -5   2 -12 35691.8 1825.35   1
   2  -5 -12 37749.2 1773.00   2
  -3   5  12 42877.4 1948.53   1
  -5   3 -12 38227.2 1882.64   1
  -2   5  12 40150.1 1955.53   1
   2  -5 -12 37552.9 1874.38   1
   5  -3  13 107375. 3256.06   1
  -3   5  13 106368. 3279.82   1
   2  -5 -13 104690. 3142.37   2
   3  -5 -13 107100. 3336.55   1
  -5   2 -13 98317.3 3242.12   1
  -5   3 -13 107542. 3328.28   1
   2  -5 -13 111232. 3434.06   1
   5  -2  13 107528. 3280.40   1
  -2   5  13 105264. 3307.18   1
   2  -5 -14 125896. 3809.88   1
  -5   2 -14 132517. 3851.01   1
   3  -5 -14 140247. 3927.57   1
  -2   5  14 124415. 3719.72   1
  -5   3 -14 127129. 3756.26   1
  -3   5  14 115370. 3582.15   1
   5  -2  14 139968. 3895.57   1
   5  -3  14 122652. 3624.96   1
   2  -5 -15 99016.5 3393.24   1
  -2   5  15 102835. 3417.62   1
  -5   2 -15 96880.3 3348.45   1
   5  -2  15 96625.8 3270.08   1
   3  -5 -15 94047.0 3280.09   1
  -2   5  16 8003.28 961.798   1
  -5   2 -16 8878.04 1043.13   1
   2  -5 -16 9403.18 1037.32   1
   3  -5 -16 9418.31 1029.09   1
   2  -5 -17 44419.6 2370.86   1
  -4  -1 -19 1463.03 531.829   2
  -4  -1 -18 1363.85 479.914   1
  -1  -4 -18 1918.86 528.438   1
   1   4  18 1612.33 477.799   1
  -4  -1 -18 2327.56 589.032   2
  -1  -4 -17 1833.89 475.744   1
   4   1  17 2606.66 604.081   1
  -4  -1 -17 1795.31 548.312   1
   1   4  17 2683.04 561.986   1
  -4  -1 -17 2351.10 553.314   2
  -1  -4 -16 103141. 3608.22   2
  -4  -1 -16 98224.3 3532.97   1
  -4  -1 -16 104230. 3567.37   2
  -1  -4 -16 100316. 3573.34   1
   1   4  16 93826.2 3437.77   1
   4   1  16 99855.6 3507.76   1
  -4  -1 -15 1545.34 459.577   2
  -4  -1 -15 1567.88 425.571   1
  -1  -4 -15 2126.63 503.496   1
   4   1  15 1270.33 435.918   1
  -1  -4 -15 1385.98 447.115   2
   1   4  15 1867.48 515.361   1
  -1  -4 -14 4606.39 708.557   2
   4   1  14 5143.61 791.192   1
  -1  -4 -14 5431.69 780.031   1
  -4  -1 -14 6164.16 830.658   1
   1   4  14 4572.93 708.517   1
  -4  -1 -14 4981.38 747.368   2
  -4  -1 -13 45.1477 232.025   1
   5  -4 -13 543.378 248.971   1
   1   4  13 212.086 216.248   1
  -1  -4 -13 69.2955 211.448   1
  -1  -4 -13 286.423 248.039   2
  -4  -1 -13 306.772 354.748   2
   4   1  13 296.524 251.937   1
  -5   4  11 526.873 201.052   1
   1   4  11 1081.54 336.298   1
  -1  -4 -11 552.898 263.246   1
  -4   5 -11 590.131 249.819   1
  -4  -1 -11 1285.28 395.901   1
   4   1  11 1079.39 357.396   1
  -1  -4 -11 428.669 189.406   2
  -4  -1 -11 1016.08 369.752   2
   5  -4 -11 975.780 243.470   1
  -1  -4 -10 7012.48 800.226   1
   1  -5  10 7129.73 766.377   2
   1   4  10 5848.44 731.011   1
  -1  -4 -10 7141.35 797.272   2
  -4  -1 -10 5621.41 708.437   2
   4   1  10 5955.28 700.087   1
  -4   5 -10 7194.88 709.543   1
   5  -4 -10 6780.80 722.176   1
  -5   4  10 7632.27 732.445   1
   4  -5  10 7370.28 677.212   1
  -4  -1 -10 6498.22 769.210   1
   4   1   9 5156.30 656.923   1
  -4  -1  -9 5508.52 695.260   2
  -5   4   9 5610.87 633.517   1
  -1  -4  -9 6099.61 695.737   1
  -4  -1  -9 5801.23 703.510   1
   4  -5   9 5819.02 582.455   1
  -1  -4  -9 6033.55 695.532   2
  -4   5  -9 5917.94 625.962   1
   5  -4  -9 7423.54 727.948   1
   1  -5   9 6046.70 694.196   2
   1   4   9 5107.58 649.067   1
  -5   4   8 202547. 4202.64   1
   4   1   8 201319. 4456.17   1
   1   4   8 203806. 4535.02   1
   5  -4  -8 205289. 4299.97   1
  -4   5  -8 215601. 4251.95   1
  -1  -4  -8 220075. 4652.70   1
   4  -5   8 217248. 4117.06   1
  -4  -1  -8 211115. 4552.65   1
   5  -1  -8 196058. 3717.10   1
  -4  -1  -8 232350. 4702.79   2
  -1  -4  -8 215935. 4597.92   2
   1  -5   8 229436. 4449.66   2
  -4   5  -7 3368.14 468.954   1
   4  -5   7 3555.19 464.510   1
   1   4   7 2791.09 472.061   1
   5  -4  -7 3789.23 517.452   1
  -1  -4  -7 3117.63 510.954   1
  -4  -1  -7 2571.01 441.931   1
   5  -1  -7 2970.25 382.605   1
  -1   5  -7 3557.24 344.645   1
  -5   4   7 3762.45 489.995   1
   4   1   7 3166.74 508.078   1
   5  -4  -7 3544.17 380.682   2
  -1  -4  -7 2583.06 493.591   2
   1  -5   7 2840.97 304.048   1
   1  -5   7 3003.13 452.660   2
  -5   1   7 3287.22 393.164   1
  -4  -1  -7 3157.90 488.968   2
  -5   4   6 13955.5 935.415   1
   1   4   6 12203.6 951.249   1
   4  -5   6 14104.8 885.707   1
  -1  -4  -6 15685.8 1054.87   2
  -4  -1  -6 14195.0 1001.31   1
  -4   5  -6 14051.4 915.471   1
   1  -5   6 12303.1 676.596   1
  -1  -4  -6 14000.7 1018.44   1
   4   1   6 13310.3 955.439   1
   5  -4  -6 15712.9 821.740   2
   5  -1  -6 11326.4 731.978   1
   4  -5   6 14607.3 1032.94   2
   1  -5   6 14662.0 952.178   2
  -5   1   6 12786.4 758.363   1
  -4  -1  -6 13837.8 993.565   2
  -1   5  -6 13736.4 737.218   1
   1  -5   5 37997.4 1516.08   2
   4  -5   5 34094.7 1572.83   2
   5  -4  -5 33865.9 1218.36   2
   5  -1  -5 31878.1 1262.48   1
  -1   5  -5 34508.9 1214.77   1
  -1  -4  -5 31961.5 1474.80   2
   4  -5   5 34378.9 1385.21   1
  -4  -1  -5 35026.6 1514.33   2
  -5   4   5 34509.8 1471.45   1
  -1  -4  -5 34636.4 1551.66   1
   1   4   5 33769.1 1525.73   1
  -5   1   5 38151.8 1354.30   1
  -4   5  -5 32156.0 1397.87   1
  -5   1   5 31742.0 916.834   2
   1  -5   5 38365.2 1254.36   1
   4   1   5 34396.9 1526.37   1
   5  -4  -5 33179.0 1456.45   1
  -4  -1  -5 37123.1 1582.56   1
   4  -5   3 5859.31 578.432   1
   1   4   3 5503.32 603.633   1
   4   1   3 5883.05 605.048   1
   5  -4  -3 4190.01 464.121   2
   5  -1  -3 4685.85 476.976   1
   1  -5   3 4800.78 517.130   2
  -1  -4  -3 5536.10 581.871   2
  -4  -1  -3 5058.71 559.780   2
  -1   5  -3 4716.32 460.558   1
   4  -5   3 4988.09 573.097   2
  -5   4   3 4975.13 560.183   1
  -4  -1  -3 5102.48 570.470   1
   1  -5   3 4924.70 475.953   1
   5  -4  -3 4920.48 540.046   1
  -1  -4  -3 5386.88 581.237   1
  -4   5  -3 5341.16 547.018   1
  -5   1   3 5077.18 491.679   1
  -5   1   2 42001.4 1494.89   1
  -4  -1  -2 47166.7 1638.32   2
   4  -5   2 47250.8 1707.96   2
  -1   5  -2 42041.7 1473.43   1
   1  -5   2 45902.4 1659.54   2
   5  -4  -2 46348.6 1661.17   1
   5  -4  -2 49099.2 1594.48   2
  -4  -1  -2 44471.2 1637.39   1
  -1  -4  -2 47111.5 1652.38   1
   5  -1  -2 40673.3 1461.65   1
  -1  -4  -2 48119.0 1702.92   2
   1  -5   2 45720.1 1494.67   1
  -5   4   2 45119.2 1651.38   1
  -4   5  -2 42212.9 1598.58   1
   4   1   2 47546.9 1693.42   1
   4  -5   2 43953.1 1599.00   1
   1   4   2 42544.8 1615.44   1
   1  -5   1 268.043 178.125   1
  -1  -4  -1 39.8282 138.906   1
   4  -5   1 343.240 181.328   2
   4  -5   1 151.804 150.430   1
   5  -4  -1-47.6573 172.532   2
  -1   5  -1 355.115 142.584   1
  -4   5  -1 157.922 149.015   1
  -4  -1  -1 303.355 212.413   2
  -4  -1  -1 56.2013 139.667   1
  -1  -4  -1 109.895 151.332   2
   4   1   1 253.642 163.060   1
   1   4   1 327.655 190.035   1
  -5   4   1 57.2592 155.605   1
   5  -1  -1 435.188 196.419   1
   1  -5   1 103.426 196.943   2
  -5   1   1 410.062 199.331   1
   1  -5  -1 18397.5 1014.81   1
   4   1  -1 18739.4 957.229   1
  -1  -4   1 19374.5 932.905   1
  -5   4  -1 17158.9 978.576   1
   5  -4   1 17036.2 969.925   1
  -4  -1   1 22387.2 1029.46   1
  -1   5   1 19747.3 1063.19   1
  -4   5   1 15476.7 974.892   1
   1  -5  -1 18743.5 1047.29   2
   1   4  -1 18389.3 964.452   1
   4  -5  -1 15617.7 932.869   2
   5  -1   1 18673.2 1021.67   1
  -5   1  -1 22141.0 1091.54   1
  -1  -4   1 18903.0 995.391   2
   4  -5  -1 15954.7 978.652   1
  -4  -1   1 17843.1 888.844   2
  -1  -4   2 108010. 2362.73   1
   5  -1   2 93849.8 2489.48   1
   4   1  -2 107906. 2401.52   1
  -4   5   2 98478.3 2607.33   1
  -1   5   2 100344. 2588.68   1
   4  -5  -2 101472. 2651.62   1
   1  -5  -2 103584. 2622.52   1
  -5   1  -2 105117. 2623.35   1
  -5   4  -2 100925. 2588.95   1
   1   4  -2 102019. 2319.16   1
   1  -5  -2 95180.7 2528.39   2
   5  -4   2 98361.7 2549.34   1
   4  -5  -2 99131.1 2474.85   2
  -1  -4   2 102905. 2473.11   2
  -4  -1   2 93848.9 2256.03   1
  -4  -1   2 99956.3 2276.28   2
  -1  -4   3 10774.9 629.583   1
   1  -5  -3 8191.83 703.469   2
   1  -5  -3 8951.29 752.033   1
  -5   4  -3 11183.3 806.209   1
   5  -4   3 10234.4 769.713   1
  -4  -1   3 9520.79 646.454   2
   4  -5  -3 10936.8 836.760   1
   4   1  -3 9182.69 626.982   1
  -1   5   3 9742.93 769.907   1
   1   4  -3 9424.54 617.037   1
  -4  -1   3 8681.31 608.127   1
  -5   1  -3 9452.82 752.579   1
  -1  -4   3 9471.20 694.740   2
   5  -1   3 8915.01 731.221   1
  -4   5   3 10860.5 810.248   1
   4  -5  -3 10168.1 717.830   2
  -5   1  -5 8609.35 759.861   1
   5  -4   5 8876.56 738.788   1
   5  -1   5 7628.66 711.697   1
   4  -5  -5 8948.22 777.883   1
  -1  -4   5 9908.11 530.771   1
   1  -5  -5 8607.82 739.863   2
   1   4  -5 8869.32 511.141   1
  -1  -4   5 9860.56 712.845   2
  -4  -1   5 8195.65 549.620   1
  -5   4  -5 8565.98 752.065   1
  -1   5   5 7919.97 737.896   1
  -4   5   5 8608.84 726.514   1
  -4  -1   5 9310.23 557.032   2
   4  -5  -5 9161.78 688.010   2
   1  -5  -5 8339.56 762.472   1
   4   1  -5 9265.57 586.204   1
  -4   5   6 47675.2 1775.09   1
   1  -5  -6 41876.9 1770.80   1
   1   4  -6 42048.4 1062.54   1
   4   1  -6 38773.5 1201.03   1
  -4  -1   6 39546.6 1115.14   2
   5  -1   6 42654.4 1726.08   1
  -1  -4   6 41413.0 1526.76   2
   5  -4   6 44582.7 1677.25   1
  -1   5   6 42583.0 1789.71   1
  -5   1  -6 41324.7 1710.10   1
   4  -5  -6 39402.2 1680.03   1
   1  -5  -6 39642.6 1666.85   2
   4  -5  -6 41570.3 1510.90   2
  -1  -4   6 39309.1 1021.83   1
  -4  -1   6 35714.7 1143.29   1
  -5   4  -6 43800.8 1741.98   1
   5  -4   7 28306.5 1362.24   1
   4  -5  -7 29899.9 1497.80   1
  -4   5   7 33025.2 1493.48   1
  -5   4  -7 29496.6 1426.66   1
   4  -5  -7 33512.2 1351.57   2
  -1   5   7 30525.3 1532.84   1
  -5   1  -7 32120.1 1544.98   1
   5  -1   7 31663.5 1531.19   1
   1  -5  -7 31312.1 1489.21   2
   1  -5  -7 31804.9 1574.66   1
   4   1  -7 33308.8 1032.48   1
  -1  -4   7 33398.8 1388.03   2
   5  -1   8 250147. 5028.20   1
  -1   5   8 264359. 5218.22   1
   1  -5  -8 261462. 5055.22   2
   1  -5  -8 258433. 5196.04   1
  -5   1  -8 249688. 5080.71   1
  -5   4  -8 260441. 4987.57   1
  -4   5   8 268554. 5050.60   1
   4  -5  -8 261374. 5127.60   1
   4  -5  -9 4679.98 620.204   1
   5  -1   9 5647.75 677.636   1
  -5   1  -9 4929.55 625.724   1
   4  -5  -9 4906.46 549.191   2
  -5   4  -9 4134.52 556.886   1
  -4   5   9 4921.34 597.762   1
  -1   5   9 5005.10 658.619   1
   1  -5  -9 5220.80 633.469   2
   5  -4   9 5394.82 596.511   1
   1  -5  -9 5607.36 705.146   1
  -1  -4   9 4781.36 562.369   2
  -1  -4  10 13438.1 942.531   2
   1  -5 -10 13738.8 1069.87   1
   1  -5 -10 14446.8 1078.32   2
   4  -5 -10 14118.1 893.147   2
  -1   5  10 14423.7 1096.48   1
   5  -4  10 14866.9 1058.40   1
  -4   5  10 15079.4 1071.01   1
  -5   4 -10 14835.6 1064.28   1
  -5   1 -10 12900.3 1045.33   1
   4  -5 -10 15119.6 1139.25   1
   5  -1  10 13589.1 1063.72   1
   4  -5 -11 3042.11 551.008   1
   5  -1  11 2401.49 481.628   1
   1  -5 -11 2074.91 471.874   1
   1  -5 -11 2380.70 496.745   2
  -1   5  11 2393.51 517.401   1
   5  -4  11 3220.45 507.844   1
  -5   1 -11 2366.20 471.232   1
  -4   5  11 2297.39 405.303   1
  -5   4 -11 2638.77 492.480   1
  -5   4 -13 410.234 263.355   1
   5  -4  13-64.6699 257.013   1
   1  -5 -13 773.701 358.474   1
  -1   5  13 23.9672 269.384   1
  -4   5  13 67.2664 248.478   1
   5  -1  13 184.171 203.341   1
   4  -5 -13 194.737 201.251   1
  -5   1 -13 192.543 292.740   1
   1  -5 -13 223.758 205.967   2
   5  -1  14 11317.4 1090.66   1
  -5   1 -14 10400.0 1039.33   1
  -1   5  14 8489.35 930.823   1
  -4   5  14 9549.77 950.370   1
   1  -5 -14 11069.6 1062.51   1
   4  -5 -14 10237.9 992.292   1
   1  -5 -14 10966.3 1080.06   2
   1  -5 -15 1363.29 435.037   1
   4  -5 -15 1101.46 437.538   1
  -5   1 -15 1222.83 371.387   1
   5  -1  15 1485.10 419.668   1
  -1   5  15 957.100 351.923   1
   5  -1  16 190500. 4994.00   1
   1  -5 -16 181440. 4963.14   1
  -1   5  16 187878. 4951.86   1
  -5   1 -16 184392. 5049.51   1
  -1   5  17 744.856 376.157   1
   1  -5 -17 1016.95 427.728   1
  -5   1 -17 855.893 361.354   1
  -5   1 -18 14681.0 1388.14   2
  -5   1 -19 1951.52 541.853   2
   5  -5   0 177589. 3704.45   2
   5   0   0 183237. 3663.47   1
   5  -5   0 177062. 3774.07   1
   0  -5   0 188669. 3664.14   1
  -5   5   0 178594. 3777.56   1
   0   5   0 177413. 3647.54   1
  -5   0   0 181812. 3559.73   2
  -5   0   0 182595. 3628.96   1
   0  -5   0 181830. 3745.57   2
   0  -5  -3 303865. 5371.67   1
   5  -5  -3 297906. 5044.17   2
   5  -5  -3 291159. 5321.73   1
   5   0  -3 287651. 4873.99   1
  -5   5   3 311893. 5399.05   1
   0  -5  -3 308953. 5390.98   2
   5  -5  -4 9725.41 826.821   1
   0   5  -4 10313.6 674.978   1
   5  -5   4 11328.0 822.392   1
   5  -5  -4 12517.3 807.371   2
  -5   0  -4 12689.9 899.724   1
   0   5   4 10933.2 890.488   1
  -5   5  -4 9817.15 797.070   1
   0  -5   4 10488.2 811.889   2
   5   0  -4 9198.20 664.517   1
   0  -5  -4 11520.3 887.877   2
  -5   0   4 12231.4 771.740   1
   0  -5   4 11855.8 711.794   1
   5   0   4 10488.5 837.231   1
  -5   5   4 10342.6 842.736   1
  -5   0   4 10793.0 656.986   2
   0  -5  -4 12931.9 922.559   1
   0  -5  -5 23352.4 1294.85   1
  -5   5   5 22693.1 1245.16   1
  -5   5  -5 25115.1 1278.64   1
  -5   0  -5 25535.2 1363.79   1
   5  -5  -5 25710.1 1160.69   2
  -5   0   5 22456.5 1035.74   1
   0  -5   5 23341.1 961.244   1
   0  -5  -5 21715.3 1248.96   2
   0  -5   5 21539.4 1175.80   2
   0   5   5 24727.3 1342.23   1
   5   0  -5 23485.7 1060.51   1
   5   0   5 22853.1 1284.45   1
  -5   0   5 22431.8 860.573   2
   5  -5  -5 25659.5 1334.62   1
   5  -5   5 24799.4 1255.16   1
   0   5  -5 25435.9 1016.81   1
  -5   5  -6 3749.26 497.153   1
   0  -5   6 3319.66 434.348   2
   0   5  -6 2831.30 322.368   1
  -5   0   6 2980.18 357.326   1
  -5   5   6 3346.05 492.796   1
   0  -5  -6 2621.88 474.745   2
   5   0   6 2894.62 507.969   1
   5  -5  -6 3014.57 382.065   2
   0   5   6 3495.53 534.648   1
   5  -5   6 2948.61 468.530   1
   0  -5   6 3392.42 341.646   1
   0  -5  -6 3121.34 503.726   1
   5  -5  -6 2433.73 436.868   1
   5   0  -6 3158.73 383.818   1
  -5   0  -6 3244.80 534.566   1
  -5   0  -7 855.156 302.025   1
  -5   0   7 1009.05 209.990   1
   5  -5  -7 1614.50 384.907   1
  -5   5   7 1231.21 335.530   1
   5  -5   7 912.044 255.831   1
   0  -5   7 828.637 250.248   2
   0  -5  -7 1065.17 315.485   1
   5  -5  -7 977.726 261.132   2
  -5   5  -7 748.266 223.540   1
   0   5   7 1024.66 290.246   1
   5   0  -7 1013.28 263.768   1
   5   0   7 1256.37 374.466   1
   0  -5  -7 960.101 321.141   2
   5  -5  -8 3111.17 398.462   2
   5  -5   8 2911.27 459.496   1
  -5   5   8 2764.64 473.234   1
   0   5   8 2460.65 485.313   1
   5   0   8 2043.10 387.602   1
   0  -5  -8 2624.21 498.497   1
   0  -5  -8 3108.57 494.350   2
   5  -5  -8 3117.40 497.815   1
   0  -5   8 2634.85 432.299   2
  -5   5  -8 2678.39 470.421   1
  -5   0  -8 1928.63 396.967   1
  -5   5   9 92660.8 2793.63   1
   0  -5  -9 95763.0 2998.26   1
   0  -5  -9 93111.5 2887.88   2
   5   0   9 94976.4 2920.00   1
   0   5   9 89888.0 2899.60   1
   0  -5   9 95416.9 2764.41   2
  -5   0  -9 97001.8 2971.82   1
   5  -5   9 91126.4 2646.13   1
  -5   5  -9 85935.1 2691.54   1
   5  -5  11 315635. 5754.58   1
  -5   5  11 318931. 5969.25   1
   0   5  11 295887. 6059.13   1
  -5   0 -11 297822. 6077.59   1
   5   0  11 302123. 6054.23   1
  -5   5 -11 306451. 5840.17   1
   5  -5 -11 294639. 5975.64   1
   0  -5 -11 304615. 6055.12   2
   0  -5  11 294393. 5745.21   2
   0  -5 -11 296272. 6136.73   1
  -5   5  12 115287. 3338.87   1
   5   0  12 109257. 3397.74   1
   5  -5  12 110772. 3157.32   1
  -5   0 -12 111085. 3496.49   1
   0  -5 -12 109308. 3473.99   1
   0   5  12 109357. 3433.43   1
  -5   5 -12 105853. 3171.62   1
   5  -5 -12 114145. 3438.88   1
   0  -5 -12 110896. 3402.02   2
   5  -5 -13 215106. 4976.20   1
  -5   0 -13 197610. 4971.42   1
  -5   5  13 210203. 4816.63   1
   0  -5 -13 210731. 5016.90   2
   5   0  13 209159. 4966.32   1
   0  -5 -13 196739. 4961.56   1
   0   5  13 185506. 4778.94   1
   0  -5 -14 381562. 7499.96   1
   5   0  14 380697. 7437.07   1
  -5   0 -14 386198. 7518.81   1
   0   5  14 386250. 7438.29   1
   5  -5 -14 367035. 7254.24   1
  -5   0 -14 390458. 7461.85   2
   0   5  15 50067.1 2394.48   1
   0  -5 -15 47266.2 2315.50   1
   5   0  15 47745.2 2354.57   1
  -5   0 -15 49792.4 2401.98   1
   0  -5 -15 47132.0 2402.18   2
  -5   0 -15 45618.1 2309.49   2
   0   5  16 2629.55 598.729   1
   5   0  16 2581.90 610.073   1
  -5   0 -16 3166.33 681.831   2
  -5   0 -16 2393.43 591.215   1
   0  -5 -16 2840.18 614.854   1
   0  -5 -17 7479.67 936.130   1
  -5   0 -17 7157.19 933.330   2
  -5   0 -17 7541.39 1018.74   1
   5   0  17 8577.51 1033.04   1
   0   5  17 7365.49 944.955   1
   0  -5 -18 4449.81 764.940   1
  -5   0 -18 3997.73 738.183   2
   0   5  18 3582.02 710.875   1
  -5   0 -19 6356.84 914.486   2
  -3  -3 -19 183.463 297.042   1
  -3  -3 -18 7826.10 1041.87   2
   3   3  18 9095.18 1101.86   1
  -3  -3 -18 8970.25 1123.22   1
   3   3  17 20.3232 261.157   1
  -3  -3 -17 115.945 242.664   1
  -3  -3 -17-125.406 260.904   2
  -3  -3 -16 310174. 6808.36   1
  -3  -3 -16 306404. 6751.96   2
   3   3  16 303564. 6730.64   1
  -3  -3 -15-188.038 314.301   1
   3   3  15 7.74547 256.995   1
  -3  -3 -15 14.3833 215.250   2
  -3  -3 -14 255724. 5909.29   1
   3   3  14 250742. 5771.89   1
  -3  -3 -14 264185. 5917.20   2
   3   3  13 24.6877 229.547   1
  -3  -3 -13-82.3775 324.937   2
  -3  -3 -13 451.968 350.364   1
  -3  -3 -12 182081. 4590.33   2
   3   3  12 191276. 4668.25   1
  -3  -3 -11 447.975 281.838   2
  -3  -3 -11-218.994 262.270   1
   3   3  11-140.914 234.210   1
   6  -3 -10 482243. 7689.65   1
   3   3  10 501543. 8356.90   1
  -6   3  10 489811. 7667.33   1
   3  -6   9 278.001 260.990   2
  -6   3   9 54.1725 166.683   1
   3   3   9 174.901 217.733   1
  -3  -3  -9 101.867 191.588   2
  -3  -3  -9 151.731 222.225   1
   6  -3  -9 622.691 266.630   1
  -6   3   7-220.593 250.159   1
   3   3   7 470.721 284.228   1
  -3  -3  -7 204.607 255.387   1
  -3  -3  -7 439.469 264.465   2
   6  -3  -7 217.486 206.874   1
  -3   6  -7 166.478 155.662   1
   3  -6   7-111.001 139.365   1
   3  -6   7 348.688 242.248   2
  -3  -3  -6 102530. 2960.89   2
  -3  -3  -6 106210. 3051.16   1
  -3   6  -6 109614. 2702.40   1
   3   3   6 102740. 3009.16   1
   6  -3  -6 106338. 2807.25   1
   3  -6   6 102643. 2929.20   2
  -6   3   6 113967. 2842.07   1
  -3   6  -5 36.2446 209.512   1
   3  -6   5 95.0372 227.077   2
   3   3   5 126.808 232.427   1
   3  -6   5 175.123 174.689   1
  -3  -3  -5 360.826 216.436   1
  -3  -3  -5 6.00190 178.020   2
   6  -3  -5 32.1002 182.699   1
  -6   3   5-90.5283 154.157   1
  -3   6  -3-20.1013 134.942   1
  -6   3   3-47.1154 202.689   1
  -3  -3  -3 174.130 212.616   2
   6  -3  -3 179.893 192.478   1
   3   3   3 289.715 189.587   1
   3  -6   3 120.311 193.313   2
  -3  -3  -3-297.537 250.175   1
   3   3   2 211974. 4196.16   1
  -3   6  -2 199895. 4047.30   1
   3  -6   2 205645. 4033.74   1
  -3  -3  -2 216161. 4206.86   1
  -6   3   2 207120. 4089.45   1
  -3  -3  -2 211614. 4212.67   2
   3  -6   2 214848. 4282.76   2
   6  -3  -2 195288. 4050.80   1
  -3  -3  -1-130.701 217.822   2
   3  -6   1 296.834 215.949   1
  -3   6  -1 561.998 257.365   1
   3  -6   1 81.0722 165.830   2
  -3  -3  -1 164.532 181.744   1
   3   3   1 72.7824 154.450   1
   6  -3  -1 539.221 250.050   1
  -6   3   1 70.4329 164.353   1
  -3  -3   0 101658. 2631.61   2
  -6   3   0 105544. 2743.54   1
   3   3   0 101877. 2623.40   1
  -3   6   0 106086. 2740.77   1
   6  -3   0 97751.7 2663.56   1
   3  -6   0 114093. 2823.22   1
   3  -6   0 107670. 2813.34   2
  -3  -3   0 102973. 2601.99   1
   6  -3   1 88.6496 231.455   1
   3  -6  -1 383.782 258.879   2
   3  -6  -1 267.039 233.669   1
  -3  -3   1 170.054 150.091   2
  -3  -3   1 81.8792 146.054   1
   3   3  -1-41.2065 159.184   1
  -6   3  -1 141.238 194.857   1
  -3   6   1 104.253 167.881   1
   6  -3   2 243908. 4698.95   1
   3  -6  -2 265743. 4798.30   2
   3  -6  -2 253666. 4796.28   1
  -6   3  -2 243929. 4755.45   1
  -3   6   2 255938. 4785.56   1
  -3   6   3 359.617 243.558   1
   3   3  -3 490.633 187.666   1
  -3  -3   3 524.875 214.187   2
   3  -6  -3 688.667 283.712   1
  -3  -3   3 175.434 131.409   1
  -6   3  -3 1013.51 317.111   1
   6  -3   3 360.069 189.224   1
   3  -6  -3 377.473 251.871   2
  -3  -3   5 114.963 94.4144   1
   3  -6  -5 167.264 190.013   2
  -3   6   5 210.384 216.141   1
  -6   3  -5 479.190 226.806   1
   3   3  -5 282.218 122.084   1
   6  -3   5 218.438 163.204   1
   3  -6  -5 248.805 175.686   1
  -3  -3   5 231.067 177.088   2
  -6   3  -6 54893.2 2059.41   1
  -3   6   6 53750.8 2077.05   1
   3  -6  -6 56371.0 2044.12   2
   6  -3   6 48813.2 1911.66   1
   3  -6  -6 55157.1 2120.71   1
   3  -6  -7 21.5609 161.201   1
  -6   3  -7-92.5215 216.341   1
   6  -3   7-154.315 219.598   1
  -3   6   7 341.817 229.370   1
  -3  -3   7 75.4728 117.691   2
   3  -6  -7 153.146 211.011   2
   6  -3   9 35.6128 205.924   1
   3  -6  -9-74.2652 157.450   1
  -6   3  -9-146.739 247.833   1
   3  -6  -9 208.928 259.322   2
  -3   6   9-81.7636 236.770   1
  -3   6  10 355134. 6666.41   1
  -6   3 -10 351506. 6587.28   1
   3  -6 -10 365951. 6464.13   2
   3  -6 -11-114.159 242.639   1
  -6   3 -11 77.4897 185.896   1
   6  -3  11 112.854 241.317   1
  -3   6  11 125.688 232.761   1
  -3   6  12 263774. 5704.17   1
  -6   3 -12 273853. 5807.42   1
   3  -6 -12 266000. 5446.88   2
   3  -6 -12 250928. 5668.13   1
   3  -6 -13 117.660 238.202   1
  -6   3 -13 413.776 271.004   1
  -3   6  13 43.2704 237.645   1
   6  -3  13 359.041 221.144   1
   3  -6 -14 159420. 4415.87   1
   6  -3  14 167457. 4419.46   1
  -6   3 -14 163513. 4478.64   1
  -3   6  14 152369. 4285.65   1
   3  -6 -15 145.221 332.854   1
  -3   6  15 338.581 373.875   1
   6  -3  15 272.321 302.739   1
  -6   3 -15 332.906 261.180   1
   3  -6 -16 165270. 4709.32   1
  -3   6  16 171936. 4742.02   1
   3  -6 -17 83.1079 229.645   1
  -4  -2 -19 75859.5 3264.89   2
  -2  -4 -19 75840.3 3300.58   1
  -4  -2 -18 87167.6 3513.22   1
  -4  -2 -18 93348.3 3518.76   2
   2   4  18 89348.7 3504.85   1
   4   2  18 94550.1 3634.05   1
  -2  -4 -17 14244.2 1371.47   1
  -4  -2 -17 14715.3 1324.83   2
  -2  -4 -17 15071.7 1402.10   2
   2   4  17 13576.8 1294.07   1
   4   2  17 14174.8 1324.39   1
  -4  -2 -17 14295.6 1365.24   1
  -4  -2 -16 65874.2 2822.06   2
  -2  -4 -16 70590.6 2982.53   2
  -2  -4 -16 64307.9 2858.00   1
  -4  -2 -16 64674.8 2836.97   1
   2   4  16 68480.0 2919.82   1
   4   2  16 63447.4 2832.42   1
   4   2  15 14709.4 1312.25   1
  -2  -4 -15 14565.4 1328.95   2
  -2  -4 -15 15096.6 1298.36   1
   2   4  15 14721.2 1272.18   1
  -4  -2 -15 13397.9 1247.07   2
  -4  -2 -15 15171.7 1335.09   1
  -2  -4 -14 201531. 5095.08   1
  -4  -2 -14 189806. 5001.82   1
   2   4  14 182473. 4910.96   1
  -2  -4 -14 199614. 5038.58   2
   4   2  14 199823. 5029.54   1
  -4  -2 -14 196003. 4996.72   2
   2   4  13 47884.7 2277.31   1
   4   2  13 51448.7 2325.56   1
  -4  -2 -13 50006.1 2325.93   1
  -2  -4 -13 45690.0 2241.06   1
  -4  -2 -13 47784.8 2252.90   2
  -2  -4 -13 51706.9 2372.69   2
  -4  -2 -12 24853.0 1600.14   2
  -2  -4 -12 24036.5 1572.78   1
   2   4  12 24092.6 1571.43   1
  -4  -2 -12 23217.8 1580.88   1
  -2  -4 -12 22806.4 1562.98   2
   4   2  12 23749.5 1552.34   1
  -4  -2 -11 92835.9 3138.10   1
   4   2  11 91662.6 3083.40   1
  -2  -4 -11 95142.1 3133.06   2
  -4  -2 -11 89572.6 3058.12   2
   2  -6  11 100963. 3121.61   2
   2   4  11 90029.4 3027.15   1
  -2  -4 -11 85958.4 3054.99   1
   6  -4 -11 90648.3 2859.25   1
  -6   4  11 98227.3 2908.01   1
  -2  -4 -10 213864. 4966.76   1
  -4  -2 -10 221577. 5033.31   1
  -6   4  10 245963. 4826.84   1
   4   2  10 219009. 4986.31   1
   6  -4 -10 230153. 4817.57   1
  -4   6 -10 225754. 4560.78   1
   2   4  10 213631. 4938.41   1
  -4  -2 -10 221741. 5001.49   2
   2  -6  10 228882. 4968.50   2
  -2  -4 -10 203546. 4854.25   2
  -2  -4  -9 222051. 4982.98   1
   2   4   9 228446. 5000.34   1
   6  -4  -9 230125. 4720.62   1
   2  -6   9 221728. 4808.55   2
   6  -2  -9 235503. 4476.64   1
  -4  -2  -9 228892. 5050.22   1
  -4   6  -9 231820. 4574.72   1
  -6   4   9 228963. 4656.27   1
   4   2   9 228122. 4996.39   1
   4  -6   9 239074. 4484.75   1
  -2  -4  -9 222298. 4941.51   2
  -6   4   8 17836.3 1126.10   1
  -2  -4  -8 14523.6 1106.79   2
   4  -6   8 17173.9 1188.08   2
   4   2   8 16575.3 1176.18   1
   6  -2  -8 15855.6 1004.30   1
   6  -4  -8 17053.7 1111.62   1
   2  -6   8 14096.4 1054.81   2
  -4  -2  -8 16088.2 1173.16   1
   2   4   8 16492.0 1161.03   1
  -4  -2  -8 16126.7 1200.27   2
   4  -6   8 19160.0 1088.00   1
  -4   6  -8 18369.9 1111.72   1
  -2  -4  -8 16243.1 1180.95   1
  -6   2   8 16045.1 985.380   1
   6  -2  -7 226357. 4180.12   1
   4  -6   7 189486. 4371.88   2
   4   2   7 197153. 4442.38   1
  -4  -2  -7 191044. 4435.42   1
  -2  -4  -7 185942. 4359.32   2
   4  -6   7 210323. 4124.16   1
  -6   4   7 217462. 4332.37   1
  -4  -2  -7 184411. 4330.73   2
  -2   6  -7 202738. 3803.45   1
   2   4   7 194973. 4457.48   1
   2  -6   7 210830. 3785.64   1
  -6   2   7 248178. 4345.05   1
   2  -6   7 189725. 4249.98   2
  -2  -4  -7 208226. 4561.32   1
  -4   6  -7 200480. 4135.71   1
   6  -4  -7 194230. 4278.27   1
  -2  -4  -6 426103. 7230.96   1
  -2  -4  -6 413989. 7153.84   2
   4  -6   5 147489. 3534.31   2
  -4  -2  -5 137620. 3439.22   2
   4  -6   5 150988. 3292.74   1
   2  -6   5 147825. 3069.97   1
  -4  -2  -5 141290. 3480.95   1
   2   4   5 128937. 3402.76   1
  -4   6  -5 141215. 3277.90   1
   4   2   5 140547. 3507.86   1
  -6   4   5 138542. 3281.72   1
   6  -2  -5 133338. 3134.18   1
  -2   6  -5 143242. 3084.44   1
   2  -6   5 135696. 3354.82   2
  -2  -4  -5 143357. 3494.89   1
   6  -4  -5 139548. 3366.96   1
  -6   2   5 135636. 3130.21   1
  -2  -4  -5 133875. 3457.37   2
   4  -6   4 452034. 7318.80   2
  -2  -4  -4 455132. 7287.92   1
   4   2   3 236204. 4660.31   1
  -2  -4  -3 255996. 4711.06   1
   6  -2  -3 229311. 4372.84   1
   2  -6   3 240086. 4627.60   2
  -4  -2  -3 224579. 4574.11   1
   4  -6   3 241391. 4510.65   1
   4  -6   3 235631. 4683.05   2
  -2  -4  -3 252558. 4775.11   2
  -6   4   3 210328. 4361.52   1
   6  -4  -3 243291. 4630.48   1
  -4  -2  -3 245999. 4629.83   2
   2   4   3 241433. 4693.73   1
   2  -6   1 36767.8 1493.20   1
  -2   6  -1 37216.1 1498.01   1
  -4   6  -1 34906.1 1514.40   1
  -4  -2  -1 37780.7 1539.49   1
   2  -6   1 38750.2 1618.69   2
   6  -2  -1 34726.7 1472.11   1
   4   2   1 35044.9 1512.45   1
  -2  -4  -1 38068.6 1595.71   2
  -2  -4  -1 36415.1 1511.44   1
   6  -4  -1 34290.2 1520.62   1
  -6   4   1 34732.4 1515.42   1
   2   4   1 34634.6 1493.51   1
   4  -6   1 35580.2 1583.79   2
  -4  -2  -1 36566.7 1515.14   2
  -2  -4   0 1164.82 270.235   2
   2  -6   0 1079.62 292.050   1
   2   4   0 722.838 240.978   1
  -6   2   0 857.627 258.170   1
  -4   6   0 1106.63 321.362   1
   4  -6   0 1567.01 365.519   1
  -2  -4   0 736.686 238.872   1
  -2   6   0 817.979 238.080   1
   4   2   0 828.933 248.288   1
   4  -6   0 795.225 255.122   2
  -4  -2   0 1064.80 266.449   1
   6  -4   0 647.798 227.198   1
   2  -6   0 1060.60 317.082   2
  -4  -2   0 727.161 265.254   2
   6  -2   0 497.052 204.111   1
  -6   4   0 754.061 282.054   1
  -4  -2   1 11945.4 835.077   2
   2  -6  -1 12474.1 881.594   1
  -2  -4   1 11921.3 861.549   2
  -4   6   1 11987.7 901.804   1
   6  -2   1 12465.9 894.699   1
   6  -4   1 11040.0 851.337   1
  -2  -4   1 13640.7 839.405   1
  -2   6   1 13775.6 945.563   1
   4   2  -1 12459.3 845.773   1
  -6   2  -1 13554.4 921.510   1
  -4  -2   1 12958.7 840.660   1
   2  -6  -1 13010.4 935.562   2
   4  -6  -1 12150.4 892.411   2
   4  -6  -1 12027.8 897.851   1
  -6   4  -1 10584.3 857.177   1
   2   4  -1 12574.4 830.350   1
   2   4  -4 1174.82 253.109   1
  -2   6   4 504.531 265.658   1
  -4  -2   4 847.960 220.987   2
  -2  -4   4 757.730 205.581   1
   4  -6  -4 992.695 316.879   1
   2  -6  -4 793.900 328.047   1
   6  -2   4 1860.60 389.886   1
  -4   6   4 958.190 306.326   1
   4  -6  -4 984.931 300.915   2
   6  -4   4 1283.57 316.715   1
  -6   4  -4 862.505 303.986   1
  -4  -2   4 646.120 220.307   1
  -2  -4   4 1276.06 340.748   2
   2  -6  -4 592.390 237.215   2
  -6   2  -4 619.917 246.025   1
  -4   6   7 37914.7 1734.21   1
  -6   4  -7 36962.9 1708.09   1
   2  -6  -7 37201.8 1711.73   2
  -2  -4   7 37130.3 1545.35   2
   2  -6  -7 39620.5 1821.97   1
  -2   6   7 38360.5 1778.20   1
   6  -2   7 37015.5 1695.52   1
  -6   2  -7 39120.4 1739.83   1
   6  -4   7 40503.7 1720.83   1
   4  -6  -7 40560.7 1818.82   1
   4  -6  -7 36906.1 1630.42   2
   2  -6  -8 153297. 3965.37   1
  -4   6   8 163779. 3932.80   1
  -2   6   8 162901. 4027.37   1
   6  -2   8 168941. 3948.84   1
  -2  -4   8 165649. 3576.02   2
  -6   2  -8 162478. 3935.13   1
   4  -6  -8 172154. 3768.76   2
  -6   4  -8 159070. 3894.16   1
   6  -4   8 164144. 3820.98   1
   2  -6  -8 163717. 3925.96   2
   4  -6  -8 167900. 4063.78   1
  -4   6   9 38866.0 1817.56   1
  -2   6   9 40488.4 1894.09   1
   4  -6  -9 41412.4 1927.63   1
   6  -4   9 40956.8 1813.23   1
  -6   2  -9 41212.7 1889.13   1
  -6   4  -9 41068.3 1875.78   1
   4  -6  -9 43935.6 1799.54   2
   2  -6  -9 41757.8 1865.90   2
   6  -2   9 41121.8 1865.97   1
   2  -6  -9 40666.5 1908.52   1
   2  -6 -10 317920. 6353.81   1
   4  -6 -10 318498. 6329.08   1
  -2   6  10 322552. 6355.59   1
   6  -2  10 324960. 6279.54   1
  -6   4 -10 334999. 6329.35   1
  -4   6  10 361566. 6457.36   1
   2  -6 -10 338487. 6330.96   2
   4  -6 -10 348925. 6072.71   2
  -6   2 -10 335742. 6417.05   1
  -2   6  11 97336.2 3136.97   1
  -4   6  11 87746.6 2936.37   1
  -6   4 -11 89880.7 2981.58   1
   6  -2  11 95143.8 3045.26   1
  -6   2 -11 94206.7 3121.85   1
   4  -6 -11 97920.4 3163.59   1
   2  -6 -11 97549.6 3068.72   2
   2  -6 -11 97331.6 3201.27   1
   6  -4  11 91620.6 2932.70   1
  -4   6  12 27564.0 1592.70   1
   4  -6 -12 24254.5 1576.31   1
   6  -4  12 26408.7 1557.32   1
   2  -6 -12 29137.2 1659.11   2
   2  -6 -12 28386.2 1683.78   1
  -2   6  12 32380.4 1764.43   1
   6  -2  12 27079.9 1599.65   1
  -6   2 -12 26711.3 1653.83   1
  -6   4 -12 24881.7 1568.68   1
   6  -2  13 59645.3 2465.04   1
   4  -6 -13 56377.1 2467.38   1
   2  -6 -13 56662.9 2407.32   2
   6  -4  13 57835.5 2427.20   1
  -4   6  13 63006.2 2521.82   1
  -6   2 -13 54786.3 2441.04   1
  -6   4 -13 53960.8 2395.22   1
  -2   6  13 51831.0 2349.90   1
   2  -6 -13 56256.1 2492.58   1
   6  -2  14 143089. 4155.55   1
   4  -6 -14 146434. 4200.40   1
   2  -6 -14 141699. 4179.38   1
  -2   6  14 131278. 4040.18   1
  -6   2 -14 145261. 4230.12   1
  -6   4 -14 146284. 4188.60   1
   6  -4  14 143543. 4050.64   1
  -4   6  14 150118. 4169.99   1
   4  -6 -15 56643.9 2622.73   1
   2  -6 -15 63462.5 2754.94   1
  -2   6  15 65549.5 2763.54   1
  -4   6  15 61704.2 2662.47   1
   6  -2  15 67079.2 2799.60   1
  -6   2 -15 62847.6 2772.26   1
   6  -2  16 2463.91 586.809   1
   4  -6 -16 4312.16 754.605   1
  -6   2 -16 2950.29 617.598   1
  -2   6  16 3092.80 575.639   1
   2  -6 -16 3052.32 658.288   1
  -2   6  17 48274.2 2477.24   1
   2  -6 -17 58455.3 2751.77   1
  -5  -1 -19 5555.74 903.402   2
  -5  -1 -18 68623.3 3094.07   1
   1   5  18 67863.0 3056.00   1
  -1  -5 -18 74642.9 3173.60   1
  -5  -1 -18 66523.1 3024.94   2
  -1  -5 -17 10864.2 1183.27   1
  -5  -1 -17 10957.5 1210.84   1
   5   1  17 10576.2 1179.63   1
   1   5  17 10981.2 1174.41   1
  -5  -1 -17 11764.7 1196.21   2
   5   1  16 4175.41 758.461   1
  -1  -5 -16 3529.37 728.110   1
   1   5  16 4211.88 755.829   1
  -5  -1 -16 3344.73 679.368   1
  -1  -5 -16 3771.75 688.224   2
  -5  -1 -16 4551.93 743.572   2
   1   5  15 90303.0 3297.10   1
  -1  -5 -15 74070.6 3053.45   1
  -5  -1 -15 83890.2 3191.03   2
   5   1  15 82130.9 3174.54   1
  -1  -5 -15 84023.5 3219.61   2
  -5  -1 -15 80768.4 3170.37   1
  -5  -1 -14 181802. 4875.65   1
  -1  -5 -14 184324. 4879.62   1
   1   5  14 186428. 4866.28   1
   5   1  14 183021. 4835.46   1
  -5  -1 -14 195801. 4960.96   2
  -1  -5 -14 177955. 4813.79   2
  -1  -5 -13 124201. 3829.03   1
  -5  -1 -13 116173. 3689.15   2
  -5  -1 -13 127954. 3906.47   1
   1   5  13 128516. 3868.24   1
   5   1  13 121863. 3801.20   1
  -1  -5 -13 123596. 3841.33   2
  -5  -1 -12 57232.7 2424.86   2
  -5  -1 -12 54220.5 2432.77   1
  -6   5  12 56933.3 2333.75   1
   5   1  12 58862.8 2501.86   1
   1   5  12 60240.2 2509.88   1
  -1  -5 -12 56974.0 2448.73   2
  -1  -5 -12 56962.1 2476.96   1
  -5  -1 -11 65032.5 2586.50   2
  -6   5  11 75145.4 2621.74   1
  -1  -5 -11 65716.6 2604.03   2
  -5   6 -11 66507.6 2406.31   1
  -1  -5 -11 64905.2 2610.69   1
  -5  -1 -11 65873.1 2629.45   1
   1   5  11 66057.0 2597.41   1
   5   1  11 63980.2 2564.21   1
   1  -6  11 66116.4 2563.92   2
  -5   6 -10 446254. 7360.86   1
  -5  -1 -10 449272. 7792.94   2
  -1  -5 -10 438037. 7744.64   1
  -6   5  10 434698. 7447.67   1
   1   5  10 415083. 7623.83   1
  -5  -1 -10 397483. 7515.63   1
   5   1  10 402767. 7475.12   1
  -1  -5 -10 438452. 7649.33   2
   5  -6   9 32364.1 1536.33   1
  -5  -1  -9 32698.5 1739.14   1
   5   1   9 31271.6 1703.93   1
   6  -5  -9 30448.2 1629.04   1
   1  -6   9 31362.4 1609.64   2
   1   5   9 33385.8 1752.70   1
  -1  -5  -9 35397.2 1803.36   1
  -5   6  -9 35269.8 1687.32   1
  -6   5   9 33259.1 1654.85   1
  -5  -1  -9 31415.1 1719.04   2
  -1  -5  -9 33439.5 1739.89   2
  -6   5   8 47745.5 1961.83   1
   1  -6   8 45850.6 1910.99   2
   5  -6   8 47363.6 1863.71   1
  -5  -1  -8 49835.0 2105.98   1
   1   5   8 47345.6 2091.15   1
  -5   6  -8 45621.6 1900.55   1
  -1  -5  -8 47208.3 2070.99   1
  -5  -1  -8 45426.8 2014.67   2
  -1  -5  -8 45999.6 2039.28   2
   6  -5  -8 45903.1 1994.95   1
   6  -1  -8 45330.2 1651.33   1
   5   1   8 45556.5 2029.28   1
  -1  -5  -7 151590. 3903.39   1
   6  -5  -7 162286. 3863.23   1
   1  -6   7 152246. 3699.25   2
  -5  -1  -7 166160. 3975.97   2
  -6   5   7 148941. 3678.98   1
   6  -1  -7 168124. 3425.55   1
  -6   1   7 154073. 3320.04   1
   5  -6   7 160373. 3658.16   1
   1   5   7 162775. 4052.72   1
  -5  -1  -7 157628. 3916.72   1
  -1  -5  -7 154376. 3882.87   2
  -5   6  -7 162249. 3764.50   1
   5   1   7 157660. 3908.63   1
   5   1   6 25549.9 1448.74   1
  -5  -1  -6 33247.7 1640.76   2
   6  -5  -6 35511.6 1389.32   2
   1  -6   6 29621.7 1226.80   1
   5  -6   6 32742.4 1640.67   2
  -1  -5  -6 34786.4 1667.43   1
  -1  -5  -6 33845.1 1629.27   2
   5  -6   6 30663.4 1452.95   1
  -6   5   6 29825.1 1513.24   1
  -1   6  -6 33815.0 1315.77   1
  -6   1   6 40944.9 1527.80   1
   6  -1  -6 29412.2 1311.79   1
  -5  -1  -6 34944.9 1695.07   1
   1  -6   6 34985.2 1590.16   2
  -5   6  -6 31562.7 1528.37   1
   1   5   6 31450.0 1642.84   1
   6  -5  -6 27272.9 1468.30   1
   5  -6   5 229278. 4911.53   2
  -5  -1  -5 232355. 4769.61   2
  -1   6  -5 247789. 4284.13   1
   1  -6   5 244511. 4245.54   1
   5  -6   5 235158. 4587.28   1
  -1  -5  -5 229097. 4789.74   1
  -6   5   5 220366. 4602.82   1
   1  -6   5 229360. 4635.13   2
   6  -5  -5 266920. 4470.50   2
  -5  -1  -5 232663. 4800.81   1
   6  -5  -5 242789. 4805.93   1
   1   5   5 233924. 4879.85   1
  -1  -5  -5 228674. 4802.22   2
  -5   6  -5 226825. 4634.00   1
   5   1   5 223776. 4738.13   1
  -6   1   5 239759. 4365.59   1
  -5   6  -4 2095.17 412.313   1
   6  -1  -4 2115.39 370.189   1
  -1  -5  -4 2767.20 489.101   2
   5  -6   4 2239.70 439.594   1
   1   5   4 2310.98 469.857   1
  -6   1   4 1917.10 345.349   1
  -6   1   4 1521.91 300.129   2
  -5  -1  -4 2311.62 408.621   2
  -5  -1  -4 2510.92 443.500   1
   1  -6   4 2082.82 371.931   1
   6  -5  -4 2402.24 375.256   2
  -1   6  -4 1677.15 315.510   1
  -1  -5  -4 2461.79 446.554   1
   6  -5  -4 2426.20 450.893   1
   5   1   4 2112.77 450.439   1
   1  -6   4 1356.03 327.749   2
  -6   5   4 2228.23 436.887   1
   5  -6   4 1469.47 344.643   2
   5  -6   3 24624.8 1361.52   2
  -5  -1  -3 24469.5 1311.19   2
   1  -6   3 22533.1 1119.21   1
  -6   1   3 22365.3 1072.87   2
  -1   6  -3 22249.8 1127.83   1
  -6   5   3 23720.7 1281.76   1
   6  -5  -3 24624.2 1250.72   2
   6  -5  -3 26047.2 1363.15   1
  -1  -5  -3 23198.7 1283.62   2
  -5  -1  -3 23657.3 1288.05   1
   1   5   3 22669.0 1291.73   1
  -6   1   3 21856.0 1152.47   1
  -5   6  -3 25388.0 1315.33   1
   5  -6   3 25862.7 1293.39   1
  -1  -5  -3 23068.7 1310.01   1
   1  -6   3 22571.7 1255.06   2
   6  -1  -3 22222.4 1160.35   1
   5   1   3 21730.5 1251.44   1
   6  -5  -1 125075. 3001.83   2
  -1  -5  -1 110446. 2890.49   1
   5   1   1 116745. 2965.41   1
  -1   6  -1 112846. 2876.00   1
   1   5   1 113535. 2955.47   1
  -5   6  -1 109151. 2957.21   1
   6  -5  -1 110938. 2967.39   1
   5  -6   1 112864. 2953.93   1
  -5  -1  -1 110691. 2885.47   1
   6  -1  -1 101667. 2744.65   1
  -6   1   1 103583. 2751.62   1
   5  -6   1 114139. 3029.42   2
  -1  -5  -1 117022. 3023.60   2
  -5  -1  -1 130617. 3045.23   2
   1  -6   1 119366. 3034.10   2
  -6   5   1 130627. 3136.60   1
   1  -6   1 108934. 2774.68   1
  -1   6   0 259497. 4897.95   1
  -1  -5   0 266956. 4846.95   1
   5  -6   0 288536. 5130.97   1
  -5  -1   0 252607. 4661.05   2
   1  -6   0 265393. 5004.77   2
   5  -6   0 270884. 5007.52   2
  -1  -5   0 270275. 5013.45   2
   1  -6   0 273697. 4902.04   1
  -1  -5   2 368356. 6099.17   2
  -5   6   3 150831. 3585.31   1
   5  -6  -3 157456. 3494.06   2
   5  -6  -3 150732. 3603.62   1
  -1  -5   3 154046. 3469.50   2
   5   1  -3 159227. 3293.55   1
  -6   5  -3 147232. 3556.39   1
  -1  -5   3 158995. 3182.47   1
   1   5  -3 149190. 3140.63   1
  -5  -1   3 173127. 3388.21   1
  -1   6   3 144859. 3553.77   1
   6  -1   3 149525. 3560.30   1
   1  -6  -3 142024. 3483.19   2
  -6   1  -3 143882. 3499.62   1
  -5  -1   3 159281. 3219.74   2
   6  -5   3 141512. 3451.43   1
   1  -6  -3 143641. 3543.81   1
   5  -6  -4 16976.4 1139.00   1
   1  -6  -4 17755.0 1135.72   1
  -1  -5   4 17931.9 928.424   1
   5  -6  -4 17231.3 1078.66   2
   6  -5   4 17485.2 1095.16   1
   6  -1   4 16500.8 1097.01   1
  -1   6   4 16859.9 1138.34   1
   1   5  -4 18630.8 935.227   1
  -5  -1   4 18384.0 984.488   1
  -6   1  -4 16772.7 1094.78   1
  -5  -1   4 18725.7 947.025   2
   1  -6  -4 18175.1 1157.87   2
   5   1  -4 17495.4 967.785   1
  -6   5  -4 16049.5 1081.57   1
  -1  -5   4 16266.3 1026.65   2
  -5   6   4 19108.6 1172.38   1
   6  -5   5 1282.66 329.416   1
  -6   5  -5 2342.41 412.262   1
   5   1  -5 1793.26 328.859   1
  -6   1  -5 1533.05 355.548   1
  -5  -1   5 1386.65 264.555   2
  -1  -5   5 1506.26 329.131   2
   6  -1   5 1272.12 321.103   1
  -5   6   5 1732.70 400.688   1
   1  -6  -5 1692.97 409.480   1
   1   5  -5 1625.87 270.120   1
  -1   6   5 1083.49 328.170   1
  -5  -1   5 1446.39 273.825   1
   5  -6  -5 1693.18 402.672   1
   5  -6  -5 1114.32 296.060   2
  -1  -5   5 1470.57 272.558   1
   1  -6  -5 1452.11 364.181   2
  -1  -5   6 153010. 3501.98   2
   5  -6  -6 145730. 3696.94   1
  -5   6   6 126734. 3400.46   1
   5   1  -6 148506. 3009.70   1
   6  -1   6 138109. 3555.45   1
  -5  -1   6 145837. 2962.85   1
  -6   1  -6 147323. 3662.51   1
  -6   5  -6 149587. 3613.97   1
   1  -6  -6 156032. 3832.39   1
   1  -6  -6 153274. 3705.61   2
   5  -6  -6 140821. 3360.90   2
  -1   6   6 137392. 3619.85   1
   6  -5   6 143917. 3453.35   1
  -1  -5   7 89339.7 2594.37   2
   6  -5   7 88822.4 2646.10   1
  -5   6   7 93969.1 2844.20   1
   5  -6  -7 93909.2 2893.00   1
   1  -6  -7 83787.6 2789.02   1
   6  -1   7 89541.6 2808.77   1
  -6   5  -7 92857.3 2810.37   1
  -1   6   7 89002.4 2837.46   1
  -6   1  -7 84525.6 2769.73   1
   1  -6  -7 85385.6 2741.43   2
   5  -6  -7 91117.5 2561.85   2
  -5   6   8 30823.8 1609.57   1
   1  -6  -8 30177.4 1664.95   1
   5  -6  -8 32213.3 1498.08   2
  -6   5  -8 33462.1 1664.71   1
  -1   6   8 29230.3 1631.49   1
  -6   1  -8 30280.1 1645.71   1
   5  -6  -8 35229.7 1740.70   1
   6  -1   8 32419.4 1635.03   1
   1  -6  -8 30320.8 1622.79   2
  -1  -5   8 32049.8 1526.33   2
   6  -5   8 34351.1 1622.43   1
   5  -6  -9 231385. 5156.78   1
  -1  -5   9 258019. 4955.31   2
  -6   5  -9 248321. 5144.36   1
  -5   6   9 261163. 5250.70   1
   6  -1   9 235294. 5108.28   1
   5  -6  -9 239196. 4742.77   2
   1  -6  -9 250101. 5393.20   1
   6  -5   9 251415. 5058.87   1
  -1   6   9 255813. 5344.73   1
  -6   1  -9 235926. 5217.90   1
   1  -6  -9 245196. 5243.17   2
  -5   6  10 324398. 6362.43   1
   1  -6 -10 331587. 6603.24   1
  -1   6  10 371538. 6812.46   1
  -6   1 -10 353568. 6686.57   1
   6  -5  10 357633. 6428.01   1
   5  -6 -10 350550. 6682.16   1
   1  -6 -10 342946. 6567.09   2
   6  -1  10 346292. 6565.39   1
  -6   5 -10 341054. 6414.37   1
  -6   5 -11 112883. 3374.17   1
  -5   6  11 121277. 3454.06   1
   1  -6 -11 105374. 3407.62   1
   5  -6 -11 111727. 3435.70   1
  -1   6  11 108623. 3448.78   1
   1  -6 -11 110915. 3412.68   2
   6  -5  11 124434. 3418.34   1
  -6   1 -11 109259. 3406.17   1
   6  -1  11 104695. 3288.69   1
  -5   6  12 28003.3 1629.92   1
   1  -6 -12 27091.1 1703.12   1
   6  -5  12 30078.6 1664.26   1
  -1   6  12 30147.4 1745.39   1
   6  -1  12 29188.9 1685.80   1
  -6   1 -12 27740.3 1702.38   1
  -6   5 -12 27933.4 1636.94   1
   1  -6 -12 30215.1 1715.53   2
   5  -6 -12 29746.7 1735.91   1
   6  -1  13 52985.1 2408.01   1
   5  -6 -13 51747.0 2385.39   1
  -5   6  13 59740.8 2468.38   1
  -6   1 -13 53474.8 2460.94   1
   1  -6 -13 54869.2 2411.76   2
  -6   5 -13 54340.3 2354.75   1
   1  -6 -13 50453.7 2361.90   1
   5  -6 -14 239552. 5601.77   1
  -1   6  14 219704. 5396.34   1
   1  -6 -14 223347. 5474.12   1
  -6   1 -14 219721. 5493.32   1
   1  -6 -14 224544. 5509.42   2
  -5   6  14 230606. 5461.32   1
   5  -6 -15 50166.1 2488.00   1
  -1   6  15 46126.8 2384.90   1
  -6   1 -15 54064.2 2536.61   1
   1  -6 -15 50242.8 2476.35   1
   6  -1  15 53733.7 2497.23   1
  -1   6  16 26343.4 1788.24   1
   1  -6 -16 29839.1 1902.87   1
  -6   1 -16 27137.7 1850.94   1
   6  -1  16 28002.5 1843.55   1
  -6   1 -17 44363.8 2341.39   2
   1  -6 -17 42335.2 2333.03   1
  -1   6  17 40523.1 2290.47   1
  -6   1 -17 46716.6 2496.11   1
   6  -1  17 41844.9 2373.89   1
  -6   1 -18 30668.0 2038.58   2
  -1   6  18 29975.5 1950.94   1
   1  -6 -18 29660.9 2008.64   1
  -6   1 -19 11057.6 1254.62   2
  -6   0   1 5249.55 565.125   2
  -6   0  -1 6307.89 658.480   2
  -6   6  -1 3925.93 529.429   1
   0  -6  -1 4835.46 615.931   2
   0  -6   1 4903.75 544.285   1
   0  -6  -1 5456.31 619.049   1
   0  -6   1 4439.70 577.448   2
   6   0   1 5796.20 621.617   1
   0   6  -1 5852.81 631.846   1
   6   0  -1 5987.31 633.342   1
   0   6   1 4717.66 594.530   1
   6  -6   1 4590.30 601.770   1
   6  -6   1 4240.98 587.995   2
   6  -6  -1 4362.87 608.884   1
  -6   0   1 5267.53 585.359   1
  -6   0  -1 4838.85 593.840   1
   6  -6  -1 4036.80 539.866   2
  -6   6   1 4813.32 624.759   1
  -6   0   2 1446.34 328.552   2
   0  -6   2 912.740 269.661   2
  -6   6   2 926.671 287.188   1
   6   0  -2 1684.37 335.290   1
   0  -6  -2 1643.04 385.413   1
   6  -6   2 1681.35 443.420   2
   6  -6  -2 1396.76 380.404   1
   6  -6  -2 987.019 326.777   2
   0  -6  -2 2484.82 451.586   2
  -6   0   2 1291.67 304.364   1
   6  -6   2 1106.30 324.678   1
   0   6  -2 1601.22 361.021   1
  -6   0  -2 1349.55 336.078   2
   6   0   2 2157.29 449.899   1
  -6   0  -2 1675.80 365.853   1
   0   6   2 1887.18 378.796   1
  -6   6  -2 1074.57 294.735   1
  -6   0   3 12523.5 853.133   2
   6  -6  -3 12488.0 982.800   1
   0  -6   3 12661.0 841.016   1
   6   0   3 12382.8 967.099   1
  -6   6  -3 11455.6 953.693   1
   6  -6   3 12048.6 984.810   2
   6  -6  -3 11462.8 878.869   2
   0  -6  -3 12052.1 979.589   2
   6   0  -3 11826.2 855.208   1
   0   6  -3 12917.9 881.960   1
   0  -6   3 12871.1 960.270   2
  -6   0  -3 12601.4 974.870   1
  -6   0   3 13220.5 898.054   1
   0  -6  -3 12303.2 959.112   1
   6  -6   3 12498.0 956.102   1
  -6   6   3 12317.6 956.462   1
   0   6   3 13014.8 1008.81   1
   0  -6   4 278388. 4671.98   1
   0   6  -4 284654. 4713.21   1
  -6   6  -4 259595. 5120.68   1
   6  -6  -4 247538. 5064.66   1
   6  -6  -4 274533. 4971.13   2
   0   6   4 259991. 5225.88   1
   6   0  -4 251622. 4703.90   1
   6  -6   4 246343. 4967.82   1
  -6   0   4 271114. 4763.32   1
   0  -6   4 253094. 4985.54   2
  -6   0  -4 266240. 5215.43   1
  -6   0   4 246983. 4322.18   2
   0  -6  -4 265772. 5243.77   2
  -6   6   4 262407. 5164.14   1
   6   0   4 254794. 5150.98   1
   0  -6  -4 257802. 5183.44   1
   0  -6  -5 1540.78 385.717   2
   0  -6   5 1606.63 304.554   1
  -6   6   5 2270.70 454.457   1
   0   6  -5 1963.51 350.776   1
   6  -6  -5 2050.66 440.593   1
   6   0   5 1434.33 372.988   1
   6  -6  -5 2872.59 461.379   2
  -6   0   5 1837.16 339.262   1
   0  -6  -5 1427.58 353.136   1
   0   6   5 1850.20 428.735   1
   6  -6   5 2287.57 422.078   1
   0  -6   5 2543.52 459.583   2
  -6   6  -5 1996.57 339.881   1
  -6   0  -5 1934.00 431.574   1
   6   0  -5 2009.43 353.344   1
   0  -6  -6 5319.30 694.870   2
   6  -6   6 6166.74 679.508   1
   6   0  -6 5787.74 581.156   1
   0  -6  -6 5333.94 715.609   1
   0  -6   6 5709.78 658.579   2
  -6   6   6 6178.68 698.035   1
  -6   0  -6 5195.67 678.069   1
   6  -6  -6 6841.81 647.441   2
  -6   0   6 5643.51 577.144   1
  -6   6  -6 5979.98 693.382   1
   6   0   6 4630.14 624.940   1
   0   6   6 4813.94 671.319   1
  -6   6  -7 4109.01 576.276   1
   0  -6  -7 3423.01 546.622   2
   6  -6   7 4464.73 600.674   1
   6  -6  -7 4400.68 608.106   1
   6   0   7 4089.41 585.532   1
  -6   6   7 4423.39 615.146   1
   0  -6  -7 3943.07 605.548   1
   0   6   7 4118.75 581.691   1
   6  -6  -7 4961.36 537.127   2
  -6   0  -7 3112.30 567.259   1
   0  -6   7 4394.15 584.946   2
  -6   6   8 464974. 7796.11   1
   6  -6  -8 473962. 7972.64   1
   0  -6  -8 454522. 7999.47   1
   0   6   8 467134. 7996.11   1
   0  -6  -8 456625. 7929.06   2
   0  -6  -9 3485.49 610.377   2
  -6   0  -9 3300.39 545.018   1
  -6   6  -9 2634.46 509.718   1
   6  -6  -9 2587.11 517.943   1
   6  -6   9 2545.38 467.325   1
  -6   6   9 3057.00 504.576   1
   0  -6  -9 3061.67 563.133   1
   6   0   9 3169.57 571.677   1
   0   6   9 2666.79 509.166   1
   0  -6   9 2879.78 524.905   2
   6   0  10 788.364 318.474   1
   0  -6 -10 1189.23 436.286   1
   0  -6  10 1237.64 442.399   2
   6  -6 -10 1387.49 363.744   1
  -6   6  10 1349.27 380.645   1
   0   6  10 1783.45 464.403   1
  -6   0 -10 1730.90 371.537   1
  -6   6 -10 1329.51 373.739   1
   6  -6  10 1691.36 406.090   1
   0  -6 -10 1416.07 415.493   2
   6  -6 -11 1024.34 369.664   1
  -6   0 -11 1231.74 375.633   1
   0  -6 -11 1836.96 390.183   2
   0  -6 -11 1324.99 403.362   1
   0   6  11 1815.71 473.837   1
   6  -6  11 1160.64 368.334   1
   6   0  11 1673.83 429.773   1
  -6   6  11 764.821 320.653   1
  -6   6 -11 1443.08 418.517   1
   6   0  12 473115. 8623.49   1
  -6   0 -12 496136. 8726.16   2
  -6   6  12 487225. 8544.21   1
   0  -6 -12 501182. 8812.79   1
   0   6  12 483834. 8648.79   1
  -6   6 -12 486145. 8468.34   1
  -6   0 -12 505633. 8868.11   1
   0  -6 -12 475960. 8693.81   2
   0  -6 -13 1016.93 420.515   2
  -6   0 -13 953.534 394.568   2
   6  -6 -13 635.409 335.736   1
   0  -6 -13-42.7985 261.485   1
   6   0  13 403.624 285.504   1
   0   6  13 608.573 331.094   1
  -6   0 -13 556.474 269.843   1
  -6   6  13 389.702 305.927   1
   6  -6 -14 210.570 211.809   1
   0  -6 -14 328.800 308.686   1
   6   0  14 277.095 311.366   1
   0  -6 -14 184.214 272.177   2
  -6   0 -14 135.163 214.244   1
  -6   0 -14 192.044 304.645   2
   0   6  14 416.639 324.603   1
   0   6  15 513.784 305.013   1
  -6   0 -15 288.887 278.320   2
   0  -6 -15 258.062 279.272   2
  -6   0 -15 202.665 266.517   1
   0  -6 -15 589.424 323.728   1
   6   0  15 381.579 373.352   1
   6   0  16 167689. 4860.75   1
  -6   0 -16 168643. 4753.72   2
   0   6  16 185075. 5041.23   1
   0  -6 -16 181540. 5041.81   1
  -6   0 -16 174638. 4999.25   1
   0  -6 -17 1480.72 512.555   1
  -6   0 -17 1191.76 491.000   2
   6   0  17 894.762 472.640   1
  -6   0 -17 1474.57 508.001   1
   0   6  17 1529.11 530.465   1
  -6   0 -18 1445.78 505.057   2
   0   6  18 1112.11 476.526   1
   6   0  18 483.523 359.728   1
   0  -6 -18 1148.78 494.046   1
  -6   0 -18 1545.24 526.666   1
  -4  -3 -18 164162. 4940.72   1
  -4  -3 -18 155535. 4806.44   2
  -3  -4 -18 166551. 4969.43   1
   3   4  18 169566. 5007.95   1
   4   3  18 173944. 5060.06   1
  -3  -4 -18 160833. 4956.23   2
  -3  -4 -17 74705.2 3149.12   1
   3   4  17 68911.5 3055.76   1
   4   3  17 77067.1 3189.27   1
  -4  -3 -17 74750.1 3152.19   2
  -3  -4 -17 69596.5 3081.85   2
  -4  -3 -17 75116.9 3148.17   1
  -3  -4 -16 84682.7 3340.32   2
  -4  -3 -16 87489.7 3359.47   2
  -4  -3 -16 87570.8 3366.82   1
   3   4  16 92319.7 3424.38   1
   4   3  16 86952.5 3304.59   1
  -3  -4 -16 92479.8 3472.48   1
  -4  -3 -15 3848.39 680.384   2
  -3  -4 -15 3807.06 662.471   2
   4   3  15 4823.21 781.241   1
  -3  -4 -15 3478.33 627.475   1
  -4  -3 -15 5129.12 833.715   1
   3   4  15 4496.56 720.304   1
  -3  -4 -14 170080. 4668.98   1
  -4  -3 -14 175997. 4743.61   1
   3   4  14 168541. 4663.61   1
  -3  -4 -14 155571. 4541.38   2
  -4  -3 -14 169101. 4664.81   2
   4   3  14 165917. 4631.18   1
  -4  -3 -13 4955.93 779.837   2
  -4  -3 -13 5022.29 764.097   1
  -3  -4 -13 4946.75 755.703   2
   4   3  13 4215.68 718.922   1
  -3  -4 -13 5747.77 844.924   1
   3   4  13 5675.47 816.272   1
  -4  -3 -12 7303.97 910.152   1
   4   3  12 6913.86 840.598   1
  -3  -4 -12 6033.64 797.407   1
   3   4  12 5789.38 811.056   1
  -4  -3 -12 6543.47 844.360   2
  -3  -4 -12 6802.44 856.183   2
  -3  -4 -11 108784. 3541.67   1
   4   3  11 115211. 3589.73   1
  -4  -3 -11 111704. 3544.84   1
  -3  -4 -11 120193. 3634.61   2
   3   4  11 106788. 3434.60   1
  -4  -3 -11 117188. 3614.18   2
  -4  -3 -10 55585.3 2368.00   2
  -3  -4 -10 57585.8 2424.00   1
  -7   4  10 51843.2 2118.45   1
  -4  -3 -10 56265.4 2439.26   1
   3   4  10 54636.8 2346.71   1
  -3  -4 -10 56388.5 2378.08   2
   7  -4 -10 51624.7 2154.60   1
   4   3  10 52089.0 2317.04   1
   3  -7  10 62838.5 2517.13   2
  -4  -3  -9 203499. 4785.83   2
  -7   4   9 196028. 4386.15   1
   7  -4  -9 202545. 4494.24   1
   3  -7   9 191961. 4618.69   2
  -4  -3  -9 196012. 4728.04   1
   4   3   9 197228. 4757.16   1
   7  -3  -9 198424. 4355.54   1
   4  -7   9 203316. 4755.21   2
   3   4   9 206561. 4833.94   1
  -3  -4  -9 203154. 4832.75   1
  -7   3   9 191691. 4236.15   1
  -3  -4  -9 194692. 4718.20   2
  -4  -3  -8 2717.17 503.675   2
  -3  -4  -8 2639.52 546.066   1
  -7   3   8 2786.87 446.799   1
   7  -4  -8 1347.85 398.296   1
   3   4   8 1791.13 430.631   1
   4  -7   8 2053.94 385.618   1
  -3  -4  -8 3042.20 544.302   2
   4   3   8 1644.58 427.822   1
  -4  -3  -8 2368.86 523.551   1
   7  -3  -8 2919.71 501.962   1
   3  -7   8 2566.20 494.465   2
  -4   7  -8 1939.87 386.526   1
   4  -7   8 2097.09 503.833   2
  -7   4   8 1868.40 420.657   1
  -3  -4  -7 196206. 4568.91   2
  -3   7  -7 202330. 4114.96   1
   3  -7   7 194526. 4000.57   1
  -4  -3  -7 181663. 4428.65   2
  -3  -4  -7 196463. 4559.18   1
   7  -4  -7 187136. 4249.70   1
  -4  -3  -7 194182. 4577.22   1
   4   3   7 186806. 4539.16   1
  -7   3   7 193736. 4172.77   1
   4  -7   7 203581. 4181.75   1
  -7   4   7 210524. 4366.42   1
  -4   7  -7 206372. 4277.06   1
   3   4   7 191640. 4507.62   1
   3  -7   7 182877. 4349.24   2
   7  -3  -7 196524. 4236.04   1
   4  -7   7 179540. 4391.73   2
   7  -3  -5 116767. 3147.94   1
  -4  -3  -5 125526. 3462.29   1
  -4   7  -5 126622. 3260.93   1
   4   3   5 130650. 3514.08   1
  -3  -4  -5 128492. 3461.16   1
   3   4   5 124946. 3460.78   1
  -3   7  -5 128414. 3173.25   1
   7  -4  -5 143584. 3487.83   1
   3  -7   5 134126. 3181.81   1
  -7   4   5 136325. 3379.14   1
  -3  -4  -5 128432. 3495.09   2
   4  -7   5 125181. 3410.00   2
   3  -7   5 131122. 3466.09   2
   4  -7   5 132100. 3241.71   1
  -7   3   5 142979. 3372.37   1
  -4  -3  -5 133448. 3525.83   2
  -7   4   4 313929. 5751.94   1
   7  -3  -4 307849. 5730.73   1
   4   3   4 329810. 6039.98   1
  -3  -4  -4 336631. 6067.88   1
   4  -7   4 315446. 5941.80   2
   7  -4  -4 335819. 5923.45   1
   3  -7   4 323116. 6012.41   2
  -4  -3  -4 320832. 5967.70   1
  -3  -4  -4 328433. 6067.35   2
  -4  -3  -4 335445. 6040.46   2
  -7   3   4 304455. 5636.27   1
  -4   7  -4 339700. 5881.20   1
  -3   7  -3 43894.0 1757.29   1
   4  -7   3 43787.6 1906.55   2
   4  -7   3 42457.2 1734.18   1
   7  -3  -3 44459.8 1807.82   1
  -3  -4  -3 45626.9 1920.85   2
  -3  -4  -3 44086.0 1857.59   1
   4   3   3 44618.6 1869.83   1
  -7   3   3 46147.9 1801.62   1
   3  -7   3 41842.4 1695.68   1
  -4  -3  -3 45691.6 1910.84   1
   7  -4  -3 43687.9 1829.04   1
   3  -7   3 43353.4 1867.29   2
  -4   7  -3 40168.6 1755.69   1
  -7   4   3 44743.2 1822.12   1
  -4  -3  -3 43924.6 1863.63   2
   3   4   3 42304.4 1854.98   1
  -4  -3  -2 340243. 5886.92   2
  -4  -3  -2 309715. 5690.35   1
   3  -7   2 323663. 5907.91   2
   3  -7   2 319217. 5664.45   1
  -7   4   2 312205. 5734.42   1
   4  -7   2 321831. 5894.75   2
  -3  -4  -2 330551. 5819.40   1
   7  -4  -2 317506. 5761.46   1
  -3  -4  -2 323008. 5850.12   2
  -4  -3  -1 42039.4 1767.30   2
   7  -3  -1 43053.4 1756.19   1
  -7   4   1 48134.6 1890.88   1
  -4   7  -1 43911.6 1791.73   1
   4   3   1 40159.8 1733.40   1
   7  -4  -1 43720.1 1813.54   1
   4  -7   1 42238.2 1830.20   2
   4  -7   1 45666.3 1834.95   1
  -3  -4  -1 42955.0 1735.99   1
   3  -7   1 41634.9 1745.79   1
   3   4   1 41120.7 1758.19   1
   3  -7   1 42696.0 1849.40   2
  -4  -3  -1 41390.6 1727.37   1
  -7   3   1 39387.1 1709.53   1
  -3   7  -1 41529.5 1751.37   1
  -3  -4  -1 41731.2 1746.31   2
   3  -7   0 13656.9 1007.11   1
   7  -3   0 12879.6 960.193   1
  -3  -4   0 13816.0 953.827   1
   4  -7   0 15028.4 1081.81   2
  -3   7   0 14332.9 1026.37   1
   7  -4   0 14252.2 989.639   1
   4  -7   0 15807.8 1060.85   1
  -4   7   0 15160.5 1064.12   1
  -4  -3   0 15500.6 1016.81   1
   3   4   0 15204.3 1023.77   1
  -7   3   0 14264.3 1018.72   1
   4   3   0 12741.0 941.688   1
  -4  -3   0 15280.3 1034.08   2
   3  -7   0 12298.3 977.983   2
  -7   4   0 14892.8 1054.36   1
  -3  -4   0 14425.7 1029.17   2
   4  -7  -1 74182.0 2471.20   2
   7  -4   1 77849.3 2467.98   1
   3   4  -1 79732.6 2355.55   1
   3  -7  -1 79537.7 2523.48   2
   4  -7  -1 82597.2 2569.94   1
  -3   7   1 78107.4 2507.89   1
  -4   7   1 76211.8 2503.08   1
   3  -7  -1 76862.4 2455.82   1
   7  -3   1 75787.1 2448.27   1
  -3  -4   1 81530.9 2356.79   1
   4   3  -1 78019.8 2356.54   1
  -4  -3   1 82652.8 2375.55   1
  -7   3  -1 71695.3 2390.30   1
  -3  -4   1 75018.0 2364.50   2
  -4  -3   1 76957.7 2360.73   2
  -7   4  -1 76411.8 2461.54   1
   4  -7  -2 136078. 3430.52   2
   7  -4   2 130472. 3353.71   1
  -3   7   2 123945. 3319.64   1
   7  -3   2 123450. 3269.62   1
   3   4  -2 143949. 3210.15   1
  -4   7   2 131351. 3382.88   1
   3  -7  -2 135682. 3437.97   2
   4   3  -2 135127. 3172.11   1
  -3  -4   2 145056. 3176.55   1
  -4  -3   2 138717. 3161.99   1
   3  -7  -2 127722. 3338.99   1
  -7   4  -2 130757. 3379.51   1
   4  -7  -2 134821. 3458.25   1
  -7   3  -2 131462. 3379.71   1
  -3  -4   2 135125. 3250.50   2
  -4  -3   2 125594. 3145.08   2
   7  -4   3 204359. 4387.35   1
   4   3  -3 207964. 4028.73   1
   3  -7  -3 199563. 4421.82   1
   4  -7  -3 195992. 4339.19   2
  -3   7   3 196077. 4362.46   1
   7  -3   3 207927. 4422.84   1
   4  -7  -3 197578. 4427.10   1
  -3  -4   3 215809. 4018.50   1
  -4  -3   3 216960. 4051.84   1
  -4   7   3 205318. 4470.74   1
  -4  -3   3 206749. 4120.14   2
  -3  -4   3 211047. 4216.23   2
   3   4  -3 214399. 4033.87   1
  -7   3  -3 200069. 4393.45   1
   3  -7  -3 201460. 4372.50   2
  -7   4  -3 203628. 4464.52   1
   3   4  -4 10686.4 745.933   1
  -3  -4   4 8544.05 670.230   1
   3  -7  -4 9568.58 879.733   1
   7  -4   4 6264.08 658.730   1
  -3   7   4 8150.51 792.186   1
  -4  -3   4 8783.50 679.844   1
  -4   7   4 7913.35 787.644   1
  -7   3  -4 7960.53 801.888   1
   3  -7  -4 8756.15 835.126   2
   4  -7  -4 7933.90 812.661   1
   7  -3   4 8025.98 784.398   1
  -3  -4   4 8835.33 756.294   2
   4   3  -4 8672.18 699.024   1
  -4  -3   4 9218.52 749.845   2
   4  -7  -4 8112.31 766.476   2
  -7   4  -4 7939.54 801.243   1
   3  -7  -5 402835. 6983.74   1
   3  -7  -5 406303. 6919.01   2
   4  -7  -5 397988. 7055.31   1
  -3  -4   7 162497. 3575.27   2
   4  -7  -7 161945. 4060.28   1
   3  -7  -7 155119. 3918.90   2
  -4   7   7 165716. 4067.25   1
  -7   3  -7 160668. 4013.94   1
  -3   7   7 159478. 4034.93   1
   7  -3   7 159658. 3919.71   1
   7  -4   7 159751. 3888.28   1
   3  -7  -7 156969. 4021.19   1
  -7   4  -7 147508. 3863.89   1
   4  -7  -7 156496. 3853.71   2
  -4   7   8 221586. 4896.21   1
   3  -7  -8 216051. 4908.30   1
   7  -3   8 219958. 4808.38   1
   4  -7  -8 213444. 4724.10   2
   4  -7  -8 213843. 4919.74   1
  -3   7   8 203871. 4802.63   1
   7  -4   8 222978. 4806.38   1
  -7   3  -8 216789. 4887.36   1
   3  -7  -8 222845. 4862.19   2
  -7   4  -8 220336. 4873.03   1
  -4   7   9 1573.18 423.966   1
   7  -3   9 421.327 209.282   1
   3  -7  -9 677.669 316.590   2
   4  -7  -9 1794.80 449.869   1
   3  -7  -9 946.806 373.397   1
   7  -4   9 784.352 300.216   1
  -3   7   9 1111.36 371.823   1
  -7   3  -9 1112.77 390.811   1
   4  -7  -9 1221.28 342.121   2
  -7   4  -9 1306.30 406.024   1
   7  -3  10 248274. 5324.38   1
   3  -7 -10 237804. 5388.37   1
   4  -7 -10 247819. 5505.39   1
  -4   7  10 258971. 5468.10   1
  -3   7  10 250339. 5491.96   1
   7  -4  10 232995. 5187.74   1
   3  -7 -10 255891. 5417.85   2
   4  -7 -10 243089. 5212.42   2
  -7   3 -10 245896. 5431.04   1
  -7   4 -10 243659. 5412.52   1
   3  -7 -11 16115.9 1274.18   1
   7  -3  11 15649.6 1220.40   1
  -3   7  11 15752.2 1287.47   1
   7  -4  11 20093.7 1374.92   1
  -4   7  11 19058.5 1363.80   1
  -7   3 -11 17375.8 1345.15   1
  -7   4 -11 18725.7 1356.96   1
   4  -7 -11 19484.9 1414.11   1
   3  -7 -11 17268.5 1284.47   2
   4  -7 -12 11346.4 1112.82   1
   7  -3  12 9841.09 1007.75   1
   3  -7 -12 9636.53 1029.30   1
  -3   7  12 11709.6 1116.21   1
   7  -4  12 12396.5 1092.76   1
  -4   7  12 11641.1 1105.13   1
  -7   3 -12 10212.5 1060.06   1
  -7   4 -12 11813.9 1101.85   1
   3  -7 -12 10734.2 1070.28   2
   7  -3  13 120182. 3732.46   1
   4  -7 -13 108347. 3661.77   1
  -3   7  13 125542. 3838.62   1
   3  -7 -13 109217. 3645.66   1
   7  -4  13 122637. 3763.72   1
  -4   7  13 126757. 3835.23   1
  -7   3 -13 123774. 3849.11   1
  -7   4 -13 115421. 3740.32   1
   7  -3  14 37947.7 2061.95   1
  -4   7  14 38835.9 2058.60   1
   7  -4  14 36566.4 2043.57   1
   3  -7 -14 37594.8 2086.01   1
  -3   7  14 39729.9 2130.65   1
  -7   3 -14 37090.7 2102.39   1
  -7   4 -14 36137.3 2052.77   1
   4  -7 -14 34987.9 2032.18   1
  -3   7  15 83532.0 3165.51   1
   3  -7 -15 81634.8 3166.05   1
   4  -7 -15 87105.6 3290.91   1
  -4   7  15 79110.6 3149.80   1
   7  -3  15 81915.2 3185.68   1
  -7   3 -15 80944.7 3181.72   1
  -7   4 -15 88674.0 3357.29   1
  -7   3 -16 1644.22 471.248   1
   4  -7 -16 1194.74 442.048   1
   3  -7 -16 2168.11 572.631   1
  -4   7  16 2042.98 551.021   1
  -3   7  16 2549.20 571.288   1
  -3   7  17 38616.6 2233.49   1
   3  -7 -17 43631.6 2355.63   1
   4  -7 -17 39289.0 2326.15   1
  -5  -2 -18 601.542 369.452   2
   5   2  18 623.535 381.190   1
   2   5  18 286.065 358.401   1
  -5  -2 -18 351.503 316.322   1
  -2  -5 -18 484.784 353.342   1
  -2  -5 -17 5702.97 873.505   2
  -5  -2 -17 6765.86 969.047   1
  -2  -5 -17 5599.94 874.668   1
   2   5  17 5139.99 837.371   1
  -5  -2 -17 6008.34 877.434   2
   5   2  17 5489.44 839.287   1
   5   2  16 281803. 6623.23   1
  -2  -5 -16 319657. 6964.12   1
  -5  -2 -16 314524. 6939.90   1
   2   5  16 307953. 6775.21   1
  -5  -2 -16 301064. 6664.39   2
  -2  -5 -16 283578. 6674.42   2
  -5  -2 -15 2117.46 510.414   1
  -5  -2 -15 2487.74 559.726   2
   5   2  15 2219.52 577.369   1
  -2  -5 -15 1578.52 485.413   1
   2   5  15 2514.92 590.726   1
  -2  -5 -15 1733.68 502.319   2
  -5  -2 -14 3796.45 663.786   2
  -2  -5 -14 3971.20 691.123   1
   5   2  14 4038.30 702.364   1
   2   5  14 3994.67 686.234   1
  -2  -5 -14 2790.62 619.655   2
  -5  -2 -14 3416.63 637.350   1
  -5  -2 -13 947.913 420.912   2
   5   2  13 448.485 330.888   1
  -2  -5 -13 366.198 257.144   2
  -2  -5 -13 236.573 230.874   1
  -5  -2 -13 315.197 223.322   1
   2   5  13 839.443 369.361   1
  -5  -2 -12 139219. 4058.19   2
   5   2  12 141095. 4148.27   1
  -2  -5 -12 145953. 4169.63   1
   7  -5 -12 144539. 4039.99   1
  -5  -2 -12 145344. 4231.88   1
   2   5  12 141779. 4160.07   1
  -2  -5 -12 145225. 4169.70   2
   2   5  11 1110.73 344.397   1
  -5  -2 -11 982.736 387.124   2
  -7   5  11 1211.94 366.378   1
   7  -5 -11 1552.03 379.732   1
   5   2  11 928.844 357.654   1
  -2  -5 -11 1309.48 404.462   1
  -5  -2 -11 1247.42 370.187   1
   2  -7  11 1119.83 405.579   2
  -2  -5 -11 764.325 422.909   2
  -2  -5 -10 17600.2 1350.86   2
  -7   5  10 20015.5 1304.86   1
  -5  -2 -10 20832.9 1431.97   2
   7  -5 -10 20488.5 1365.60   1
  -2  -5 -10 19458.8 1382.01   1
   2  -7  10 20509.5 1385.47   2
  -5  -2 -10 18447.3 1367.32   1
   5   2  10 16055.1 1307.51   1
   2   5  10 19510.7 1403.03   1
  -7   5   9 7180.35 804.767   1
   7  -5  -9 7055.00 750.557   1
   2   5   9 5165.70 733.632   1
   2  -7   9 6099.07 777.520   2
   5  -7   9 6219.16 680.145   1
  -5  -2  -9 6180.14 810.695   1
   5   2   9 5307.50 732.308   1
  -2  -5  -9 5158.78 746.526   1
  -5   7  -9 7224.15 797.438   1
  -5  -2  -9 6223.98 793.538   2
  -2  -5  -9 6084.31 747.339   2
  -7   2   7 2335.77 429.100   1
   5  -7   7 1804.44 442.295   2
  -5   7  -7 1376.16 357.968   1
  -5  -2  -7 2050.38 470.488   2
   2  -7   7 2004.76 413.271   2
  -2  -5  -7 1823.80 436.876   2
   5   2   7 1785.46 434.346   1
   7  -5  -7 1806.22 457.605   1
  -2  -5  -7 1716.73 440.911   1
   5  -7   7 1685.05 398.647   1
   7  -2  -7 2235.36 394.522   1
  -5  -2  -7 1241.93 360.530   1
   2   5   7 2076.27 482.847   1
  -7   5   7 1705.44 398.873   1
   7  -2  -6 7729.22 711.574   1
  -2   7  -6 9612.73 763.470   1
  -7   2   6 8979.90 792.954   1
   7  -5  -6 7387.79 777.685   1
  -5   7  -6 8528.87 804.982   1
  -2  -5  -6 9327.81 892.383   2
   5  -7   6 7608.21 764.375   1
  -5  -2  -6 8895.70 869.327   2
   2   5   6 7041.44 778.693   1
  -2  -5  -6 8147.50 880.323   1
  -7   5   6 7863.12 801.499   1
   2  -7   6 9360.89 850.970   2
  -5  -2  -6 9188.41 885.815   1
   5  -7   6 10568.8 940.257   2
   2  -7   6 7820.82 687.538   1
   5   2   6 7910.87 857.370   1
   5   2   5 22661.7 1405.40   1
  -7   2   5 23939.1 1299.18   1
  -2  -5  -5 24806.9 1469.30   2
  -5   7  -5 23953.3 1373.30   1
  -2   7  -5 26463.6 1294.86   1
   7  -5  -5 23567.4 1390.44   1
  -2  -5  -5 22565.2 1368.58   1
  -5  -2  -5 23783.7 1399.27   2
   5  -7   5 20195.2 1344.83   2
  -5  -2  -5 23529.5 1416.67   1
   2   5   5 23809.7 1440.21   1
   2  -7   5 23890.4 1376.09   2
   7  -2  -5 22526.6 1279.50   1
   2  -7   5 24623.4 1250.32   1
   5  -7   5 22301.7 1286.59   1
  -7   5   5 23338.9 1351.34   1
  -2  -5  -3 1368.79 370.971   2
   2   5   3 1451.75 362.957   1
   5  -7   3 1959.07 412.627   1
  -7   2   3 2004.70 394.455   1
  -7   5   3 2325.17 451.278   1
   7  -2  -3 1585.69 346.815   1
  -5   7  -3 2458.36 440.736   1
   2  -7   3 1646.01 325.900   1
  -5  -2  -3 1173.76 347.960   2
  -2   7  -3 1566.01 349.641   1
  -2  -5  -3 1280.79 335.768   1
   7  -5  -3 1870.73 415.092   1
   2  -7   3 1402.48 358.645   2
   5   2   3 1512.55 361.938   1
  -5  -2  -3 1079.76 305.206   1
   5  -7   3 2177.71 447.673   2
  -5   7  -2 1986.72 412.854   1
  -2  -5  -2 972.405 300.694   2
  -5  -2  -2 1097.87 280.793   2
  -7   5   2 1114.38 352.947   1
   2   5   2 930.447 324.405   1
   7  -5  -2 1052.64 303.878   1
   2  -7   2 1085.28 288.034   1
   5  -7   2 929.506 316.802   1
   2  -7   2 952.787 308.427   2
  -2   7  -2 923.446 287.382   1
  -2  -5  -2 773.154 310.155   1
   7  -2  -2 1101.58 340.383   1
   5   2   2 987.346 319.553   1
  -5  -2  -2 891.164 331.568   1
   5  -7   2 618.784 289.204   2
  -7   2   2 820.440 281.151   1
   5  -7   1 442.831 194.433   1
   2   5   1 535.924 245.088   1
  -7   2   1 236.780 164.058   1
  -5   7  -1 579.482 280.182   1
   2  -7   1 622.256 266.298   1
   7  -2  -1 404.067 214.289   1
  -7   5   1 2.58420 203.563   1
  -2  -5  -1 370.796 237.881   1
  -2   7  -1 267.861 185.987   1
   2  -7   1 482.297 258.200   2
  -5  -2  -1 435.461 187.257   2
   7  -5  -1 455.949 181.939   1
  -2  -5  -1 569.407 277.476   2
   5   2   1 384.993 236.853   1
  -5  -2  -1 261.073 201.018   1
   5  -7   1 923.589 338.830   2
   5  -7  -1 1505.10 377.686   2
  -2  -5   1 1718.18 386.149   2
   2   5  -1 1515.49 334.597   1
  -5  -2   1 1503.58 341.540   2
  -7   5  -1 1253.58 353.940   1
   5  -7  -1 983.440 301.704   1
  -7   2  -1 1320.21 343.187   1
   2  -7  -1 1509.86 361.148   1
  -5   7   1 1488.15 350.652   1
  -2  -5   1 1908.78 404.745   1
  -2   7   1 1267.08 325.637   1
   7  -5   1 992.109 352.827   1
   7  -2   1 1173.96 334.410   1
   5   2  -1 1376.67 326.599   1
  -5  -2   1 1584.15 367.802   1
   2  -7  -1 1718.72 419.712   2
   7  -2   2 1310.34 348.019   1
  -2  -5   2 1663.61 403.136   2
  -7   5  -2 1542.57 383.312   1
  -5  -2   2 1483.40 343.057   2
  -7   2  -2 1253.92 378.814   1
   2  -7  -2 996.857 300.870   1
   2   5  -2 1185.44 270.553   1
   5  -7  -2 1025.46 270.675   1
  -5   7   2 1373.60 416.821   1
   5  -7  -2 955.360 281.328   2
   7  -5   2 1420.44 355.042   1
  -2  -5   2 1414.38 324.126   1
  -2   7   2 1063.21 286.510   1
   5   2  -2 1024.23 299.925   1
  -5  -2   2 1155.48 274.567   1
   2  -7  -2 1108.12 329.487   2
   5   2  -3 5480.16 580.047   1
   5  -7  -3 6424.86 710.259   1
  -7   5  -3 5873.71 661.134   1
   7  -5   3 4294.47 571.196   1
  -2  -5   3 6041.84 608.538   1
   2  -7  -3 3661.56 552.903   1
  -5   7   3 5463.78 637.325   1
  -2  -5   3 4844.09 621.788   2
  -5  -2   3 4972.89 573.719   1
   2   5  -3 5302.41 569.626   1
   7  -2   3 4564.68 603.114   1
  -2   7   3 4603.34 618.282   1
  -7   2  -3 5328.78 643.384   1
   5  -7  -3 6393.31 696.524   2
   2  -7  -3 5769.24 672.567   2
  -5  -2   3 5622.06 596.132   2
  -2   7   4 421720. 7303.91   1
   2   5  -4 433502. 6562.89   1
   5   2  -4 428065. 6689.57   1
   2  -7  -4 430112. 7265.15   2
   2  -7  -5 10699.5 939.942   1
   5  -7  -5 8318.24 806.932   2
  -7   2  -5 9915.76 905.182   1
  -5   7   5 7979.67 831.348   1
   5  -7  -5 8177.27 827.746   1
  -2  -5   5 8842.56 821.247   2
  -2   7   5 9555.81 904.352   1
   7  -2   5 10721.0 938.702   1
  -5  -2   5 9178.19 722.347   2
  -7   5  -5 7116.44 787.316   1
   2  -7  -5 8445.85 852.540   2
   5   2  -5 9695.88 738.960   1
   7  -5   5 8605.13 815.827   1
   2  -7  -6 2139.95 459.898   2
   2  -7  -6 2845.11 512.386   1
   7  -2   6 2798.89 504.579   1
   5  -7  -6 1832.06 407.022   1
   7  -5   6 2662.44 496.889   1
   5  -7  -6 1416.41 329.650   2
  -5   7   6 2133.83 466.112   1
  -7   5  -6 1548.44 363.995   1
  -2  -5   6 1677.95 380.236   2
  -2   7   6 2598.63 492.293   1
  -7   2  -6 1931.81 378.004   1
   7  -5   7 19755.9 1232.17   1
   5  -7  -7 17721.7 1294.55   1
   2  -7  -7 20225.4 1364.01   1
  -2   7   7 20904.6 1391.86   1
   7  -2   7 21107.5 1340.68   1
  -7   2  -7 18844.3 1295.24   1
   2  -7  -7 18698.0 1266.93   2
  -7   5  -7 18160.8 1213.28   1
  -5   7   7 19605.7 1284.64   1
   5  -7  -7 17309.8 1162.07   2
  -2  -5   7 19803.6 1196.46   2
   7  -2   9 4383.69 649.536   1
  -2   7   9 4485.14 703.560   1
   5  -7  -9 5462.99 748.726   1
  -5   7   9 4390.31 640.675   1
   2  -7  -9 4147.56 657.626   1
   2  -7  -9 4631.79 655.034   2
   7  -5   9 5165.00 680.656   1
  -7   5  -9 4102.95 639.369   1
  -7   2  -9 4182.17 641.402   1
   5  -7  -9 4768.85 650.553   2
  -5   7  10 8378.02 910.401   1
   5  -7 -10 8183.81 926.070   1
   7  -2  10 9484.38 950.488   1
   2  -7 -10 8832.53 962.176   1
  -2   7  10 9822.28 991.283   1
   7  -5  10 9702.28 923.247   1
  -7   2 -10 8694.47 922.043   1
  -7   5 -10 9528.65 969.209   1
   2  -7 -10 8957.41 952.546   2
   2  -7 -11 1021.24 360.494   2
   5  -7 -11 1904.27 486.273   1
   7  -5  11 2031.60 454.264   1
   2  -7 -11 1502.04 445.682   1
   7  -2  11 1022.36 327.403   1
  -5   7  11 1804.67 434.118   1
  -7   2 -11 844.881 396.651   1
  -2   7  11 1209.98 416.209   1
  -7   5 -11 1586.12 472.362   1
   5  -7 -12 164577. 4420.72   1
  -5   7  12 152154. 4249.84   1
   2  -7 -12 159584. 4393.75   1
  -2   7  12 159532. 4388.24   1
   7  -5  12 164791. 4317.22   1
  -7   2 -12 157375. 4391.23   1
  -7   5 -12 160534. 4336.25   1
   2  -7 -12 168915. 4435.25   2
   7  -2  12 147182. 4223.65   1
  -7   5 -13 454.770 226.928   1
   2  -7 -13 437.195 290.463   1
  -5   7  13 354.236 268.812   1
   2  -7 -13 596.647 371.280   2
  -2   7  13 306.579 301.312   1
   7  -2  13 284.174 314.393   1
   5  -7 -13-466.703 391.166   1
  -7   2 -13 344.411 219.429   1
   7  -5  13 336.221 261.179   1
  -5   7  14 991.910 377.888   1
   2  -7 -14 703.941 318.006   1
   7  -2  14 1107.40 433.412   1
  -2   7  14 672.498 313.019   1
  -7   2 -14 408.880 321.804   1
  -7   5 -14 183.268 228.974   1
   5  -7 -14 228.699 284.858   1
   5  -7 -15 2378.50 593.513   1
   2  -7 -15 2691.70 610.121   1
  -5   7  15 2614.73 601.230   1
   7  -2  15 2399.81 562.990   1
  -2   7  15 2672.85 618.700   1
  -7   2 -15 2887.03 637.992   1
   7  -2  16 246108. 6064.46   1
   2  -7 -16 253462. 6082.69   1
  -2   7  16 257092. 6086.24   1
  -7   2 -16 248137. 6088.52   1
   2  -7 -17 898.636 409.220   1
  -7   2 -17 1767.17 522.366   1
  -2   7  17 1162.11 454.473   1
   2  -7 -18 1687.52 490.751   1
  -6  -1 -17 98734.9 3654.78   2
  -1  -6 -17 101320. 3760.44   1
  -6  -1 -17 93941.6 3637.84   1
   1   6  17 109036. 3821.34   1
   6   1  17 95808.5 3667.44   1
  -1  -6 -16 724.974 395.813   2
   6   1  16 1133.35 399.219   1
  -1  -6 -16 882.485 392.109   1
  -6  -1 -16 953.103 491.432   1
  -6  -1 -16 520.287 250.519   2
   1   6  16 820.403 423.568   1
  -6  -1 -15 79750.3 3159.32   1
  -6  -1 -15 73666.1 3012.01   2
  -1  -6 -15 78185.6 3135.37   1
   6   1  15 76248.8 3133.79   1
   1   6  15 80142.5 3158.97   1
  -1  -6 -15 72321.4 3064.45   2
  -6  -1 -14 109063. 3650.61   2
  -1  -6 -14 109724. 3707.80   1
  -6  -1 -14 104881. 3696.60   1
   1   6  14 101302. 3542.70   1
   6   1  14 109297. 3696.44   1
  -1  -6 -14 101896. 3628.54   2
   7  -6 -13 20566.4 1502.26   1
  -1  -6 -13 18292.1 1457.31   1
  -6  -1 -13 20356.6 1527.83   1
   1   6  13 23117.0 1562.72   1
  -1  -6 -13 19338.2 1509.16   2
   6   1  13 21749.7 1572.45   1
  -6  -1 -13 20242.9 1495.33   2
  -6  -1 -12 20447.2 1497.83   2
  -1  -6 -12 20779.3 1515.37   1
   7  -6 -12 21082.9 1476.79   1
  -6  -1 -12 21770.0 1551.64   1
  -1  -6 -12 22106.6 1593.14   2
   6   1  12 18519.2 1450.03   1
  -7   6  12 19200.8 1389.17   1
   1   6  12 20936.6 1483.22   1
  -7   6  11 16885.7 1314.07   1
   7  -6 -11 14558.1 1220.95   1
  -1  -6 -11 15359.1 1299.81   1
  -6  -1 -11 16933.0 1349.99   1
   1   6  11 15313.2 1280.08   1
  -6  -1 -11 16915.5 1340.30   2
   1  -7  11 15272.5 1255.28   2
  -1  -6 -11 15318.5 1287.18   2
   6   1  11 15886.9 1302.61   1
  -6  -1 -10 150480. 4243.61   2
  -6  -1 -10 167973. 4395.29   1
  -1  -6 -10 162776. 4399.06   1
  -7   6  10 166879. 4271.94   1
  -6   7 -10 168518. 4223.49   1
   1  -7  10 156933. 4205.11   2
   7  -6 -10 166443. 4316.80   1
   1   6  10 155294. 4266.90   1
   6  -7  10 160952. 4075.61   1
  -1  -6 -10 160360. 4309.02   2
   6   1  10 155088. 4263.94   1
   6   1   9 63092.5 2515.46   1
  -7   6   9 65552.6 2490.55   1
   1  -7   9 66067.4 2519.96   2
  -1  -6  -9 62174.3 2545.75   1
  -6  -1  -9 59536.1 2520.91   1
   1   6   9 59904.7 2491.85   1
  -6  -1  -9 66391.2 2597.67   2
  -6   7  -9 65704.2 2470.98   1
   6  -7   9 58223.9 2269.82   1
   7  -6  -9 54197.7 2327.72   1
  -1  -6  -9 61059.4 2537.13   2
  -7   6   8 130953. 3611.67   1
  -6  -1  -8 123171. 3589.80   2
   1  -7   8 122334. 3441.42   2
   6  -7   8 115548. 3282.47   1
  -1  -6  -8 118083. 3548.76   1
   7  -6  -8 120646. 3478.51   1
  -6  -1  -8 113836. 3479.20   1
   1   6   8 120388. 3598.69   1
  -1  -6  -8 122319. 3612.29   2
   6   1   8 123228. 3613.87   1
  -6   7  -8 122080. 3428.66   1
   6   1   7 116899. 3486.58   1
  -6  -1  -7 123165. 3526.88   2
   6  -7   7 129958. 3467.61   1
  -1  -6  -7 122748. 3576.41   1
   1  -7   7 122916. 3462.54   2
  -6  -1  -7 132256. 3674.35   1
   1   6   7 120028. 3544.41   1
   7  -6  -7 128229. 3550.83   1
  -6   7  -7 126297. 3474.03   1
  -7   6   7 132425. 3597.15   1
  -1  -6  -7 124466. 3582.84   2
  -1  -6  -6 547992. 8911.59   1
   1   6   6 526396. 8834.96   1
   1  -7   6 557507. 8748.63   2
  -1  -6  -5 148736. 3905.92   2
   1  -7   5 156369. 3477.00   1
  -1   7  -5 160981. 3503.62   1
  -6   7  -5 146423. 3768.79   1
  -1  -6  -5 148271. 3881.53   1
   7  -6  -5 141195. 3769.50   1
   7  -6  -5 151663. 3584.75   2
   6  -7   5 144822. 3678.18   1
  -6  -1  -5 143130. 3791.95   1
   1   6   5 161226. 4010.10   1
  -6  -1  -5 155902. 3881.41   2
  -7   6   5 151323. 3823.30   1
   7  -1  -5 170537. 3736.47   1
  -7   1   5 166707. 3674.87   1
   1  -7   5 144725. 3740.84   2
   6  -7   5 148089. 3912.37   2
   6   1   5 154253. 3891.11   1
  -7   6   4 10129.9 896.501   1
   6  -7   4 8433.73 808.560   1
  -6  -1  -4 8066.12 835.148   2
   6   1   4 7808.61 818.659   1
  -1   7  -4 7290.63 690.402   1
   7  -6  -4 9723.30 892.413   1
  -1  -6  -4 7575.23 818.607   1
   6  -7   4 8302.35 887.049   2
   1  -7   4 8010.69 738.295   1
  -1  -6  -4 8541.50 868.139   2
  -6  -1  -4 7745.54 800.374   1
   1   6   4 7979.36 820.823   1
   1  -7   4 7571.58 785.848   2
   7  -1  -4 7976.72 741.218   1
  -7   1   4 7558.75 726.597   1
   7  -6  -4 9250.15 881.614   2
  -6   7  -4 8710.22 852.345   1
  -1  -6  -3 327606. 6085.59   2
  -6  -1  -3 316475. 5966.73   2
   6  -7   3 315638. 6159.24   2
   6  -7   3 322969. 5910.54   1
   1  -7   3 349554. 5805.41   1
  -1  -6  -3 319898. 6027.48   1
   1   6   3 319810. 6052.66   1
  -6  -1  -3 329193. 6069.25   1
   7  -6  -3 307705. 5935.02   1
   1  -7   3 330174. 6032.73   2
   7  -6  -3 318248. 5818.64   2
  -6   7  -3 307873. 5937.75   1
  -7   6   3 331727. 6071.64   1
  -6  -1  -2 149673. 3674.65   2
  -7   1   2 146239. 3381.77   2
   1  -7   2 137676. 3635.68   2
   1  -7   2 155505. 3562.21   1
   6  -7   2 150773. 3690.78   1
  -1  -6  -2 151847. 3772.92   1
   6  -7   2 157432. 3904.09   2
   1   6   2 143745. 3703.76   1
  -1   7  -2 149635. 3541.33   1
  -6  -1  -2 163683. 3844.86   1
   7  -1  -2 158229. 3658.34   1
  -6   7  -2 154111. 3777.20   1
  -7   1   2 148313. 3558.77   1
   7  -6  -2 156103. 3694.81   2
  -7   6   2 177622. 4002.80   1
   6   1   2 144914. 3684.49   1
  -1  -6  -2 146939. 3749.60   2
   7  -6  -2 155533. 3813.27   1
  -6   7  -1 294820. 5742.56   1
  -1  -6  -1 302119. 5668.05   1
   6   1   1 321720. 5800.26   1
   1  -7   1 317216. 5607.06   1
   6  -7   1 301225. 5730.32   1
  -6  -1  -1 304012. 5580.65   2
   7  -6  -1 307473. 5735.65   1
  -1   7  -1 304127. 5628.85   1
   1   6   1 319628. 5793.16   1
  -6  -1  -1 288334. 5545.03   1
   7  -1  -1 276173. 5448.34   1
   6  -7   1 302195. 5821.89   2
  -1  -6  -1 307518. 5773.57   2
  -7   1   1 301204. 5593.23   1
   1  -7   1 311083. 5793.10   2
  -7   6   1 317998. 5857.55   1
  -1   7   0 30580.5 1546.32   1
  -6   7   0 30986.2 1616.01   1
   6   1   0 28900.3 1500.93   1
  -1  -6   0 32770.2 1550.16   1
   7  -6   0 31053.0 1571.17   1
   1   6   0 30991.7 1535.84   1
   6  -7   0 30297.8 1567.91   1
   6  -7   0 30707.8 1572.06   2
   7  -1   0 30554.1 1518.40   1
  -6  -1   0 32954.3 1575.37   1
   1  -7   0 31526.4 1534.44   1
  -7   1   0 29416.7 1510.79   1
  -1  -6   0 30251.5 1535.92   2
   1  -7   0 33741.8 1655.19   2
  -6  -1   0 31311.6 1491.30   2
  -7   6   0 30976.3 1576.47   1
  -6   7   1 8839.16 822.360   1
  -1  -6   1 9278.62 821.023   2
  -1   7   1 8316.02 806.696   1
   1  -7  -1 9518.86 824.962   1
   6   1  -1 10577.2 861.650   1
   1   6  -1 8914.07 807.248   1
   7  -1   1 8772.54 809.223   1
  -6  -1   1 8272.65 786.588   1
   1  -7  -1 7961.83 811.109   2
   7  -6   1 7932.28 804.203   1
  -7   1  -1 8818.81 823.245   1
   6  -7  -1 7349.41 785.374   2
   6  -7  -1 7678.55 792.818   1
  -7   6  -1 7527.46 798.231   1
  -1  -6   1 9544.44 813.613   1
  -6  -1   1 8199.34 750.314   2
   6  -7  -2 514489. 8192.74   2
   6   1  -3 1709.88 394.722   1
   1  -7  -3 921.515 359.418   2
  -6  -1   3 1472.17 326.988   2
  -7   6  -3 1203.94 366.780   1
  -1  -6   3 1168.75 354.244   2
   7  -1   3 663.547 197.181   1
  -6   7   3 662.054 236.671   1
   6  -7  -3 1137.53 359.638   1
  -1  -6   3 978.844 233.001   1
   1  -7  -3 771.090 314.646   1
  -7   1  -3 1111.90 330.113   1
   7  -6   3 963.602 314.012   1
  -1   7   3 1113.83 315.909   1
   1   6  -3 1618.30 331.748   1
  -6  -1   3 892.240 290.338   1
   6  -7  -3 759.438 312.937   2
  -6   7   4 137486. 3679.33   1
  -1  -6   4 144661. 3290.03   1
   1  -7  -4 144220. 3762.59   1
   1   6  -4 156660. 3405.62   1
  -1   7   4 150204. 3813.67   1
   7  -1   4 142571. 3692.93   1
   6   1  -4 151453. 3464.88   1
  -6  -1   4 158787. 3514.14   1
  -7   1  -4 154789. 3816.64   1
  -1  -6   4 155366. 3709.79   2
   7  -6   4 141130. 3652.09   1
   1  -7  -4 147537. 3770.41   2
   6  -7  -4 147552. 3626.95   2
   6  -7  -4 145107. 3800.56   1
  -7   6  -4 150943. 3799.70   1
  -6  -1   4 147362. 3318.83   2
   6  -7  -5 186171. 4359.84   1
  -1  -6   5 184199. 4132.36   2
  -6   7   5 184568. 4301.93   1
   6  -7  -5 186925. 4142.73   2
   7  -6   5 182090. 4203.42   1
   6   1  -5 167490. 3689.33   1
   1  -7  -5 176649. 4291.51   1
   7  -1   5 186121. 4298.81   1
  -1   7   5 176841. 4303.24   1
  -6  -1   5 166627. 3670.88   1
  -7   1  -5 187122. 4315.94   1
   1  -7  -5 172435. 4187.49   2
  -7   6  -5 178293. 4202.05   1
  -6   7   6 351668. 6355.41   1
   7  -6   6 323933. 6067.77   1
   6  -7  -6 325945. 6260.98   1
   1  -7  -6 315303. 6230.56   1
   7  -1   6 302152. 6061.11   1
  -7   6  -6 321617. 6152.39   1
  -1   7   6 319171. 6207.84   1
   1  -7  -6 307749. 6106.34   2
   6  -7  -6 362876. 6154.87   2
  -7   1  -6 310191. 6136.39   1
  -1  -6   6 323152. 5975.32   2
   1  -7  -7 305751. 6159.96   1
   7  -1   7 313743. 6123.56   1
  -1   7   7 302019. 6143.06   1
  -7   1  -7 325940. 6230.48   1
  -7   6  -7 310397. 6106.83   1
   1  -7  -7 307787. 6110.31   2
   7  -6   7 299271. 5821.99   1
   6  -7  -7 325651. 5845.13   2
  -1  -6   7 321354. 5948.42   2
   6  -7  -7 303087. 6123.01   1
  -6   7   7 298087. 5982.91   1
  -1   7   8 1474.22 416.919   1
   1  -7  -8 1428.85 435.763   2
   6  -7  -8 1682.23 472.516   1
  -6   7   8 1689.76 408.998   1
   1  -7  -8 1130.41 400.100   1
  -7   6  -8 1784.44 446.283   1
   6  -7  -8 1459.78 384.300   2
   7  -6   8 1756.08 415.095   1
  -1  -6   8 1137.39 308.244   2
   7  -1   8 934.365 304.057   1
  -7   1  -8 1206.40 365.883   1
  -6   7   9 115878. 3530.44   1
   7  -1   9 129865. 3706.80   1
  -7   6  -9 128553. 3638.14   1
   1  -7  -9 127382. 3718.60   1
  -1   7   9 129798. 3726.52   1
   6  -7  -9 112940. 3536.41   1
  -1  -6   9 122663. 3465.09   2
  -7   1  -9 123526. 3678.62   1
   1  -7  -9 127633. 3717.91   2
   7  -6   9 129113. 3582.65   1
  -6   7  10 213128. 4994.19   1
   6  -7 -10 208381. 5027.84   1
   7  -1  10 215604. 5030.29   1
  -1   7  10 217119. 5117.47   1
  -7   1 -10 202753. 4987.70   1
   7  -6  10 215143. 4897.94   1
  -7   6 -10 219534. 5022.79   1
   1  -7 -10 200693. 5021.98   1
   1  -7 -10 202200. 4959.03   2
  -6   7  11 60126.8 2574.84   1
   6  -7 -11 63005.6 2658.72   1
   1  -7 -11 65642.4 2713.62   1
  -1   7  11 67375.0 2719.27   1
  -7   1 -11 63524.9 2653.06   1
   7  -6  11 69258.5 2631.36   1
  -7   6 -11 71013.2 2722.72   1
   1  -7 -11 67313.4 2714.09   2
   7  -1  11 67263.3 2682.86   1
   7  -1  12 14360.4 1267.34   1
  -6   7  12 15807.0 1279.52   1
   6  -7 -12 14525.3 1285.23   1
  -1   7  12 15647.8 1322.64   1
   7  -6  12 16982.2 1302.84   1
  -7   1 -12 15412.5 1298.32   1
  -7   6 -12 18506.8 1399.16   1
   1  -7 -12 17898.4 1382.93   1
   1  -7 -12 18267.8 1405.65   2
  -7   1 -13 48460.6 2383.99   1
  -6   7  13 45899.2 2289.38   1
   1  -7 -13 47970.1 2356.51   1
  -1   7  13 47124.1 2324.41   1
   7  -1  13 47949.2 2363.99   1
  -7   6 -13 47262.0 2267.03   1
   1  -7 -13 50565.0 2437.24   2
   6  -7 -13 44176.4 2288.51   1
   6  -7 -14 86233.9 3351.32   1
   1  -7 -14 86725.8 3312.86   1
  -1   7  14 105232. 3561.59   1
  -7   1 -14 100549. 3531.42   1
   7  -1  14 96174.8 3458.91   1
  -6   7  14 87580.8 3306.07   1
   1  -7 -14 100748. 3576.31   2
   7  -1  15 18952.2 1527.55   1
   6  -7 -15 19106.3 1559.94   1
  -7   1 -15 21062.7 1625.33   1
   1  -7 -15 19743.7 1560.52   1
  -1   7  15 22009.8 1609.92   1
   1  -7 -16 48355.2 2477.86   1
  -1   7  16 44428.0 2321.91   1
  -7   1 -16 42064.6 2370.04   1
  -7   1 -16 40315.5 2260.15   2
   7  -1  16 39064.9 2271.43   1
  -7   1 -17 7405.49 979.392   2
   1  -7 -17 8916.15 1113.60   1
  -1   7  17 8313.06 1003.79   1
   7  -1  17 7376.56 984.673   1
  -7   1 -17 8268.18 1076.65   1
   0  -7   0 2075.11 477.287   2
  -7   0   0 2532.88 438.773   2
   7   0   0 3079.81 503.553   1
  -7   7   0 3704.57 563.549   1
   0  -7   0 3003.51 519.982   1
   7  -7   0 1858.04 448.696   1
   7  -7   0 2224.99 480.058   2
  -7   0   0 1870.20 439.016   1
   0   7   0 2168.00 455.385   1
   0  -7  -1 550.828 234.993   2
   7  -7  -1 962.941 287.762   1
   7   0   1 828.398 339.376   1
  -7   0  -1 949.820 319.596   2
   0   7  -1 1231.28 307.477   1
  -7   7  -1 753.967 296.470   1
   7   0  -1 1443.80 370.325   1
  -7   7   1 1204.07 373.869   1
   7  -7   1 1306.56 416.414   1
   0  -7   1 1277.03 351.219   1
   0  -7  -1 1046.47 334.531   1
   0   7   1 991.450 326.175   1
   7  -7   1 1166.19 384.463   2
   7  -7  -1 985.776 367.371   2
  -7   0   1 1364.01 386.913   2
  -7   0  -1 1395.85 386.382   1
  -7   0   1 1374.67 346.429   1
   0  -7   1 1530.39 411.805   2
  -7   7   2 226537. 4949.09   1
  -7   0   2 240512. 4630.21   2
  -7   0  -2 233277. 4859.62   2
   7  -7  -2 209864. 4781.45   2
   7  -7   2 230429. 5001.23   2
   0  -7  -2 225295. 4895.62   1
   7  -7  -2 220939. 4883.18   1
   7   0   2 228437. 4899.63   1
   0   7  -2 239952. 4773.91   1
   7   0  -2 224169. 4724.29   1
   0  -7   2 248572. 4790.85   1
   0   7   2 229982. 4967.28   1
  -7   0  -2 237402. 4980.98   1
  -7   0   2 242339. 4790.71   1
   7  -7   2 220260. 4826.43   1
   0  -7  -2 235325. 4971.85   2
   0  -7   2 240525. 4956.70   2
  -7   7  -2 218528. 4866.53   1
   0  -7   3 321874. 5651.55   1
  -7   0   3 308267. 5518.04   2
  -7   0  -3 307303. 5928.59   2
   7   0   3 304121. 5948.51   1
   7   0  -3 325801. 5862.49   1
   7  -7  -3 315391. 6054.42   1
   0   7   3 315487. 6061.16   1
  -7   0  -3 326451. 6080.69   1
   7  -7   3 302394. 5871.84   1
  -7   0   3 308909. 5669.09   1
   7  -7  -3 328757. 6008.76   2
   0  -7  -3 304959. 5992.19   2
   0  -7   3 299425. 5876.70   2
   0  -7  -3 304890. 5998.64   1
   0   7  -3 321980. 5709.47   1
  -7   7  -3 306665. 6019.81   1
  -7   7   3 316744. 6081.04   1
  -7   7   4 135507. 3679.20   1
  -7   0  -4 122810. 3521.38   2
   0  -7   4 136723. 3338.55   1
   7   0   4 130512. 3625.91   1
   0   7  -4 129058. 3251.53   1
   0  -7  -4 130576. 3647.44   1
   7   0  -4 133014. 3373.74   1
   0   7   4 134814. 3706.81   1
   7  -7   4 133669. 3594.31   1
  -7   0  -4 131118. 3622.70   1
   7  -7  -4 146516. 3779.07   1
  -7   0   4 150025. 3494.56   1
   0  -7  -4 137421. 3707.28   2
   0  -7   4 132179. 3573.11   2
  -7   7  -4 140447. 3706.53   1
   7  -7  -4 139383. 3566.06   2
  -7   7   5 239753. 5040.33   1
   7  -7  -5 230271. 4735.86   2
  -7   0  -5 229574. 4954.87   2
   7   0   5 214457. 4809.63   1
   0  -7  -5 203155. 4805.16   1
   7  -7   5 206965. 4663.09   1
   7  -7  -5 208951. 4791.69   1
   7   0  -5 235717. 4621.20   1
   0   7   5 209975. 4843.75   1
   0  -7   5 203116. 4637.62   2
  -7   0  -5 201141. 4746.74   1
  -7   0   5 191091. 4249.52   1
  -7   7  -5 213034. 4806.90   1
   0  -7  -5 214347. 4862.00   2
  -7   7   6 289447. 5973.18   1
   7   0   6 279326. 5892.97   1
  -7   7  -6 305945. 6040.54   1
   7  -7   6 288087. 5816.13   1
   0  -7  -6 304907. 6137.99   1
   0   7   6 308816. 6131.28   1
  -7   0  -6 298988. 6086.64   1
   7  -7  -6 329699. 5906.48   2
  -7   0  -6 317592. 6197.17   2
   0  -7   6 315805. 6021.71   2
   0  -7  -6 313104. 6188.94   2
   7  -7  -6 299706. 6019.60   1
  -7   7   7 65913.4 2542.18   1
   7  -7  -7 62356.9 2487.76   1
  -7   0  -7 62072.7 2479.36   2
   7  -7   7 67146.7 2464.15   1
   7   0   7 65947.3 2540.47   1
   0  -7   7 67348.8 2507.91   2
   0   7   7 63103.9 2533.03   1
  -7   0  -7 65097.4 2532.63   1
  -7   7  -7 63955.3 2473.16   1
   0  -7  -7 57918.8 2443.75   2
   0  -7  -7 63170.6 2533.08   1
   7  -7   8 23556.6 1446.21   1
  -7   7   8 27103.0 1627.63   1
  -7   0  -8 24926.4 1564.09   2
   0  -7  -8 23931.1 1532.25   2
   7   0   8 22064.9 1497.28   1
   7  -7  -8 28196.6 1633.10   1
   0  -7  -8 21482.3 1490.74   1
   0   7   8 21840.0 1497.34   1
  -7   0  -8 20475.8 1448.79   1
   0  -7   8 23281.3 1514.63   2
  -7   7  -8 25003.4 1538.02   1
  -7   7   9 97154.8 3243.54   1
   7   0   9 107651. 3419.51   1
  -7   7  -9 107479. 3353.64   1
   0  -7   9 102265. 3263.91   2
   7  -7  -9 98185.1 3290.63   1
   0   7   9 104687. 3417.00   1
  -7   0  -9 104167. 3402.95   1
  -7   0  -9 105146. 3380.06   2
   7  -7   9 109191. 3296.63   1
   0  -7  -9 101145. 3381.57   1
   0  -7  -9 100728. 3357.02   2
   7   0  10 155736. 4283.86   1
  -7   7  10 154191. 4215.25   1
  -7   0 -10 148309. 4180.07   2
   7  -7 -10 149072. 4148.43   1
   0  -7 -10 162276. 4372.35   1
  -7   7 -10 154295. 4178.20   1
   0   7  10 141418. 4115.72   1
  -7   0 -10 139369. 4093.10   1
   7  -7  10 154904. 4122.21   1
   0  -7  10 153195. 4180.35   2
   0  -7 -10 157667. 4327.57   2
   7   0  11 32620.6 1899.28   1
  -7   7  11 31741.8 1854.91   1
  -7   0 -11 30219.9 1855.44   2
   0  -7 -11 34301.1 1953.76   1
   0   7  11 34590.9 1969.29   1
  -7   0 -11 31924.0 1887.55   1
   7  -7  11 32485.2 1815.19   1
  -7   7 -11 34245.5 1888.15   1
   0  -7 -11 31721.4 1899.72   2
   7   0  12 7188.19 934.275   1
  -7   7  12 8237.94 910.763   1
  -7   0 -12 8966.29 1031.72   2
   0  -7 -12 8144.07 945.653   1
   0  -7 -12 8052.37 963.230   2
   0   7  12 9247.13 1026.09   1
  -7   0 -12 7523.23 897.350   1
   7   0  13 14224.5 1275.92   1
  -7   7  13 14145.4 1301.36   1
  -7   0 -13 14524.9 1264.80   2
   0  -7 -13 15778.4 1374.83   1
   0   7  13 13881.4 1257.80   1
  -7   0 -13 13935.1 1329.24   1
   0  -7 -13 14532.7 1314.19   2
  -7   0 -14 126980. 3989.59   2
   0  -7 -14 118981. 4017.89   2
   7  -7 -14 116862. 3930.06   1
  -7   0 -14 129309. 4124.92   1
   0  -7 -14 126674. 4080.32   1
   7   0  14 120622. 3943.12   1
   0  -7 -15 42294.0 2304.91   1
   7   0  15 44840.2 2351.16   1
   0   7  15 47273.8 2402.76   1
  -7   0 -15 41483.8 2321.54   1
  -7   0 -15 41596.1 2227.81   2
   0  -7 -15 39928.9 2297.16   2
   7   0  16 13008.7 1291.74   1
  -7   0 -16 12798.5 1249.30   2
   0  -7 -16 13431.0 1311.04   1
   0   7  16 13774.7 1287.46   1
  -7   0 -16 13250.5 1335.39   1
   7   0  17 36279.0 2237.46   1
  -7   0 -17 34376.7 2191.13   1
  -4  -4 -17 75.9012 287.882   2
  -4  -4 -16 257656. 6215.28   2
  -4  -4 -16 251425. 6140.75   1
   4   4  16 245204. 6014.12   1
  -4  -4 -15 506.287 300.507   2
   4   4  15 67.1116 278.225   1
  -4  -4 -15 163.286 245.047   1
  -4  -4 -14 277.813 271.187   1
   4   4  14 223.980 231.524   1
  -4  -4 -14 500.932 360.657   2
  -4  -4 -13-3.95442 270.204   2
   4   4  13-45.1187 318.252   1
  -4  -4 -13 12.9183 233.730   1
  -4  -4 -12 293607. 6477.31   1
   4   4  12 307834. 6594.58   1
  -4  -4 -12 310799. 6599.38   2
  -4  -4 -11 265.331 238.915   2
   4   4  11 225.603 242.670   1
  -4  -4 -11-208.893 325.475   1
  -4  -4 -10 6322.28 859.879   2
   4  -8  10 5352.67 760.384   2
  -4  -4 -10 7391.08 903.093   1
   4   4  10 7619.47 931.522   1
   4   4   9 491.708 288.057   1
  -4  -4  -9-132.079 256.165   2
  -8   4   9-128.980 235.142   1
  -4  -4  -9 376.433 247.385   1
   8  -4  -9 81.0935 186.400   1
   4  -8   9-352.483 332.460   2
   4   4   8 314470. 6361.00   1
   8  -4  -8 307462. 6038.91   1
   4  -8   8 309824. 6282.83   2
  -8   4   8 314924. 6103.35   1
  -4  -4  -8 317711. 6406.53   2
  -4  -4  -8 309112. 6356.51   1
   4  -8   7 278.553 302.908   1
  -8   4   7 652.127 381.328   1
  -4  -4  -7-28.9017 192.600   2
  -4   8  -7 148.007 233.384   1
  -4  -4  -7 89.6508 209.871   1
   8  -4  -7 266.842 283.502   1
   4   4   7-46.8572 236.589   1
   4  -8   7 15.0724 215.068   2
  -8   4   6 2901.68 525.528   1
  -4  -4  -6 2455.73 532.098   2
  -4   8  -6 3075.38 535.463   1
   4   4   6 2417.66 546.229   1
   8  -4  -6 3224.68 533.198   1
   4  -8   6 2916.72 505.065   1
  -4  -4  -6 2427.65 488.758   1
   4  -8   6 2075.31 510.410   2
  -4  -4  -5 14.1252 261.194   2
   4  -8   5 225.003 262.150   1
  -4   8  -5 60.3875 224.659   1
   4   4   5-150.357 197.510   1
   4  -8   5-63.7468 233.430   2
   8  -4  -5 155.702 196.866   1
  -4  -4  -5-138.854 200.957   1
  -8   4   5 219.259 203.944   1
   8  -4  -4 431456. 7448.84   1
  -4   8  -4 455759. 7499.65   1
   4  -8   4 451151. 7398.58   1
   4   4   4 430037. 7649.68   1
   4  -8   4 449583. 7660.70   2
  -8   4   3 196.660 234.569   1
   4  -8   3 232.033 242.064   1
   4   4   3 473.457 238.375   1
  -4   8  -3 348.969 274.299   1
   8  -4  -3 134.108 249.687   1
  -4  -4  -3-93.2473 254.662   1
  -4  -4  -3 2.94256 212.438   2
   4  -8   3 94.5698 207.908   2
  -4   8  -2 26599.4 1491.23   1
   4  -8   2 30279.3 1543.31   1
   8  -4  -2 28517.7 1542.30   1
  -8   4   2 30346.6 1540.91   1
   4   4   2 28386.0 1560.46   1
  -4  -4  -2 30184.9 1564.40   1
   4  -8   2 27158.4 1553.42   2
  -4  -4  -2 29316.9 1553.92   2
   4  -8   1-191.903 187.442   1
  -4  -4  -1 132.024 200.095   2
   4   4   1 455.764 273.326   1
  -4   8  -1 310.785 257.241   1
  -8   4   1 92.2203 228.976   1
   8  -4  -1 140.573 177.515   1
  -4  -4  -1 175.643 163.580   1
   4  -8   1-218.854 231.043   2
  -4  -4   1 193.986 290.525   2
  -8   4  -1-78.8494 207.848   1
   4   4  -1 196.287 183.251   1
   4  -8  -1 174.151 197.688   1
  -4   8   1 432.154 284.274   1
   8  -4   1 18.9356 224.329   1
  -4  -4   1 270.053 214.806   1
   4  -8  -1 469.243 204.866   2
  -4  -4   2 126932. 3321.49   2
  -8   4  -2 120810. 3382.32   1
   4  -8  -2 124321. 3443.41   1
  -4  -4   2 130200. 3218.10   1
   4  -8  -2 118837. 3381.21   2
   4   4  -2 115840. 3150.58   1
  -4   8   2 127375. 3476.50   1
   8  -4   2 127221. 3403.69   1
   4  -8  -3 271.537 168.799   2
  -4  -4   3 381.020 299.349   2
   8  -4   3 140.290 207.239   1
   4  -8  -3 191.491 202.370   1
  -8   4  -3 233.507 280.131   1
  -4   8   3 533.498 290.450   1
  -4  -4   3-103.142 177.546   1
   4   4  -3-0.58322 175.217   1
  -4   8   4 346548. 6577.17   1
  -4  -4   4 360017. 6244.51   2
   4  -8  -4 351642. 6549.25   2
   8  -4   4 354923. 6501.71   1
  -8   4  -4 370470. 6642.04   1
   4  -8  -4 344111. 6538.67   1
  -4  -4   5 133.788 183.012   2
   4  -8  -5-57.4557 226.627   2
   4  -8  -5 65.6066 243.271   1
  -4   8   5 383.096 264.741   1
   8  -4   5 4.78983 221.677   1
  -8   4  -5 244.760 226.416   1
  -4   8   6 25531.0 1556.04   1
   4  -8  -6 26696.7 1551.21   2
   4  -8  -6 24897.7 1573.05   1
   8  -4   6 29721.0 1600.47   1
  -8   4  -6 28813.0 1616.31   1
   4  -8  -7 377.557 292.110   1
  -8   4  -7 222.057 245.543   1
  -4   8   7 531.804 352.037   1
   8  -4   7 267.375 284.015   1
   4  -8  -7 179.871 254.872   2
   4  -8  -8 424019. 7834.00   1
   4  -8  -8 445503. 7785.68   2
  -8   4  -8 447912. 7887.60   1
  -4   8   8 429901. 7771.44   1
   4  -8  -9-11.0813 241.163   1
   8  -4   9 244.573 187.626   1
  -4   8   9 404.443 290.074   1
  -8   4  -9 260.791 331.272   1
   4  -8  -9 383.070 322.846   2
   4  -8 -10 1249.13 344.523   1
   4  -8 -10 2255.03 519.153   2
   8  -4  10 2227.34 511.195   1
  -4   8  10 2316.23 496.040   1
  -8   4 -10 2204.25 484.951   1
   8  -4  11 196.073 317.304   1
   4  -8 -11-341.606 320.992   1
  -4   8  11 235.812 314.603   1
  -8   4 -11-284.592 269.954   1
   4  -8 -11-47.8196 261.905   2
   4  -8 -12 237357. 5727.18   1
  -4   8  12 248452. 5757.15   1
  -8   4 -12 254213. 5841.34   1
  -8   4 -13 65.0305 268.346   1
   4  -8 -13 109.376 249.707   1
  -4   8  13-80.1308 284.801   1
   8  -4  13 109.984 230.519   1
  -4   8  14 12618.0 1224.15   1
   8  -4  14 14084.7 1268.16   1
   4  -8 -14 12767.8 1257.35   1
  -8   4 -14 14640.9 1336.08   1
   4  -8 -15-631.142 428.258   1
  -8   4 -15 282.582 290.645   1
  -4   8  15 471.071 336.255   1
   8  -4  15-65.8119 291.097   1
   4  -8 -16 267517. 6431.24   1
  -4   8  16 273155. 6410.70   1
   4  -8 -17-257.768 368.162   1
  -4   8  17 839.724 524.037   1
  -3  -5 -17 17319.7 1527.30   2
  -3  -5 -16 9498.17 1130.14   1
  -5  -3 -16 10231.0 1137.95   1
  -5  -3 -16 9881.79 1082.73   2
   3   5  16 9637.83 1083.29   1
   5   3  16 9394.61 1091.22   1
  -3  -5 -16 8762.42 1100.76   2
  -5  -3 -15 176969. 4856.60   2
  -3  -5 -15 156584. 4653.84   1
  -5  -3 -15 162303. 4723.12   1
   3   5  15 164228. 4722.27   1
   5   3  15 169864. 4783.69   1
  -3  -5 -15 157910. 4695.03   2
  -5  -3 -14 100440. 3529.31   2
   5   3  14 95612.1 3454.57   1
  -3  -5 -14 94998.5 3479.71   2
  -3  -5 -14 96782.5 3502.80   1
  -5  -3 -14 101151. 3608.36   1
   3   5  14 104752. 3629.77   1
  -5  -3 -13 54513.7 2528.04   2
  -3  -5 -13 53981.3 2509.59   1
  -5  -3 -13 54870.2 2590.76   1
   5   3  13 51066.1 2465.70   1
   3   5  13 56806.4 2548.03   1
  -3  -5 -13 52234.7 2513.37   2
   3   5  12 2584.60 589.598   1
  -5  -3 -12 2461.28 556.052   2
  -3  -5 -12 2426.00 625.556   2
   5   3  12 2688.03 607.924   1
  -3  -5 -12 2306.95 540.158   1
  -5  -3 -12 3056.57 610.603   1
   5   3  11 1178.03 455.574   1
   3   5  11 1117.85 369.257   1
  -5  -3 -11 750.459 363.176   2
  -3  -5 -11 680.935 328.445   1
  -5  -3 -11 1294.79 421.763   1
   3  -8  11 942.074 423.210   2
  -3  -5 -11 1070.63 411.237   2
  -3  -5 -10 245872. 5697.68   1
  -5  -3 -10 243098. 5644.84   1
   3   5  10 257191. 5797.73   1
   8  -5 -10 243818. 5431.75   1
   5   3  10 249794. 5702.91   1
  -5  -3 -10 242622. 5601.02   2
  -3  -5 -10 249830. 5715.78   2
   3  -8  10 247456. 5658.37   2
  -8   5  10 257140. 5507.91   1
  -3  -5  -9 40744.1 2115.16   2
   5   3   9 39154.9 2083.39   1
  -5  -3  -9 43568.6 2151.01   2
  -5  -3  -9 40523.7 2120.73   1
   3   5   9 46062.0 2192.04   1
  -3  -5  -9 43879.0 2185.56   1
   8  -5  -9 39607.7 1984.11   1
   3  -8   9 46332.4 2162.59   2
  -8   5   9 48034.7 2137.90   1
   5  -8   9 43977.8 2147.31   2
  -5  -3  -8 86173.3 3003.88   2
   5  -8   8 83924.8 2750.73   1
  -3  -5  -8 83048.9 3036.11   1
  -5  -3  -8 85521.8 3051.97   1
   3   5   8 88131.8 3029.14   1
   5  -8   8 81926.8 3032.39   2
  -8   3   8 95742.4 2901.87   1
   8  -3  -8 85659.2 2806.23   1
  -8   5   8 90002.7 2928.63   1
   5   3   8 84135.8 3012.51   1
  -5   8  -8 88860.2 2912.17   1
   8  -5  -8 85001.0 2895.11   1
   3  -8   8 89811.2 3037.91   2
  -3  -5  -8 89531.1 3083.68   2
   8  -3  -7 189221. 4320.84   1
   5  -8   7 172481. 4474.25   2
  -5  -3  -7 168752. 4424.91   2
  -3  -5  -7 174358. 4486.04   1
  -5  -3  -7 180678. 4540.24   1
   5  -8   7 190238. 4298.04   1
   3   5   7 176697. 4488.37   1
   8  -5  -7 181745. 4407.11   1
   3  -8   7 183917. 4475.96   2
  -5   8  -7 175831. 4262.19   1
  -3  -5  -7 169305. 4396.99   2
  -8   3   7 180465. 4220.73   1
   5   3   7 186068. 4599.44   1
  -8   5   7 179131. 4293.57   1
  -3   8  -6 150424. 3669.62   1
   8  -3  -6 145692. 3738.47   1
  -5  -3  -6 138624. 3866.74   2
   3  -8   6 143180. 3573.73   1
  -3  -5  -6 141773. 3943.12   1
  -8   5   6 141450. 3787.60   1
  -5  -3  -6 149269. 4036.86   1
  -8   3   6 152332. 3785.16   1
   5  -8   6 157189. 4093.64   2
   3  -8   6 142923. 3887.27   2
   3   5   6 151320. 3996.91   1
   8  -5  -6 148478. 3872.61   1
  -3  -5  -6 152243. 4029.28   2
   5  -8   6 159392. 3862.91   1
  -5   8  -6 160834. 3918.81   1
   5   3   6 149231. 4042.64   1
  -5  -3  -5 224830. 4990.05   2
   5  -8   5 231520. 4852.37   1
   8  -3  -5 240637. 4927.95   1
  -5   8  -5 224894. 4830.17   1
  -3  -5  -5 222701. 5005.94   1
  -5  -3  -5 224900. 5036.56   1
   8  -5  -5 221100. 4882.70   1
  -3   8  -5 233751. 4774.68   1
   3   5   5 222293. 5008.49   1
   5  -8   5 217093. 4966.29   2
   3  -8   5 213015. 4884.79   2
  -8   3   5 246818. 4959.35   1
  -8   5   5 222132. 4880.99   1
   5   3   5 220298. 5012.51   1
   3  -8   5 225099. 4670.46   1
  -3  -5  -5 217898. 4975.67   2
  -5   8  -4 10710.0 951.015   1
   3  -8   4 11841.8 1031.22   2
  -5  -3  -4 12502.1 1074.04   2
   8  -3  -4 11271.2 943.214   1
  -3   8  -4 11429.4 933.577   1
   3  -8   4 12622.6 977.271   1
  -8   3   4 13226.4 1003.94   1
  -3  -5  -4 12250.2 1024.53   1
  -5  -3  -4 12260.6 1029.63   1
   8  -5  -4 10258.0 930.460   1
   5  -8   4 10772.5 931.638   1
   3   5   4 11503.2 1028.66   1
   5  -8   4 10128.5 975.458   2
   5   3   4 11287.5 987.034   1
  -8   5   4 10575.3 948.543   1
  -3  -5  -4 11705.5 1040.88   2
   8  -3  -3 69647.4 2393.54   1
  -5  -3  -3 62645.2 2356.69   2
  -3   8  -3 67936.8 2364.63   1
   3  -8   3 66820.2 2312.10   1
  -5   8  -3 66358.4 2373.08   1
  -3  -5  -3 65125.3 2412.89   1
  -5  -3  -3 61762.7 2377.77   1
   8  -5  -3 62097.4 2351.69   1
   5  -8   3 63533.5 2332.25   1
   3   5   3 62727.4 2381.45   1
   5   3   3 65723.7 2439.39   1
   5  -8   3 64781.1 2425.60   2
  -8   5   3 63266.4 2355.78   1
   3  -8   3 65017.1 2429.47   2
  -3  -5  -3 61494.2 2407.74   2
   3  -8   2 543374. 8580.00   1
  -5  -3  -1 13879.5 1069.43   2
  -3  -5  -1 13815.7 1081.45   2
   3  -8   1 14667.8 1093.43   1
  -3   8  -1 13882.0 1072.79   1
  -8   5   1 14374.7 1107.66   1
   5  -8   1 11890.8 1012.17   1
   8  -5  -1 11416.3 977.490   1
  -3  -5  -1 13214.8 1033.51   1
   5   3   1 12828.6 1025.59   1
  -5   8  -1 12652.8 1023.66   1
  -5  -3  -1 14350.6 1094.34   1
   5  -8   1 13347.0 1051.50   2
   3   5   1 13510.3 1057.39   1
  -8   3   1 13768.2 1028.63   1
   3  -8   1 14484.4 1109.79   2
   8  -3  -1 12404.5 1003.21   1
  -5  -3   0 6122.32 705.349   2
  -3  -5   0 5666.00 646.581   2
  -8   5   0 5326.88 674.221   1
  -3   8   0 5540.78 694.589   1
  -5   8   0 4092.67 594.887   1
  -3  -5   0 5366.82 664.974   1
   8  -5   0 4671.45 662.457   1
   5   3   0 4452.18 605.450   1
   8  -3   0 5113.95 650.855   1
  -5  -3   0 5163.15 610.936   1
   3   5   0 4392.54 609.808   1
   3  -8   0 6230.72 707.469   2
   5  -8   0 4702.89 671.740   2
  -8   3   0 5366.21 696.527   1
   3  -8   0 5271.26 657.534   1
   5  -8   0 5266.63 709.072   1
  -5   8   1 197052. 4529.49   1
   5  -8  -1 206025. 4589.97   1
   8  -5   1 211697. 4604.88   1
   3  -8  -1 210914. 4608.85   1
  -3   8   1 203154. 4591.97   1
  -3  -5   1 211032. 4404.25   1
  -8   5  -1 207048. 4560.35   1
  -5  -3   1 214088. 4465.00   1
  -3  -5   1 198431. 4459.62   2
   3   5  -1 208460. 4458.77   1
  -8   3  -1 187052. 4383.82   1
   8  -3   1 186695. 4396.87   1
   3  -8  -1 208666. 4636.70   2
   5  -8  -1 200973. 4567.30   2
   5   3  -1 196943. 4400.22   1
  -5  -3   1 211997. 4514.14   2
   8  -5   2 167074. 4073.74   1
  -5   8   2 167779. 4145.09   1
   5  -8  -2 175209. 4246.76   1
   3  -8  -2 164883. 4134.30   1
  -3   8   2 159542. 4037.53   1
  -3  -5   2 182874. 3949.47   1
  -5  -3   2 179316. 3974.97   1
   3   5  -2 177322. 3950.39   1
  -8   5  -2 176618. 4161.53   1
   5  -8  -2 172609. 4174.01   2
  -8   3  -2 169422. 4098.64   1
   8  -3   2 172151. 4127.88   1
   3  -8  -2 162539. 4092.87   2
  -3  -5   2 173338. 4039.53   2
   5   3  -2 173939. 3962.34   1
  -5  -3   2 183624. 4076.25   2
   8  -5   3 193461. 4415.12   1
  -5   8   3 189465. 4437.57   1
   5  -8  -3 182938. 4416.38   1
   3  -8  -3 189150. 4422.31   2
  -3   8   3 179812. 4335.09   1
  -8   5  -3 190829. 4423.85   1
  -3  -5   3 194506. 4048.83   1
  -5  -3   3 185618. 4058.10   1
   3   5  -3 193410. 4102.72   1
   8  -3   3 191777. 4381.95   1
  -8   3  -3 196844. 4463.16   1
   3  -8  -3 187888. 4435.64   1
   5  -8  -3 173002. 4294.54   2
  -3  -5   3 194647. 4281.33   2
   5   3  -3 198096. 4160.65   1
  -5  -3   3 186675. 4166.03   2
  -8   5  -4 61517.9 2412.04   1
  -5   8   4 62817.7 2425.33   1
   5  -8  -4 62543.9 2455.02   1
   3  -8  -4 64421.2 2483.02   1
  -3   8   4 67328.2 2463.05   1
   3  -8  -4 67314.5 2462.76   2
  -5  -3   4 66377.8 2282.73   2
   8  -3   4 67149.1 2422.48   1
  -8   3  -4 63069.0 2390.81   1
  -3  -5   4 69839.1 2387.20   2
   5  -8  -4 64605.7 2414.47   2
   5   3  -4 68911.4 2226.88   1
   8  -5   4 62764.6 2339.10   1
   8  -5   5 2989.69 537.075   1
   5  -8  -5 3230.69 599.193   1
   3  -8  -5 3195.78 576.012   1
   3  -8  -5 3588.79 606.807   2
  -5   8   5 3639.79 588.406   1
   8  -3   5 4362.31 660.377   1
  -3   8   5 4361.63 639.564   1
  -8   3  -5 3513.60 545.510   1
   5  -8  -5 2452.33 484.179   2
  -3  -5   5 3732.07 611.441   2
  -8   5  -5 2890.96 481.159   1
  -8   5  -6 379089. 6856.63   1
   8  -5   6 347947. 6579.73   1
   5  -8  -6 350833. 6816.38   1
   3  -8  -6 364406. 6902.06   1
  -5   8   6 355109. 6785.61   1
   8  -3   6 361573. 6713.33   1
  -8   3  -6 353619. 6757.21   1
  -3   8   6 367302. 6908.96   1
  -3  -5   6 383639. 6565.07   2
   3  -8  -6 370169. 6835.01   2
   5  -8  -6 368983. 6791.20   2
   5  -8  -7 97677.5 3193.14   1
  -5   8   7 98993.8 3184.07   1
   3  -8  -7 97214.0 3162.14   1
  -3   8   7 105559. 3271.29   1
  -8   5  -7 98049.6 3145.99   1
   8  -3   7 98005.1 3127.79   1
  -8   3  -7 100037. 3184.61   1
   8  -5   7 96727.2 3080.20   1
   5  -8  -7 103415. 3147.68   2
   3  -8  -7 95195.2 3130.70   2
   3  -8  -8 41562.0 1998.46   2
   5  -8  -8 34894.6 1890.82   1
  -5   8   8 35570.5 1878.89   1
   3  -8  -8 39734.1 1996.29   1
  -3   8   8 41596.2 2030.38   1
   8  -3   8 38391.1 1883.11   1
  -8   3  -8 39102.5 1945.22   1
   8  -5   8 31367.2 1712.79   1
  -8   5  -8 35433.9 1860.96   1
   5  -8  -8 36544.7 1839.72   2
   5  -8  -9 266346. 5874.72   1
   3  -8  -9 278453. 5975.27   1
  -3   8   9 283952. 5998.00   1
   8  -3   9 261865. 5684.58   1
   8  -5   9 279115. 5807.69   1
  -8   3  -9 272308. 5830.58   1
  -8   5  -9 273748. 5849.52   1
   5  -8  -9 291903. 5864.24   2
   3  -8  -9 268485. 5830.07   2
  -5   8   9 256809. 5742.93   1
  -5   8  10 152964. 4222.94   1
   3  -8 -10 142270. 4115.86   1
  -3   8  10 142555. 4114.05   1
   8  -3  10 148692. 4147.31   1
   8  -5  10 162532. 4235.04   1
  -8   3 -10 146076. 4143.42   1
  -8   5 -10 155009. 4274.58   1
   5  -8 -10 155765. 4272.69   1
   3  -8 -10 156823. 4255.14   2
  -5   8  11 20575.1 1486.61   1
   5  -8 -11 19484.2 1464.69   1
   3  -8 -11 19571.5 1464.80   1
   8  -3  11 21004.9 1491.65   1
  -3   8  11 19968.2 1443.37   1
   3  -8 -11 22671.1 1540.85   2
   8  -5  11 17733.2 1345.44   1
  -8   3 -11 19964.4 1478.97   1
  -8   5 -11 17960.8 1401.01   1
   8  -5  12 2420.48 559.923   1
   5  -8 -12 2512.21 588.229   1
   3  -8 -12 1879.40 552.671   1
  -5   8  12 2976.85 626.551   1
  -8   3 -12 1713.41 409.746   1
  -3   8  12 2346.80 540.548   1
  -8   5 -12 2154.22 491.977   1
   3  -8 -12 2293.99 578.165   2
   8  -3  12 2287.90 498.600   1
   8  -5  13 2220.57 510.965   1
   5  -8 -13 3699.03 639.381   1
   3  -8 -13 2182.94 505.615   1
  -5   8  13 2447.39 555.983   1
  -3   8  13 3063.97 608.004   1
  -8   3 -13 2645.86 573.247   1
  -8   5 -13 2097.13 497.241   1
   8  -3  13 3157.24 611.754   1
   8  -3  14 145349. 4322.57   1
  -5   8  14 152866. 4440.33   1
   3  -8 -14 146194. 4354.75   1
   5  -8 -14 152163. 4527.50   1
   8  -5  14 144785. 4396.70   1
  -3   8  14 148925. 4371.40   1
  -8   3 -14 150519. 4485.96   1
  -8   5 -14 150672. 4495.80   1
   8  -3  15 84582.9 3307.79   1
   5  -8 -15 76461.4 3197.49   1
  -5   8  15 81065.1 3263.09   1
   3  -8 -15 94863.9 3497.17   1
  -3   8  15 98140.9 3490.87   1
  -8   3 -15 89005.5 3405.20   1
   8  -3  16 66579.7 2993.20   1
   5  -8 -16 61640.2 2888.11   1
  -5   8  16 62879.9 2911.18   1
   3  -8 -16 65197.9 2944.58   1
  -3   8  16 71535.6 3037.04   1
  -8   3 -16 68097.6 3026.79   1
   3  -8 -17 67993.4 3068.97   1
  -3   8  17 76979.1 3215.96   1
  -2  -6 -17 72972.2 3228.92   2
   6   2  16 3803.57 724.852   1
  -2  -6 -16 3756.71 761.994   2
  -6  -2 -16 3599.29 668.209   2
  -2  -6 -16 3527.46 680.861   1
  -6  -2 -16 3616.36 742.690   1
   2   6  16 2976.55 628.354   1
  -6  -2 -15 67334.4 2883.76   2
  -2  -6 -15 69222.9 2973.20   1
  -2  -6 -15 63679.3 2890.72   2
  -6  -2 -15 66698.8 2955.11   1
   2   6  15 62842.9 2821.13   1
   6   2  15 68148.1 2936.59   1
  -6  -2 -14 54691.1 2522.22   2
   6   2  14 51597.0 2531.39   1
  -2  -6 -14 56386.8 2605.95   1
  -6  -2 -14 46761.2 2443.99   1
   2   6  14 53160.8 2524.48   1
  -2  -6 -14 52006.3 2536.59   2
  -6  -2 -13 58042.1 2528.37   2
  -2  -6 -13 49143.6 2440.02   1
  -6  -2 -13 50771.2 2505.73   1
   2   6  13 56970.2 2556.99   1
   6   2  13 50444.1 2456.53   1
  -2  -6 -13 50546.9 2479.70   2
  -6  -2 -12 17030.4 1397.91   2
   8  -6 -12 19285.5 1452.86   1
  -2  -6 -12 17297.3 1455.76   1
  -6  -2 -12 17585.8 1421.81   1
   2   6  12 19128.0 1455.62   1
   2  -8  12 19246.9 1499.89   2
   6   2  12 17255.6 1400.40   1
  -2  -6 -12 18098.8 1431.68   2
  -6  -2 -11 11302.5 1112.70   2
   8  -6 -11 12297.7 1112.77   1
  -2  -6 -11 12995.0 1184.26   1
   2  -8  11 11621.3 1152.21   2
  -6  -2 -11 12371.3 1159.17   1
   2   6  11 11926.8 1156.77   1
  -8   6  11 14089.2 1221.73   1
   6   2  11 11765.4 1134.78   1
  -2  -6 -11 11217.0 1121.91   2
  -6  -2 -10 169929. 4545.01   2
   8  -6 -10 171882. 4509.39   1
   2  -8  10 170266. 4544.45   2
  -2  -6 -10 172473. 4608.91   1
  -6  -2 -10 179383. 4693.10   1
   6   2  10 163965. 4480.22   1
   2   6  10 164187. 4539.09   1
  -2  -6 -10 164338. 4476.26   2
  -8   6  10 165858. 4436.90   1
   2   6   9 4899.47 771.452   1
  -6   8  -9 4806.62 668.189   1
  -2  -6  -9 4147.90 697.831   2
  -6  -2  -9 4250.08 670.065   2
  -8   6   9 3506.15 586.267   1
   6  -8   9 3296.38 574.651   1
   2  -8   9 4313.59 704.496   2
   6   2   9 4011.42 658.976   1
  -2  -6  -9 5149.00 755.456   1
  -6  -2  -9 3625.75 661.645   1
   8  -6  -9 3132.85 578.486   1
  -6  -2  -8 150780. 4156.81   2
   8  -6  -8 157749. 4174.61   1
   2  -8   8 163187. 4225.69   2
   6  -8   8 163525. 4106.75   1
  -2  -6  -8 152046. 4238.33   1
  -6  -2  -8 148403. 4194.72   1
   2   6   8 157642. 4274.42   1
  -8   6   8 149233. 4038.53   1
  -6   8  -8 165638. 4191.06   1
   6   2   8 154308. 4206.24   1
  -2  -6  -8 155876. 4239.63   2
   8  -6  -7 83180.7 2911.34   1
   8  -2  -7 85845.8 2749.78   1
  -2  -6  -7 80253.3 2893.97   1
   6   2   7 75898.2 2855.94   1
   6  -8   7 89855.0 2886.56   1
  -6  -2  -7 80480.3 2893.38   1
   2   6   7 74241.9 2826.51   1
  -6   8  -7 80923.9 2815.27   1
   6  -8   7 83462.4 2942.20   2
   2  -8   7 84603.2 2920.75   2
  -6  -2  -7 86804.3 3002.57   2
  -2  -6  -7 82787.6 2938.99   2
  -8   6   7 83729.6 2882.90   1
   8  -6  -6 459602. 8210.99   1
  -6  -2  -6 520822. 8579.69   2
  -6   8  -6 486071. 8267.81   1
  -2  -6  -6 481268. 8464.53   1
   6  -8   6 519043. 8673.72   2
   2  -8   6 494239. 8412.46   2
   2   6   6 501940. 8543.97   1
  -2  -6  -6 511244. 8609.80   2
  -6  -2  -6 522158. 8640.74   1
  -8   6   6 483470. 8270.44   1
   6   2   5 239817. 5367.36   1
  -2   8  -5 255009. 5033.99   1
  -8   2   5 251272. 5147.20   1
  -2  -6  -5 254692. 5445.90   1
  -6   8  -5 252080. 5302.81   1
  -6  -2  -5 258601. 5477.04   1
   2   6   5 253921. 5486.75   1
   6  -8   5 259532. 5292.66   1
   6  -8   5 249538. 5491.40   2
   8  -2  -5 243705. 5085.33   1
   2  -8   5 239493. 5266.03   2
  -6  -2  -5 243251. 5340.87   2
   8  -6  -5 259617. 5376.12   1
  -2  -6  -5 250048. 5400.43   2
  -8   6   5 264750. 5463.58   1
   2   6   4 2973.02 564.407   1
  -2  -6  -4 3372.91 572.156   2
  -6  -2  -4 3729.38 592.125   2
   8  -2  -4 2924.72 482.710   1
  -8   6   4 2450.96 495.941   1
  -6   8  -4 2639.44 510.182   1
   2  -8   4 3738.63 544.208   1
   6  -8   4 2411.55 491.343   1
   2  -8   4 3716.51 614.295   2
   6  -8   4 2676.09 510.849   2
  -8   2   4 4106.67 577.672   1
  -2   8  -4 3959.69 539.843   1
  -2  -6  -4 3924.51 644.335   1
   6   2   4 3440.67 573.442   1
  -6  -2  -4 3359.33 565.575   1
   8  -6  -4 2648.34 525.888   1
   6   2   3 269621. 5678.35   1
  -6  -2  -3 295706. 5761.94   2
   2  -8   3 289525. 5537.47   1
  -2   8  -3 288613. 5531.13   1
   6  -8   3 286491. 5648.94   1
  -2  -6  -3 284380. 5682.84   1
   8  -2  -3 274575. 5495.41   1
   8  -6  -3 279269. 5659.20   1
  -6  -2  -3 262427. 5548.38   1
   2  -8   3 271204. 5656.44   2
   2   6   3 291200. 5813.87   1
  -8   6   3 278494. 5648.74   1
   6  -8   3 290240. 5826.79   2
  -8   2   3 307807. 5674.77   1
  -2  -6  -3 292266. 5845.22   2
  -6   8  -3 284093. 5710.32   1
  -6   8  -2 58347.3 2305.17   1
  -6  -2  -2 62218.7 2345.64   2
   6   2   2 62341.9 2383.32   1
   2  -8   2 62399.4 2254.46   1
  -2   8  -2 63812.7 2332.97   1
   6  -8   2 57106.7 2266.50   1
  -2  -6  -2 61538.9 2337.93   1
  -6  -2  -2 60202.4 2310.56   1
   2   6   2 60159.8 2356.82   1
   2  -8   2 60670.0 2333.51   2
   8  -6  -2 52260.2 2173.88   1
  -8   2   2 62919.1 2297.29   1
   8  -2  -2 60984.5 2290.38   1
   6  -8   2 57782.2 2355.61   2
  -8   6   2 57059.6 2271.73   1
  -2  -6  -2 61607.5 2371.33   2
  -6   8  -1 122552. 3472.66   1
  -6  -2  -1 135742. 3540.82   2
   6   2   1 133150. 3564.27   1
   2  -8   1 129399. 3431.76   1
  -2   8  -1 126793. 3434.05   1
  -2  -6  -1 131363. 3507.29   1
  -6  -2  -1 134963. 3547.91   1
   6  -8   1 121309. 3431.03   1
   8  -6  -1 124431. 3458.13   1
   2   6   1 125735. 3458.11   1
  -8   6   1 131683. 3582.47   1
   8  -2  -1 122746. 3369.53   1
  -8   2   1 128799. 3451.56   1
   2  -8   1 121678. 3504.81   2
  -2  -6  -1 124939. 3480.83   2
   6  -8   1 126916. 3542.12   2
  -6  -2   0 9079.11 852.894   2
  -6   8   0 9122.86 885.738   1
   6   2   0 8294.15 825.891   1
   2  -8   0 7787.95 851.185   2
  -2  -6   0 8363.74 823.166   2
   2  -8   0 9180.70 884.694   1
  -2   8   0 7180.51 789.232   1
  -2  -6   0 8157.96 827.987   1
   8  -6   0 8559.35 844.822   1
  -6  -2   0 8956.61 845.804   1
   2   6   0 8406.03 844.585   1
   8  -2   0 8099.75 814.636   1
  -8   2   0 7867.82 794.695   1
   6  -8   0 8127.56 856.476   1
   6  -8   0 8539.04 871.941   2
  -8   6   0 8400.20 857.828   1
  -2  -6   1 1524.84 409.599   2
  -6  -2   1 328.020 203.066   2
  -8   6  -1 886.748 366.456   1
   2   6  -1 617.769 289.365   1
  -6   8   1 573.655 247.535   1
   2  -8  -1 310.790 211.021   1
  -2  -6   1 987.562 335.365   1
   8  -2   1 811.793 292.893   1
   8  -6   1 663.831 347.897   1
  -2   8   1 805.741 327.732   1
   6   2  -1 273.629 181.494   1
  -6  -2   1 708.178 263.660   1
   2  -8  -1 832.000 332.136   2
   6  -8  -1 375.304 249.794   1
   6  -8  -1 381.861 253.560   2
  -8   2  -1 817.940 305.885   1
  -6   8   2 305329. 6014.06   1
   2  -8  -2 303669. 5888.97   1
  -6  -2   2 322052. 5803.22   2
   8  -6   2 309973. 5959.04   1
  -2  -6   2 313099. 5699.68   1
  -2   8   2 308838. 6003.34   1
   6  -8  -2 303284. 5960.45   1
   2   6  -2 305821. 5701.12   1
  -6  -2   2 326593. 5778.03   1
   8  -2   2 286255. 5775.27   1
  -8   2  -2 295914. 5876.60   1
   6   2  -2 294321. 5641.03   1
  -8   6  -2 307054. 5999.76   1
   2  -8  -2 298585. 5915.18   2
  -2  -6   2 303114. 5812.52   2
   6  -8  -2 291727. 5862.15   2
  -2  -6   3 936.469 336.209   2
  -8   6  -3 392.665 234.308   1
  -6  -2   3 419.664 208.572   2
   6  -8  -3 261.364 267.187   1
   8  -6   3 692.938 298.044   1
  -6   8   3 387.247 285.049   1
   2  -8  -3 1005.16 397.557   1
  -2  -6   3 730.115 302.625   1
   8  -2   3 200.251 190.678   1
  -2   8   3 565.327 278.618   1
   6   2  -3 302.009 159.760   1
  -6  -2   3 290.781 162.410   1
   2   6  -3 678.387 296.286   1
   6  -8  -3 562.878 268.516   2
  -8   2  -3 299.883 175.074   1
   2  -8  -3 1057.90 364.130   2
  -8   6  -4 294109. 5878.68   1
  -6   8   4 309284. 6007.74   1
   8  -6   4 308867. 5950.58   1
   6  -8  -4 297003. 5987.25   1
   2  -8  -4 291988. 5931.61   1
   2  -8  -4 296338. 5963.12   2
  -2   8   4 293227. 5960.81   1
   8  -2   4 298218. 5904.22   1
  -8   2  -4 293022. 5895.32   1
   6  -8  -4 311768. 5958.32   2
  -2  -6   4 310411. 5860.03   2
   8  -6   5 141343. 3730.75   1
  -6   8   5 137767. 3805.72   1
   6  -8  -5 131021. 3751.80   1
   2  -8  -5 140368. 3833.54   1
  -2   8   5 140871. 3850.07   1
   8  -2   5 127596. 3646.05   1
   6  -8  -5 143702. 3784.90   2
  -8   2  -5 143237. 3815.46   1
  -2  -6   5 139564. 3646.82   2
   2  -8  -5 135223. 3774.18   2
  -8   6  -5 140310. 3790.00   1
   6  -8  -6 438705. 7610.32   2
  -6   8   6 461494. 7869.75   1
   6  -8  -6 413439. 7692.32   1
   2  -8  -6 449140. 7841.84   1
  -2   8   6 429810. 7787.50   1
   8  -6   6 425408. 7519.56   1
   8  -2   6 417576. 7576.61   1
  -2  -6   6 466606. 7670.70   2
   2  -8  -6 418488. 7668.12   2
  -6   8   7 221436. 5067.85   1
   6  -8  -7 195625. 4935.73   1
   2  -8  -7 210459. 4968.68   1
   2  -8  -7 207543. 4922.73   2
  -2   8   7 212973. 5015.80   1
   8  -2   7 218288. 4966.05   1
  -8   2  -7 202260. 4841.66   1
  -8   6  -7 221986. 5029.08   1
   6  -8  -7 220110. 4929.88   2
  -2  -6   7 207146. 4784.48   2
   8  -6   7 223087. 4919.02   1
   6  -8  -8 7621.90 901.633   1
   2  -8  -8 10217.4 1026.85   1
   8  -2   8 9746.99 941.196   1
  -6   8   8 8577.89 920.880   1
  -2   8   8 9039.76 957.090   1
  -8   6  -8 7973.83 877.057   1
  -8   2  -8 9424.15 996.620   1
   8  -6   8 8293.12 896.051   1
   6  -8  -8 8126.63 884.985   2
   2  -8  -8 9171.24 945.733   2
   6  -8  -9 123978. 3808.38   1
   8  -2   9 118314. 3653.10   1
  -2   8   9 117715. 3695.21   1
   2  -8  -9 120434. 3666.66   2
   2  -8  -9 125580. 3797.53   1
  -8   2  -9 125914. 3773.66   1
  -6   8   9 124401. 3733.41   1
   8  -6   9 135438. 3771.21   1
  -8   6  -9 121102. 3701.24   1
  -6   8  10 64628.2 2640.47   1
   6  -8 -10 65930.3 2744.81   1
   8  -2  10 65622.0 2646.89   1
   2  -8 -10 65491.4 2713.52   1
  -2   8  10 62086.4 2638.40   1
  -8   2 -10 68304.9 2742.28   1
   8  -6  10 68179.3 2640.94   1
  -8   6 -10 64808.9 2657.89   1
   2  -8 -10 63763.5 2653.66   2
  -6   8  11 89362.9 3240.98   1
   8  -2  11 93254.1 3254.59   1
   6  -8 -11 93002.5 3316.08   1
   2  -8 -11 86184.8 3220.42   1
  -2   8  11 89372.4 3211.47   1
   8  -6  11 95745.3 3260.48   1
  -8   2 -11 99093.0 3349.84   1
  -8   6 -11 95684.9 3301.47   1
   2  -8 -11 94918.3 3294.68   2
   8  -2  12 9802.79 1019.34   1
  -6   8  12 11595.6 1158.44   1
   2  -8 -12 10425.4 1062.43   1
   2  -8 -12 10899.5 1105.93   2
  -2   8  12 10319.9 1098.72   1
   8  -6  12 9902.28 1018.73   1
  -8   2 -12 9611.05 1070.45   1
  -8   6 -12 10632.2 1096.26   1
   6  -8 -12 10716.2 1126.36   1
   8  -2  13 21299.9 1584.44   1
  -6   8  13 25021.3 1678.44   1
   6  -8 -13 25811.7 1749.78   1
   2  -8 -13 25301.3 1750.35   1
   2  -8 -13 23752.9 1661.73   2
  -2   8  13 25326.1 1705.20   1
   8  -6  13 25196.3 1711.37   1
  -8   2 -13 24939.0 1713.93   1
  -8   6 -13 24597.9 1703.18   1
   8  -2  14 128426. 4086.30   1
  -6   8  14 119471. 3951.07   1
   6  -8 -14 119185. 3981.17   1
  -2   8  14 127047. 3999.24   1
   2  -8 -14 121967. 4002.99   1
  -8   2 -14 127509. 4051.17   1
   6  -8 -15 947.792 386.896   1
   2  -8 -15 1233.73 414.675   1
  -6   8  15 993.935 425.857   1
   8  -2  15 1122.25 488.300   1
  -2   8  15 1101.53 426.521   1
  -8   2 -15 1405.25 475.809   1
   2  -8 -16 60592.5 2830.25   1
  -2   8  16 67808.7 2973.59   1
  -8   2 -16 65037.0 2940.85   1
   8  -2  16 60132.8 2863.11   1
  -8   2 -17 12833.1 1389.02   1
  -1  -7 -16 197487. 5519.85   2
  -7  -1 -15 4763.82 747.266   2
  -1  -7 -15 3623.26 730.897   2
   7   1  15 3773.72 711.216   1
  -1  -7 -15 4803.48 771.726   1
  -7  -1 -15 4991.84 814.126   1
   1   7  15 4175.38 749.385   1
  -7  -1 -14 9242.37 1044.81   2
  -1  -7 -14 8571.77 1024.65   1
   1   7  14 8494.11 1012.14   1
  -7  -1 -14 7827.80 955.640   1
  -1  -7 -14 7598.21 988.863   2
   7   1  14 7664.72 1005.13   1
  -1  -7 -13 567.009 345.671   2
  -7  -1 -13-69.9366 296.585   2
   7   1  13-313.854 296.995   1
  -1  -7 -13 335.130 364.734   1
   8  -7 -13 228.403 256.193   1
  -7  -1 -13 205.321 302.359   1
   1   7  13 776.063 375.686   1
  -7  -1 -12 139914. 4157.68   2
  -1  -7 -12 134087. 4133.75   1
  -7  -1 -12 133362. 4124.98   1
   1   7  12 137056. 4102.81   1
   8  -7 -12 135961. 4117.89   1
  -8   7  12 124190. 3977.59   1
   7   1  12 126921. 4002.39   1
  -1  -7 -12 131090. 4093.86   2
  -7  -1 -11 94.2197 267.982   2
  -8   7  11-409.596 344.560   1
  -1  -7 -11 159.141 299.661   1
   7   1  11-99.1537 283.683   1
   8  -7 -11-231.788 271.895   1
  -7  -1 -11 236.180 299.354   1
   1   7  11 679.690 296.431   1
  -1  -7 -11 448.340 343.594   2
  -8   7  10 12116.0 1152.71   1
   1  -8  10 10767.5 1084.69   2
   7   1  10 9984.41 1043.63   1
  -7  -1 -10 11214.8 1128.79   2
  -1  -7 -10 10809.4 1105.23   1
   8  -7 -10 11240.5 1092.78   1
  -7  -1 -10 11814.2 1150.47   1
   1   7  10 12114.2 1143.32   1
   7  -8  10 9947.37 995.104   1
  -7   8 -10 10925.1 1097.24   1
  -1  -7 -10 10259.0 1100.25   2
  -7   8  -9 4070.26 665.937   1
  -1  -7  -9 3960.12 691.377   2
   1   7   9 4903.62 725.264   1
  -7  -1  -9 4381.37 721.784   2
  -8   7   9 4249.31 699.929   1
  -1  -7  -9 4752.15 763.946   1
   7  -8   9 4480.28 654.871   1
   8  -7  -9 3858.66 639.528   1
   7   1   9 4422.54 693.311   1
  -7  -1  -9 4913.40 765.359   1
   1  -8   9 4141.68 703.729   2
  -8   7   8 417288. 7779.53   1
   7   1   8 425766. 7883.86   1
  -7  -1  -8 431716. 7971.51   2
   7  -8   8 434275. 7698.74   1
  -7   8  -8 444500. 7852.28   1
  -1  -7  -8 415058. 7834.54   1
   8  -7  -8 415086. 7782.12   1
   1   7   8 419864. 7867.56   1
  -7  -1  -8 419233. 7823.85   1
   1  -8   8 431622. 7857.66   2
  -1  -7  -8 426961. 7903.77   2
  -8   7   7 7376.16 836.323   1
  -1  -7  -7 5376.19 750.282   2
  -7  -1  -7 5594.32 772.845   2
   8  -7  -7 5405.19 749.619   1
   7  -8   7 7120.75 800.995   1
  -1  -7  -7 4530.39 694.800   1
   7   1   7 4786.94 701.216   1
  -7  -1  -7 5432.44 779.981   1
  -7   8  -7 7811.46 867.433   1
   1  -8   7 6528.24 794.985   2
   1   7   7 4977.05 739.295   1
  -8   7   6 51644.8 2261.03   1
  -7  -1  -6 49491.4 2267.41   2
   7   1   6 53567.3 2323.75   1
   8  -7  -6 56804.6 2385.84   1
  -1  -7  -6 52483.1 2362.80   1
   7  -8   6 57285.3 2327.53   1
   1   7   6 53937.7 2355.72   1
  -7  -1  -6 52046.8 2279.04   1
  -1  -7  -6 51017.2 2289.53   2
   1  -8   6 52742.9 2284.90   2
  -7   8  -6 55385.3 2338.41   1
  -8   1   5 2683.71 497.157   1
  -1  -7  -5 3035.21 561.469   2
  -7  -1  -5 1818.40 453.150   2
  -7   8  -5 2916.53 545.151   1
   8  -7  -5 2529.89 523.570   1
  -8   7   5 3288.46 552.655   1
  -7  -1  -5 2434.42 500.891   1
   7  -8   5 3541.95 607.756   1
  -1  -7  -5 1944.54 450.284   1
   8  -1  -5 2566.34 457.425   1
   7   1   5 2498.41 563.200   1
   1  -8   5 1721.77 459.860   2
   1   7   5 3051.36 572.869   1
  -1  -7  -4 612697. 9883.47   1
   7  -8   4 600949. 9560.01   1
  -8   7   4 594580. 9654.44   1
  -7  -1  -3 14300.5 1114.34   2
   7   1   3 11747.5 1029.33   1
   1  -8   3 13393.4 1033.81   1
  -1   8  -3 11180.5 959.302   1
  -1  -7  -3 11792.0 1018.61   1
   1   7   3 12404.8 1068.83   1
   8  -1  -3 13836.9 1051.67   1
  -7  -1  -3 13290.4 1079.21   1
   8  -7  -3 8670.64 906.467   1
  -8   1   3 12715.8 1029.32   1
   7  -8   3 9967.00 998.174   2
   7  -8   3 10584.4 955.007   1
  -1  -7  -3 12098.0 1071.90   2
  -7   8  -3 9402.10 935.159   1
  -8   7   3 9586.62 928.907   1
   1  -8   3 12731.6 1091.23   2
  -7  -1  -2 336466. 6327.72   2
   7   1   2 332258. 6359.93   1
   1  -8   2 339991. 6230.20   1
   1  -8   2 325694. 6317.73   2
  -1   8  -2 332229. 6162.35   1
  -1  -7  -2 347846. 6440.57   1
   1   7   2 334501. 6392.95   1
   8  -1  -2 305199. 6071.03   1
   7  -8   2 339369. 6555.84   2
  -7  -1  -2 340312. 6371.89   1
  -8   1   2 323895. 6176.58   1
   8  -7  -2 317936. 6297.62   1
  -1  -7  -2 349292. 6517.05   2
  -8   7   2 330462. 6418.71   1
   7  -8   2 340287. 6378.76   1
  -7   8  -2 329458. 6407.35   1
  -1  -7  -1 1843.71 462.594   2
  -8   1   1 2147.69 400.714   2
   8  -7  -1 965.908 310.647   1
  -7  -1  -1 2380.42 491.665   2
  -8   7   1 1376.35 362.890   1
  -7   8  -1 1061.50 357.576   1
  -8   1   1 2225.21 452.801   1
   1  -8   1 2187.34 469.674   1
   8  -1  -1 2298.27 498.599   1
  -1  -7  -1 2092.73 447.943   1
   7  -8   1 1488.80 410.826   1
  -1   8  -1 2482.82 512.755   1
   7  -8   1 1260.44 429.656   2
  -7  -1  -1 1506.89 365.419   1
   1   7   1 2347.91 476.210   1
   7   1   1 2497.47 475.777   1
   1  -8   1 1647.88 391.682   2
  -7   8   0 142804. 3833.73   1
  -8   1   0 137621. 3632.92   2
   7  -8   0 150935. 3973.56   2
   7   1   0 136545. 3680.39   1
   1  -8   0 145311. 3778.19   1
   7  -8   0 142557. 3832.52   1
  -1  -7   0 155685. 3900.00   1
  -1   8   0 140762. 3772.90   1
   1   7   0 147828. 3821.22   1
   8  -1   0 145838. 3813.97   1
  -7  -1   0 150066. 3840.95   1
  -8   7   0 145132. 3866.21   1
  -8   1   0 154922. 3864.37   1
   8  -7   0 145315. 3827.62   1
   1  -8   0 137779. 3773.33   2
  -1  -7   0 143823. 3823.37   2
  -7  -1   0 157041. 3811.20   2
  -1  -7   1 1211.19 329.407   2
  -7  -1   1 1607.64 380.020   2
  -8   1  -1 1584.55 378.129   2
  -8   7  -1 1999.01 411.737   1
  -7  -1   1 1917.40 443.418   1
  -7   8   1 1526.68 413.496   1
   8  -1   1 1863.78 446.884   1
   7  -8  -1 1264.01 405.571   1
   1  -8  -1 989.640 295.469   1
  -1  -7   1 2258.58 451.147   1
  -1   8   1 1403.79 417.285   1
   1   7  -1 1732.56 381.881   1
   7  -8  -1 2111.54 460.344   2
  -8   1  -1 1082.95 322.224   1
   8  -7   1 1609.23 412.915   1
   7   1  -1 1114.86 373.033   1
   1  -8  -1 1578.20 410.999   2
  -7  -1   2 228511. 4843.66   2
  -7   8   2 237393. 5214.75   1
   7  -8  -2 237529. 5190.19   2
   7   1  -2 251997. 5122.12   1
   1  -8  -2 229500. 5121.91   1
  -1  -7   2 249176. 5016.50   1
  -1   8   2 233398. 5189.97   1
   1   7  -2 237589. 4943.31   1
   8  -1   2 234219. 5105.03   1
   8  -7   2 238967. 5139.20   1
  -7  -1   2 244877. 5048.89   1
   7  -8  -2 245706. 5257.15   1
  -8   1  -2 246399. 5199.33   1
  -1  -7   2 233045. 5092.26   2
   1  -8  -2 240883. 5199.24   2
  -8   7  -2 240918. 5231.32   1
   1  -8  -3 2187.21 417.095   2
   7  -8  -3 1987.45 459.896   1
  -8   7  -3 1956.52 444.941   1
   8  -1   3 2495.36 530.551   1
  -7   8   3 2475.50 517.704   1
   1  -8  -3 1881.01 422.634   1
  -7  -1   3 2412.48 439.772   1
   8  -7   3 2169.54 473.316   1
   1   7  -3 2351.51 464.006   1
  -1   8   3 2309.38 491.414   1
  -8   1  -3 2053.12 471.468   1
   7  -8  -3 2308.32 563.280   2
   7   1  -3 1988.15 419.759   1
  -1  -7   3 2249.32 494.147   2
  -7   8   5 9191.73 963.408   1
   7  -8  -5 9634.35 958.751   1
   8  -7   5 10428.3 973.724   1
   1  -8  -5 7448.99 885.830   1
   8  -1   5 7572.55 856.272   1
  -1   8   5 8183.66 890.124   1
  -8   1  -5 7165.83 866.202   1
   7  -8  -5 8605.82 911.430   2
  -8   7  -5 9136.00 944.676   1
  -1  -7   5 7877.45 864.325   2
   1  -8  -5 7859.31 858.440   2
   1  -8  -6 5992.13 784.114   2
   8  -1   6 5564.61 707.578   1
  -7   8   6 5365.93 753.537   1
   7  -8  -6 3941.51 661.704   1
   1  -8  -6 5678.75 746.666   1
  -8   1  -6 5265.44 729.423   1
   8  -7   6 4828.84 663.254   1
  -1   8   6 5300.54 737.861   1
  -8   7  -6 5126.82 720.690   1
   7  -8  -6 6045.82 811.203   2
  -1  -7   6 5822.15 781.264   2
  -8   7  -7 427.927 267.141   1
   1  -8  -7 220.539 299.903   2
  -8   1  -7 782.090 347.512   1
  -7   8   7 362.638 296.196   1
   1  -8  -7 819.354 409.803   1
   8  -7   7 412.248 303.667   1
  -1   8   7-78.2155 268.988   1
  -1  -7   7 613.928 217.680   2
   8  -1   7 10.8662 317.040   1
   1  -8  -8 294558. 6202.73   2
   7  -8  -8 269054. 6060.57   1
   8  -1   8 310695. 6235.32   1
   1  -8  -8 291167. 6234.27   1
   8  -7   8 295641. 6047.46   1
  -7   8   8 287505. 6145.36   1
  -1   8   8 297908. 6228.22   1
  -8   1  -8 303210. 6267.71   1
  -8   7  -8 294690. 6163.85   1
  -1  -7   8 285405. 5972.65   2
  -7   8   9 8367.64 925.082   1
   7  -8  -9 8177.50 948.409   1
   8  -1   9 9392.71 1026.39   1
   1  -8  -9 8763.48 972.572   1
  -8   7  -9 8124.52 905.494   1
  -1   8   9 9440.11 988.533   1
   1  -8  -9 7456.89 896.707   2
  -8   1  -9 10577.5 1013.20   1
   8  -7   9 8019.82 905.829   1
   8  -1  10 33527.4 1907.11   1
   7  -8 -10 33602.0 1895.48   1
   1  -8 -10 34541.2 1955.90   1
   8  -7  10 36331.8 1972.95   1
  -1   8  10 33202.2 1889.00   1
  -8   1 -10 32411.1 1879.93   1
  -8   7 -10 37008.8 1972.93   1
  -7   8  10 34740.9 1958.92   1
   1  -8 -10 29952.3 1835.25   2
   1  -8 -11-489.894 314.218   2
   7  -8 -11-100.132 337.570   1
  -8   1 -11 22.7556 262.224   1
  -7   8  11-30.0699 225.239   1
   1  -8 -11-362.945 372.392   1
   8  -7  11-250.863 259.118   1
   8  -1  11 2.29799 189.984   1
  -1   8  11 456.780 385.910   1
  -8   7 -11 56.3698 219.471   1
   8  -1  12 216280. 5297.40   1
  -7   8  12 210688. 5249.65   1
   7  -8 -12 201950. 5279.04   1
   1  -8 -12 206817. 5285.90   1
  -1   8  12 210427. 5257.39   1
  -8   1 -12 207349. 5300.48   1
   8  -7  12 205196. 5173.23   1
  -8   7 -12 210428. 5325.53   1
   1  -8 -12 199518. 5241.60   2
   1  -8 -13 312.019 263.364   2
  -8   1 -13-271.540 321.868   2
   7  -8 -13-250.690 244.937   1
  -7   8  13 316.175 251.069   1
   1  -8 -13 443.023 404.820   1
   8  -1  13-52.1523 318.789   1
  -8   1 -13 712.731 371.992   1
  -1   8  13-152.132 299.502   1
   8  -1  14 14449.1 1323.49   1
  -7   8  14 8675.46 1046.05   1
   7  -8 -14 9649.19 1080.16   1
   1  -8 -14 12806.1 1251.85   1
  -1   8  14 14152.2 1278.70   1
  -8   1 -14 11960.4 1181.65   1
  -8   1 -14 12558.9 1148.60   2
   1  -8 -14 10196.0 1139.62   2
  -8   1 -15 779.337 428.849   2
   1  -8 -15 1017.61 380.803   1
   8  -1  15 122.700 352.429   1
  -8   1 -15 587.249 308.567   1
  -1   8  15 674.178 389.611   1
  -8   1 -16 152351. 4748.23   1
   8  -1  16 150461. 4657.30   1
   8  -8   0 13456.8 1103.46   1
  -8   0   0 12276.6 1075.97   2
   0  -8   0 14469.3 1145.89   1
   8   0   0 13498.3 1116.84   1
   0   8   0 13438.3 1123.76   1
  -8   0   0 12457.0 1073.17   1
   0  -8   0 12873.2 1129.49   2
  -8   8   0 12936.5 1097.22   1
   8  -8   0 13078.2 1150.71   2
   8  -8  -1 118978. 3519.83   1
  -8   0   1 118929. 3363.51   2
  -8   0  -1 127885. 3582.60   2
   0  -8   1 129458. 3550.63   1
   0  -8  -1 129949. 3673.68   1
   8   0   1 127035. 3631.61   1
   8   0  -1 117531. 3461.54   1
   0   8  -1 126799. 3549.73   1
   0   8   1 120506. 3556.40   1
  -8   0  -1 117802. 3499.13   1
  -8   0   1 142133. 3744.74   1
   8  -8   1 122333. 3545.85   1
   0  -8  -1 124920. 3632.07   2
   0  -8   1 120636. 3539.10   2
  -8   8  -1 120955. 3533.78   1
  -8   8   1 121910. 3585.95   1
   8  -8  -1 113649. 3562.38   2
  -8   0  -2 213425. 4875.81   2
   0  -8   2 211429. 4884.73   2
   8  -8  -2 213730. 4926.67   1
   0  -8   2 204392. 4665.79   1
   8   0   2 199918. 4769.48   1
   0  -8  -2 209671. 4917.96   1
   0   8  -2 207729. 4726.84   1
   8   0  -2 208612. 4774.45   1
   0   8   2 215191. 4950.36   1
  -8   0  -2 218040. 4967.35   1
  -8   0   2 211042. 4783.72   1
   8  -8   2 208701. 4826.74   1
   8  -8  -2 207159. 4962.14   2
   0  -8  -2 205554. 4841.46   2
  -8   8  -2 204847. 4857.11   1
  -8   8   2 212142. 4951.61   1
  -8   8   3 43496.2 2055.99   1
  -8   0  -3 45818.8 2062.24   2
   8  -8  -3 43067.5 2050.33   1
   8   0   3 40705.0 2001.53   1
   0  -8  -3 43787.7 2042.03   1
   0   8  -3 42106.4 1921.61   1
   8   0  -3 42774.7 1944.97   1
   0   8   3 44999.1 2110.87   1
   8  -8   3 41619.4 2008.55   1
  -8   0  -3 43626.1 2077.43   1
  -8   0   3 43968.4 1979.61   1
   8  -8  -3 45339.6 2096.16   2
   0  -8   3 41911.5 2029.77   2
   0  -8  -3 42696.7 2052.75   2
  -8   8  -3 42936.9 2055.22   1
  -8   8   4 17787.5 1337.76   1
   0  -8  -4 20969.4 1423.32   2
  -8   0  -4 23960.7 1490.46   2
   8   0   4 20001.6 1405.21   1
   0  -8  -4 21380.6 1473.72   1
   8  -8  -4 20956.4 1399.29   1
   8   0  -4 20899.8 1369.27   1
   0   8   4 20297.8 1418.94   1
   8  -8   4 18888.5 1347.63   1
  -8   0  -4 18726.4 1382.55   1
  -8   0   4 23177.8 1411.86   1
   0  -8   4 24928.7 1541.15   2
  -8   8  -4 20003.0 1381.15   1
   8  -8  -4 20380.4 1426.75   2
  -8   8   5 112859. 3466.93   1
  -8   0  -5 108140. 3468.00   2
   8   0   5 108656. 3421.11   1
   8  -8  -5 106133. 3373.03   2
   0  -8  -5 113654. 3528.36   1
   8  -8   5 112094. 3430.99   1
   8  -8  -5 121786. 3607.39   1
   0   8   5 109444. 3492.69   1
  -8   0  -5 119495. 3598.29   1
   0  -8  -5 109864. 3418.81   2
   0  -8   5 110868. 3423.28   2
  -8   8  -5 109841. 3441.48   1
   8   0   6 287919. 6055.45   1
  -8   8   6 275266. 5956.11   1
  -8   0  -6 285011. 6048.90   2
   8  -8   6 285469. 5951.52   1
   0  -8  -6 270824. 6007.33   1
   0   8   6 283703. 6083.61   1
   8  -8  -6 278995. 5987.16   1
  -8   0  -6 277831. 5992.68   1
   0  -8   6 296422. 6051.52   2
  -8   8  -6 282196. 6002.54   1
   0  -8  -6 273543. 5944.22   2
  -8   8   7 71847.1 2807.06   1
  -8   0  -7 66208.2 2683.54   2
   8  -8   7 73791.0 2749.73   1
   8   0   7 74248.0 2836.36   1
   0  -8  -7 73563.9 2815.01   1
   0   8   7 73329.1 2871.27   1
  -8   0  -7 68072.5 2741.83   1
  -8   8  -7 70762.9 2735.75   1
   8  -8  -7 70095.8 2764.80   1
   0  -8   7 72911.3 2774.91   2
   0  -8  -7 70115.2 2752.71   2
   8  -8   8 33798.6 1862.94   1
  -8   0  -8 36586.8 1949.85   2
   0  -8  -8 31684.0 1858.24   2
   8   0   8 34629.8 1906.14   1
   0   8   8 31779.9 1822.02   1
  -8   0  -8 33985.6 1891.02   1
   0  -8  -8 30884.4 1870.59   1
   8  -8  -8 31091.3 1837.02   1
   0  -8   8 33299.0 1876.80   2
  -8   8  -8 33548.4 1887.56   1
  -8   8   8 35666.9 1921.25   1
  -8   8   9 13848.1 1233.28   1
   8   0   9 14214.9 1216.47   1
  -8   0  -9 12722.5 1166.93   2
   0  -8  -9 15180.5 1296.47   1
   0   8   9 14094.5 1219.57   1
  -8   0  -9 13417.7 1184.26   1
   0  -8   9 12960.3 1194.26   2
   8  -8  -9 12767.4 1167.17   1
  -8   8  -9 13794.1 1204.56   1
   8  -8   9 14457.3 1212.76   1
   0  -8  -9 14104.0 1248.71   2
  -8   8  10 113929. 3699.41   1
  -8   0 -10 114311. 3681.11   2
   0  -8 -10 107277. 3604.18   1
   8  -8 -10 112218. 3667.07   1
   0   8  10 107384. 3573.94   1
   8  -8  10 114509. 3679.39   1
  -8   0 -10 107426. 3610.40   1
   8   0  10 109940. 3623.53   1
  -8   8 -10 108821. 3613.28   1
   0  -8 -10 110054. 3681.95   2
   8   0  11 88509.3 3224.46   1
  -8   8  11 73862.7 3015.20   1
  -8   0 -11 82099.8 3133.43   2
  -8   8 -11 78677.3 3081.04   1
   0  -8 -11 82723.7 3155.70   1
   0   8  11 83993.4 3141.63   1
  -8   0 -11 83013.2 3183.80   1
   8  -8 -11 75434.7 3000.62   1
   0  -8 -11 78037.2 3113.92   2
  -8   8  12 8668.85 1044.91   1
  -8   0 -12 9476.77 1027.90   2
   0  -8 -12 11651.0 1146.58   1
   0   8  12 9719.40 1056.49   1
  -8   0 -12 10084.2 1116.94   1
   8   0  12 10540.8 1119.61   1
   8  -8 -12 6938.90 961.617   1
   0  -8 -12 10680.7 1141.08   2
  -8   0 -13 83317.2 3154.36   2
   0  -8 -13 86455.9 3308.80   1
  -8   8  13 71245.5 3058.68   1
   0   8  13 80552.9 3151.23   1
  -8   0 -13 88456.2 3375.11   1
   8  -8 -13 78346.4 3174.21   1
   0  -8 -13 78241.1 3188.73   2
   8   0  13 88887.6 3306.02   1
  -8   0 -14 96714.7 3499.04   2
   0  -8 -14 111446. 3791.34   1
   0   8  14 109444. 3721.29   1
  -8   0 -14 106970. 3769.79   1
   0  -8 -14 93522.7 3590.28   2
   8   0  14 100786. 3586.94   1
   0  -8 -15 15275.4 1444.54   2
  -4  -5 -15 26628.8 1812.67   2
  -4  -5 -15 25565.7 1825.73   1
  -5  -4 -15 27333.6 1887.51   1
   5   4  15 26403.4 1809.84   1
  -5  -4 -15 28134.3 1854.93   2
  -4  -5 -14 227684. 5711.17   2
  -5  -4 -14 226852. 5678.32   2
  -4  -5 -14 222433. 5625.74   1
  -5  -4 -14 223278. 5660.46   1
   4   5  14 227205. 5629.79   1
   5   4  14 218871. 5558.34   1
  -4  -5 -13 157890. 4565.29   2
  -5  -4 -13 161729. 4547.60   2
  -5  -4 -13 147387. 4465.41   1
   4   5  13 163982. 4572.82   1
   5   4  13 152627. 4476.52   1
  -4  -5 -12 37941.9 2118.07   2
  -4  -5 -12 40048.5 2190.62   1
  -5  -4 -12 39503.2 2180.36   1
  -5  -4 -12 44256.7 2250.71   2
   4   5  12 41513.3 2169.51   1
   5   4  12 40426.4 2120.30   1
  -4  -5 -11 118229. 3787.58   2
  -5  -4 -11 125561. 3882.86   2
  -4  -5 -11 110635. 3696.00   1
  -5  -4 -11 108221. 3666.43   1
   4   5  11 116304. 3769.82   1
   4  -9  11 105127. 3692.69   2
   5   4  11 120188. 3774.74   1
  -4  -5 -10 208144. 5295.62   2
  -5  -4 -10 220388. 5294.50   2
   4  -9  10 203754. 5255.24   2
  -4  -5 -10 219613. 5330.97   1
  -5  -4 -10 217454. 5361.78   1
   5  -9  10 199499. 5173.57   2
   4   5  10 206664. 5145.32   1
   5   4  10 205170. 5177.45   1
  -4  -5  -9 20907.7 1521.34   2
  -9   5   9 21081.5 1464.12   1
  -5  -4  -9 21994.6 1545.90   2
   5  -9   9 19986.4 1488.28   2
  -4  -5  -9 22663.6 1569.41   1
  -5  -4  -9 18703.6 1460.42   1
   9  -5  -9 21528.1 1487.79   1
   4  -9   9 17250.8 1394.13   2
   4   5   9 20107.5 1468.03   1
   5   4   9 18728.2 1450.10   1
  -9   4   8 4267.62 684.600   1
   9  -4  -8 4313.04 616.036   1
  -4  -5  -8 3296.17 661.163   2
  -9   5   8 4344.25 675.846   1
  -5  -4  -8 3856.39 692.787   2
   4   5   8 3039.92 591.898   1
   5   4   8 3676.96 659.030   1
  -4  -5  -8 4369.16 710.727   1
  -5  -4  -8 3676.58 695.384   1
   9  -5  -8 4558.99 658.792   1
   5  -9   8 5231.63 783.557   2
   4  -9   8 3733.85 654.105   2
   9  -4  -7 7771.60 859.177   1
  -5   9  -7 7166.52 811.975   1
   9  -5  -7 8827.29 929.724   1
  -4  -5  -7 6233.81 850.717   1
  -5  -4  -7 6795.35 863.436   1
   5  -9   7 6058.64 817.399   2
   4   5   7 6416.08 851.439   1
  -5  -4  -7 6398.95 875.701   2
  -9   4   7 6575.63 790.288   1
   5   4   7 6783.91 853.474   1
  -9   5   7 6662.51 818.452   1
   4  -9   7 6265.64 800.787   2
  -4  -5  -7 7484.29 906.903   2
  -4   9  -6 69912.7 2576.13   1
  -5  -4  -6 66461.3 2648.93   2
   5   4   6 65392.3 2628.87   1
   9  -4  -6 66251.7 2542.27   1
   9  -5  -6 72976.5 2650.05   1
  -4  -5  -6 69947.9 2713.61   1
  -5  -4  -6 68329.7 2687.12   1
   4   5   6 66643.0 2663.97   1
   4  -9   6 67033.2 2674.55   2
  -9   4   6 72856.7 2648.27   1
  -9   5   6 75198.1 2738.68   1
   5  -9   6 64374.3 2505.95   1
   5  -9   6 61969.5 2587.91   2
  -5   9  -6 69408.5 2614.20   1
  -4  -5  -6 73302.8 2756.74   2
  -5   9  -5 17163.5 1262.28   1
  -5  -4  -5 16930.0 1316.83   2
  -4   9  -5 19376.6 1297.49   1
   4  -9   5 16387.4 1293.98   2
   9  -4  -5 18861.5 1293.57   1
   5  -9   5 17062.7 1285.84   1
   9  -5  -5 18478.2 1324.01   1
  -4  -5  -5 17195.7 1298.58   1
  -5  -4  -5 17506.6 1335.12   1
   4  -9   5 18688.4 1286.35   1
   4   5   5 16280.6 1309.38   1
   5  -9   5 16387.2 1303.83   2
  -9   4   5 19809.3 1332.87   1
   5   4   5 16972.2 1320.32   1
  -9   5   5 17509.7 1302.26   1
  -4  -5  -5 17111.6 1346.70   2
  -5  -4  -4 39563.6 2006.73   2
  -5   9  -4 38525.2 1899.49   1
   9  -4  -4 32273.3 1737.63   1
  -4   9  -4 35773.0 1818.75   1
  -9   5   4 42813.6 1996.16   1
   9  -5  -4 44655.6 2051.47   1
   4  -9   4 33300.9 1814.15   2
   5  -9   4 38029.2 1918.46   1
  -4  -5  -4 36941.3 1908.71   1
  -5  -4  -4 37479.2 1910.32   1
   4   5   4 35444.0 1900.82   1
   5  -9   4 39556.5 1988.32   2
  -9   4   4 42875.7 1964.47   1
   5   4   4 37740.9 1934.55   1
   4  -9   4 36328.3 1824.80   1
  -4  -5  -4 38177.0 1923.46   2
  -5  -4  -3 135183. 3784.73   2
   9  -4  -3 124408. 3531.74   1
  -5   9  -3 131437. 3641.96   1
  -4   9  -3 128329. 3585.11   1
   9  -5  -3 116855. 3511.00   1
   4   5   3 131820. 3747.68   1
  -4  -5  -3 123188. 3633.19   1
  -5  -4  -3 128460. 3703.01   1
  -9   4   3 134059. 3657.49   1
   4  -9   3 129814. 3680.47   2
   5  -9   3 129248. 3598.36   1
   5  -9   3 130245. 3706.87   2
   5   4   3 129729. 3728.84   1
  -9   5   3 125507. 3594.35   1
  -4  -5  -3 115684. 3573.34   2
  -5   9  -2 289660. 5880.49   1
   4  -9   2 298286. 6001.72   2
   5  -9   2 278415. 5787.17   1
  -4   9  -2 301048. 5929.63   1
   4  -9   2 304127. 5933.19   1
   9  -5  -2 286953. 5847.44   1
  -4  -5  -2 305779. 6029.08   1
  -5  -4  -2 284788. 5886.12   1
   4   5   2 291126. 5961.69   1
   5  -9   2 283739. 5930.95   2
   5   4   2 281234. 5912.01   1
  -9   5   2 307641. 5981.79   1
  -4  -5  -2 288364. 5910.15   2
  -5  -4  -2 290740. 5938.79   2
   9  -4  -2 307023. 5920.03   1
  -5   9  -1 223324. 5044.18   1
  -4   9  -1 219560. 4998.15   1
   9  -5  -1 219366. 4905.14   1
  -9   5   1 221502. 4953.05   1
   4  -9   1 228527. 5028.46   1
  -4  -5  -1 231329. 5078.76   1
  -4  -5  -1 228088. 5072.50   2
  -5  -4  -1 236778. 5122.71   1
   4   5   1 217453. 4979.13   1
  -9   4   1 208607. 4824.91   1
   5  -9   1 231939. 5139.71   2
   4  -9   1 218523. 4996.41   2
   5   4   1 219173. 5006.31   1
   9  -4  -1 228529. 4953.78   1
  -5  -4  -1 219590. 4993.75   2
   5   4   0 24030.6 1467.20   1
  -9   5   0 25840.2 1520.71   1
   9  -5   0 24663.7 1471.02   1
  -5   9   0 24233.7 1508.03   1
   5  -9   0 25042.3 1519.12   1
  -4   9   0 22913.3 1471.36   1
   4  -9   0 22491.2 1450.92   1
   9  -4   0 21764.9 1397.27   1
  -4  -5   0 22943.3 1462.79   1
  -5  -4   0 24639.2 1474.18   1
   4   5   0 23195.8 1435.40   1
  -9   4   0 22698.3 1405.53   1
  -4  -5   0 24597.2 1507.23   2
   5  -9   0 23098.4 1482.34   2
   4  -9   0 22737.9 1444.47   2
  -5  -4   0 22176.3 1406.35   2
  -9   4  -1 71914.7 2635.45   1
   9  -5   1 76257.4 2661.99   1
  -5   9   1 73745.5 2724.15   1
  -5  -4   1 77488.6 2710.59   2
   5  -9  -1 78828.2 2776.72   1
   4  -9  -1 74714.1 2741.19   1
  -4   9   1 72241.3 2698.90   1
   4  -9  -1 77310.3 2776.14   2
  -4  -5   1 80750.0 2718.77   1
   5  -9  -1 79581.7 2780.70   2
  -5  -4   1 83134.4 2742.18   1
  -9   5  -1 85112.7 2840.52   1
   4   5  -1 83119.7 2738.29   1
   5   4  -1 76834.9 2722.12   1
   9  -4   1 71347.6 2617.80   1
  -4  -5   1 76948.1 2703.71   2
   5  -9  -2 530715. 8860.82   2
   5  -9  -2 532344. 8884.48   1
   4  -9  -2 546301. 8976.96   1
  -4   9   2 539676. 8881.27   1
  -4  -5   2 549608. 8565.51   1
  -5  -4   2 527547. 8566.61   1
   4  -9  -2 538842. 8900.75   2
  -4  -5   2 508607. 8631.04   2
  -5   9   3 60977.0 2458.90   1
   5  -9  -3 61464.2 2501.17   1
  -9   5  -3 63253.4 2500.32   1
   4  -9  -3 58350.5 2422.07   1
  -4   9   3 59837.6 2445.18   1
   4  -9  -3 60103.5 2453.12   2
  -9   4  -3 60915.4 2408.44   1
   9  -4   3 59486.7 2389.42   1
   9  -5   3 60598.5 2397.95   1
  -4  -5   3 63009.2 2378.76   2
  -5  -4   3 64842.2 2411.39   2
   5  -9  -3 58411.7 2435.89   2
  -5   9   4 23421.1 1540.43   1
   5  -9  -4 26336.4 1611.63   1
   4  -9  -4 22785.7 1524.12   1
  -4   9   4 24817.8 1539.43   1
  -5  -4   4 22786.9 1395.69   2
   5  -9  -4 25765.7 1582.77   2
   9  -4   4 24799.8 1502.84   1
  -9   4  -4 25972.6 1534.48   1
  -9   5  -4 26923.6 1557.99   1
   9  -5   4 28170.0 1589.59   1
   4  -9  -4 23069.4 1504.34   2
  -4  -5   4 21864.2 1400.54   2
   4  -9  -5 57614.4 2443.59   2
  -9   5  -5 60823.4 2458.14   1
   5  -9  -5 60460.1 2531.69   1
  -5   9   5 61123.9 2497.34   1
   4  -9  -5 58680.2 2460.23   1
  -4   9   5 56637.8 2427.41   1
   9  -4   5 65944.6 2486.37   1
  -9   4  -5 62106.2 2451.19   1
   9  -5   5 63110.4 2476.45   1
   5  -9  -5 61125.4 2491.09   2
  -4  -5   5 58494.5 2338.20   2
   5  -9  -6 31412.3 1845.20   1
  -5   9   6 31661.6 1816.51   1
   4  -9  -6 32089.6 1853.39   1
  -4   9   6 32237.9 1822.63   1
   9  -4   6 32388.3 1771.03   1
   5  -9  -6 33123.5 1840.28   2
  -9   4  -6 37928.7 1942.57   1
   9  -5   6 32664.4 1784.29   1
  -9   5  -6 35197.1 1833.91   1
   4  -9  -6 34175.4 1869.44   2
   4  -9  -7 3964.81 662.186   2
   5  -9  -7 3586.47 647.422   1
   4  -9  -7 3278.78 605.763   1
   9  -4   7 3226.45 593.237   1
  -5   9   7 3057.39 558.916   1
  -4   9   7 2638.85 567.101   1
   9  -5   7 3777.45 612.706   1
  -9   4  -7 3435.40 544.218   1
  -9   5  -7 3835.74 639.816   1
   5  -9  -7 3343.76 637.707   2
   5  -9  -8 6186.18 823.234   1
   4  -9  -8 4921.54 755.176   1
   9  -4   8 5680.88 749.180   1
  -5   9   8 6203.53 816.909   1
  -4   9   8 5196.23 766.879   1
   9  -5   8 5016.33 709.455   1
  -9   4  -8 5916.80 800.309   1
  -9   5  -8 6163.70 761.671   1
   4  -9  -8 6744.54 813.815   2
   5  -9  -8 5739.77 797.851   2
   5  -9  -9 28419.4 1773.05   1
   4  -9  -9 24301.4 1659.79   1
  -5   9   9 26704.9 1689.94   1
  -4   9   9 26918.2 1688.82   1
   9  -4   9 25312.0 1615.74   1
   4  -9  -9 27126.7 1741.90   2
   9  -5   9 30566.5 1745.55   1
   5  -9  -9 31632.6 1800.47   2
  -9   4  -9 26962.1 1655.90   1
  -9   5  -9 30298.8 1767.75   1
   5  -9 -10 189305. 5004.56   1
   4  -9 -10 214086. 5244.29   1
  -5   9  10 198885. 5014.29   1
  -4   9  10 218865. 5197.55   1
   9  -4  10 207165. 5043.70   1
   9  -5  10 191904. 4934.22   1
  -9   4 -10 201266. 5058.90   1
  -9   5 -10 198510. 5033.02   1
   5  -9 -10 202256. 5097.88   2
   4  -9 -10 212064. 5203.69   2
   5  -9 -11 175013. 4743.67   1
   4  -9 -11 175480. 4709.93   1
  -5   9  11 172263. 4717.13   1
  -4   9  11 172397. 4614.51   1
   9  -4  11 168550. 4584.44   1
   9  -5  11 168886. 4565.19   1
  -9   4 -11 170074. 4619.44   1
  -9   5 -11 165612. 4569.10   1
   4  -9 -11 160479. 4649.63   2
   5  -9 -12 55097.9 2536.81   1
   4  -9 -12 50335.2 2455.57   1
  -5   9  12 51667.7 2466.24   1
   9  -4  12 47172.6 2319.07   1
  -4   9  12 45754.4 2304.39   1
   9  -5  12 50972.2 2406.32   1
  -9   4 -12 50470.4 2424.21   1
  -9   5 -12 50847.2 2457.25   1
   5  -9 -13 99454.0 3600.84   1
   4  -9 -13 95589.5 3504.59   1
   9  -4  13 91021.5 3394.39   1
  -5   9  13 102902. 3604.14   1
  -4   9  13 103558. 3551.32   1
   9  -5  13 91194.0 3410.04   1
  -9   4 -13 100768. 3604.49   1
  -9   5 -13 94726.6 3492.75   1
   9  -4  14 225496. 5683.41   1
   5  -9 -14 244593. 5906.54   1
   4  -9 -14 243401. 5932.54   1
  -5   9  14 215590. 5604.18   1
   9  -5  14 202286. 5510.89   1
  -4   9  14 257082. 5948.03   1
  -9   4 -14 224887. 5741.78   1
  -9   5 -14 219116. 5686.73   1
   9  -4  15 21471.9 1650.85   1
   5  -9 -15 23971.4 1714.16   1
  -5   9  15 21469.2 1639.54   1
   4  -9 -15 23119.5 1737.00   1
  -4   9  15 20028.9 1576.35   1
  -9   4 -15 18812.6 1568.22   1
  -9   5 -15 23578.0 1748.32   1
  -3  -6 -15 4396.72 766.474   2
  -6  -3 -14 33201.5 2009.91   2
  -3  -6 -14 34754.5 2053.62   1
  -6  -3 -14 35067.8 2067.85   1
   3   6  14 32129.4 1995.18   1
   6   3  14 33378.9 2028.35   1
  -3  -6 -14 33441.4 2052.73   2
   3   6  13 3910.23 702.409   1
  -3  -6 -13 3069.04 549.523   2
  -6  -3 -13 4191.65 730.162   2
   6   3  13 4061.77 713.438   1
  -3  -6 -13 3516.34 660.825   1
  -6  -3 -13 4045.76 723.368   1
  -6  -3 -12 301294. 6654.49   2
  -3  -6 -12 293315. 6521.21   1
  -6  -3 -12 288952. 6547.66   1
   3   6  12 313413. 6668.41   1
   6   3  12 303266. 6545.78   1
  -3  -6 -12 295010. 6545.44   2
  -3  -6 -11 4576.60 733.227   2
  -6  -3 -11 4282.14 737.712   2
   3   6  11 4274.52 724.117   1
   3  -9  11 3749.18 695.558   2
   6   3  11 4091.79 736.424   1
  -3  -6 -11 3948.95 690.580   1
  -6  -3 -11 4641.69 787.659   1
  -6  -3 -10 34952.6 1981.06   2
  -9   6  10 35908.6 1997.15   1
  -3  -6 -10 35662.9 1994.86   1
  -6  -3 -10 35429.7 2003.31   1
   3   6  10 32962.3 1975.86   1
   9  -6 -10 33196.3 1871.96   1
   3  -9  10 32771.1 1947.72   2
   6   3  10 33448.8 1931.58   1
  -3  -6 -10 34091.1 1971.19   2
   9  -6  -9 1202.10 423.129   1
   3   6   9 533.595 272.298   1
  -3  -6  -9 136.509 245.293   2
  -6  -3  -9-303.893 347.325   2
  -9   6   9 894.477 380.139   1
   6   3   9 14.3921 202.772   1
  -3  -6  -9 326.407 212.078   1
  -6  -3  -9 639.396 336.039   1
   3  -9   9 375.113 244.433   2
  -6  -3  -8 338688. 6856.41   2
   6  -9   8 346029. 6893.51   2
  -3  -6  -8 317065. 6766.46   1
  -6  -3  -8 325761. 6860.56   1
   6   3   8 349946. 7018.92   1
   3   6   8 341922. 6862.60   1
   9  -6  -8 333197. 6703.63   1
   3  -9   8 348296. 6899.26   2
  -6   9  -8 336214. 6755.56   1
  -9   6   8 345139. 6821.99   1
  -3  -6  -8 343547. 7006.71   2
  -6  -3  -7 34980.8 1954.77   2
  -3  -6  -7 38415.0 2022.75   1
  -6  -3  -7 35228.4 1974.77   1
   6  -9   7 36540.2 1903.19   1
   3   6   7 39461.7 2080.06   1
   9  -6  -7 38888.2 2021.15   1
   6  -9   7 36584.2 2031.62   2
  -6   9  -7 38441.5 1972.98   1
   3  -9   7 36651.5 1995.04   2
   6   3   7 37932.1 2019.89   1
  -9   6   7 37091.1 1975.02   1
  -3  -6  -7 38855.3 2037.47   2
  -9   3   6 1837.64 471.772   1
   3   6   6 1484.96 449.846   1
  -3  -6  -6 2381.06 580.198   2
  -6  -3  -6 2195.85 550.789   2
  -9   6   6 1286.14 421.784   1
  -6   9  -6 1678.18 445.592   1
   9  -3  -6 1863.70 431.218   1
   3  -9   6 1206.50 401.435   2
   6   3   6 1523.35 485.594   1
  -3  -6  -6 1977.69 482.078   1
  -6  -3  -6 1954.44 442.496   1
   6  -9   6 1841.46 492.555   2
   9  -6  -6 1244.11 399.565   1
   6  -9   6 1694.29 443.672   1
  -3  -6  -5 1310.29 404.473   2
   3   6   5 1452.21 438.778   1
  -6  -3  -5 1522.60 446.020   2
   9  -3  -5 1550.12 429.632   1
  -9   6   5 1999.41 459.308   1
  -6   9  -5 2651.84 541.273   1
   6  -9   5 2411.66 482.837   1
  -3   9  -5 1374.87 368.343   1
   6   3   5 1192.68 345.614   1
  -3  -6  -5 1467.11 438.147   1
  -6  -3  -5 1216.61 372.743   1
  -9   3   5 1889.52 463.085   1
   6  -9   5 1840.61 508.097   2
   9  -6  -5 1749.51 428.106   1
   3  -9   5 1798.36 448.206   2
  -6  -3  -4 304071. 6150.14   2
   6  -9   4 286814. 5920.24   1
  -3   9  -4 314197. 6019.88   1
   3  -9   4 300659. 5956.17   1
  -3  -6  -4 289351. 6066.86   1
  -6  -3  -4 284609. 6081.37   1
   9  -6  -4 283771. 5938.91   1
   3   6   4 310336. 6283.25   1
  -9   3   4 296642. 5975.50   1
   6  -9   4 294174. 6174.81   2
   3  -9   4 297283. 6048.64   2
   9  -3  -4 288091. 5895.33   1
  -9   6   4 280403. 5957.96   1
   6   3   4 302655. 6206.23   1
  -3  -6  -4 298501. 6178.89   2
  -6   9  -4 297587. 6052.36   1
  -6   9  -3 26388.4 1589.21   1
  -6  -3  -3 23497.8 1508.46   2
  -3   9  -3 24768.0 1504.01   1
   3  -9   3 24361.5 1492.80   1
   6  -9   3 27085.2 1565.61   1
  -3  -6  -3 24662.1 1527.48   1
  -9   6   3 26480.0 1554.00   1
   9  -6  -3 27040.2 1592.96   1
  -6  -3  -3 24005.6 1549.88   1
   3   6   3 23581.5 1507.69   1
  -9   3   3 22834.6 1456.33   1
   6  -9   3 24670.0 1587.93   2
   3  -9   3 21319.0 1448.33   2
   9  -3  -3 22029.8 1444.01   1
   6   3   3 26241.2 1576.62   1
  -3  -6  -3 25843.8 1616.36   2
  -6  -3  -2 18595.4 1320.95   2
   9  -3  -2 20505.5 1349.38   1
  -6   9  -2 17654.6 1295.80   1
   3  -9   2 18018.2 1338.20   2
  -3   9  -2 18808.7 1315.94   1
   3  -9   2 17929.8 1311.67   1
  -3  -6  -2 19248.4 1352.17   1
   9  -6  -2 18812.0 1335.11   1
   6  -9   2 17749.0 1296.95   1
  -6  -3  -2 19452.1 1345.87   1
   3   6   2 19120.3 1387.02   1
  -9   3   2 16858.5 1246.68   1
  -9   6   2 20518.5 1389.63   1
   6  -9   2 17784.9 1307.77   2
  -3  -6  -2 16654.8 1271.23   2
   6   3   2 19899.5 1358.49   1
   3   6   1 2913.45 542.323   1
  -3  -6  -1 3107.61 589.347   2
  -9   6   1 2854.74 538.973   1
  -6  -3  -1 3426.90 581.705   2
   3  -9   1 4792.04 661.971   1
  -6   9  -1 3391.52 586.883   1
  -3   9  -1 3794.20 622.688   1
   6   3   1 2988.47 549.874   1
   9  -6  -1 3024.55 551.216   1
  -3  -6  -1 2958.64 579.518   1
  -6  -3  -1 3159.09 547.105   1
   6  -9   1 2508.28 512.606   2
   9  -3  -1 2879.31 552.784   1
   3  -9   1 3962.72 622.291   2
  -9   3   1 3651.20 578.066   1
   6  -9   1 3384.74 595.693   1
   3  -9   0 529948. 8739.80   1
   3  -9   0 537601. 8815.83   2
  -3   9   0 522409. 8719.31   1
  -6  -3   0 534312. 8673.15   1
   9  -3   0 504230. 8521.60   1
  -3  -6   0 496353. 8612.55   2
   6  -9   0 525451. 8796.25   2
  -6  -3   0 515076. 8653.17   2
   3   6  -1 23.0758 215.797   1
  -3  -6   1 98.6382 249.045   2
  -9   6  -1 42.6894 217.576   1
  -6  -3   1 128.127 275.780   2
   9  -6   1 116.859 236.008   1
   3  -9  -1 97.5829 285.399   1
  -6   9   1 753.021 358.303   1
   6   3  -1 680.958 347.688   1
  -3  -6   1 184.553 214.340   1
  -3   9   1 194.822 249.644   1
  -6  -3   1 242.860 206.130   1
   9  -3   1 2.72609 205.596   1
   6  -9  -1 423.598 311.661   1
  -9   3  -1 239.284 260.895   1
   6  -9  -1 141.680 281.124   2
   3  -9  -1 118.247 291.556   2
  -3  -6   2 4706.97 640.107   2
  -9   6  -2 4757.64 693.335   1
   3  -9  -2 4837.50 711.922   2
  -9   3  -2 4071.77 651.502   1
   6  -9  -2 3452.52 601.044   1
   3  -9  -2 4238.62 668.504   1
  -6   9   2 5924.79 751.255   1
   6   3  -2 4881.53 664.162   1
  -6  -3   2 4617.87 679.862   1
  -3  -6   2 4596.65 645.369   1
  -3   9   2 4697.17 670.241   1
   9  -3   2 4631.41 670.466   1
   9  -6   2 4668.23 656.583   1
   6  -9  -2 5673.61 736.537   2
  -6  -3   2 5938.32 757.020   2
   3   6  -2 4926.96 659.308   1
  -3  -6   3 1084.22 366.863   2
  -9   6  -3 1073.22 391.725   1
  -6  -3   3 1104.30 398.120   2
   6  -9  -3 595.161 295.273   1
   3  -9  -3 1166.54 340.633   1
  -6   9   3 710.984 355.073   1
  -3   9   3 1383.65 413.269   1
   9  -3   3 979.541 364.046   1
   9  -6   3 893.693 303.119   1
   6  -9  -3 721.281 317.267   2
  -9   3  -3 966.728 344.225   1
   3  -9  -3 1180.88 450.202   2
  -6   9   4 423040. 7655.47   1
   6  -9  -4 424272. 7760.27   1
   3  -9  -4 411646. 7590.47   1
  -3   9   4 409243. 7571.76   1
   9  -3   4 419937. 7486.27   1
  -9   6  -4 411194. 7602.14   1
  -9   3  -4 374731. 7325.59   1
   6  -9  -4 432630. 7633.99   2
   3  -9  -4 425269. 7665.87   2
  -3  -6   4 448183. 7628.14   2
   9  -6   4 409533. 7420.90   1
  -6   9   5 23611.8 1565.68   1
   6  -9  -5 22608.3 1554.05   1
   3  -9  -5 24248.9 1569.53   1
  -3   9   5 26349.2 1597.51   1
  -9   6  -5 24952.7 1589.36   1
   9  -3   5 24212.8 1563.68   1
  -9   3  -5 24094.4 1581.18   1
   6  -9  -5 24898.3 1569.43   2
   3  -9  -5 26191.9 1577.62   2
  -3  -6   5 26929.7 1567.88   2
   9  -6   5 26255.6 1526.51   1
   9  -6   6 6184.40 744.835   1
   6  -9  -6 4648.97 714.906   1
   3  -9  -6 4640.69 712.474   1
  -6   9   6 4713.01 620.423   1
   9  -3   6 6816.81 829.149   1
  -3   9   6 4671.21 703.443   1
  -9   3  -6 4429.82 715.827   1
   6  -9  -6 3817.38 621.555   2
  -3  -6   6 5091.73 709.770   2
   3  -9  -6 5106.67 741.614   2
  -9   6  -6 4673.51 701.217   1
   9  -3   7 2957.70 513.645   1
   6  -9  -7 3467.86 636.609   1
   3  -9  -7 2762.90 518.008   1
  -6   9   7 3132.19 572.594   1
  -3   9   7 3588.70 608.110   1
  -9   3  -7 2213.93 482.203   1
   6  -9  -7 4444.08 726.100   2
   9  -6   7 3005.65 533.459   1
  -9   6  -7 3176.15 616.315   1
   3  -9  -7 2513.75 516.672   2
  -6   9   8 298536. 6293.88   1
   6  -9  -8 296841. 6366.35   1
   3  -9  -8 301708. 6361.91   1
  -3   9   8 298154. 6283.63   1
   6  -9  -8 300818. 6327.49   2
   9  -3   8 299822. 6178.97   1
  -9   3  -8 292411. 6184.31   1
   9  -6   8 283715. 6108.18   1
  -9   6  -8 299305. 6257.55   1
   3  -9  -8 293257. 6271.23   2
  -6   9   9 10998.8 1099.48   1
   6  -9  -9 11644.1 1148.98   1
   3  -9  -9 10827.9 1092.15   1
  -3   9   9 9621.52 1045.64   1
   9  -3   9 9667.43 1003.50   1
  -9   3  -9 11610.3 1092.44   1
   9  -6   9 11991.9 1113.47   1
  -9   6  -9 11594.0 1103.27   1
   3  -9  -9 10540.0 1103.44   2
  -6   9  10 48796.2 2339.06   1
   6  -9 -10 46735.6 2351.39   1
   3  -9 -10 49515.9 2324.61   1
   9  -3  10 48761.3 2321.73   1
  -3   9  10 47636.8 2293.02   1
   9  -6  10 49370.6 2314.55   1
  -9   3 -10 49173.5 2368.11   1
  -9   6 -10 50035.5 2361.99   1
   3  -9 -10 48544.0 2339.66   2
   6  -9 -11 1129.02 342.991   1
  -9   6 -11 1129.26 429.920   1
   3  -9 -11 1408.24 450.905   1
   9  -6  11 996.956 350.743   1
  -6   9  11 1046.41 442.869   1
  -3   9  11 1548.55 428.965   1
  -9   3 -11 1410.90 441.876   1
   9  -3  11 1511.58 476.512   1
   3  -9 -11 760.036 351.892   2
  -6   9  12 215421. 5492.77   1
   6  -9 -12 218995. 5539.07   1
   9  -3  12 240671. 5656.15   1
   3  -9 -12 235620. 5626.02   1
  -3   9  12 231542. 5580.80   1
   9  -6  12 220956. 5455.13   1
  -9   3 -12 227747. 5604.69   1
  -9   6 -12 214622. 5451.40   1
   3  -9 -12 217948. 5610.83   2
   9  -6  13 679.737 226.526   1
   6  -9 -13 441.108 340.744   1
   3  -9 -13 979.207 400.934   1
  -6   9  13 624.821 398.201   1
  -3   9  13 585.491 387.328   1
  -9   3 -13 1003.18 436.601   1
  -9   6 -13 1008.74 429.592   1
   9  -3  13 1101.96 476.885   1
   9  -3  14 36445.9 2078.64   1
  -6   9  14 33790.6 2056.92   1
   6  -9 -14 32697.3 2039.09   1
   3  -9 -14 39415.9 2145.92   1
  -3   9  14 36039.8 2095.65   1
  -9   3 -14 31354.6 1999.63   1
  -9   6 -14 29414.6 1981.98   1
   6  -9 -15 934.222 399.639   1
   3  -9 -15 1228.49 404.741   1
  -6   9  15 1257.69 458.490   1
  -3   9  15 1174.10 471.639   1
   9  -3  15 993.780 371.126   1
  -9   3 -15 999.830 453.381   1
  -7  -2 -14 53784.9 2568.56   2
  -2  -7 -14 52281.7 2583.76   1
  -7  -2 -14 55406.7 2662.84   1
   2   7  14 50713.0 2492.87   1
   7   2  14 49804.9 2494.60   1
  -2  -7 -14 51864.7 2600.04   2
  -7  -2 -13 39112.9 2154.86   2
  -2  -7 -13 37979.2 2178.90   1
  -7  -2 -13 35954.4 2144.12   1
   2   7  13 37476.2 2110.03   1
   7   2  13 40218.2 2215.10   1
  -2  -7 -13 38422.2 2192.93   2
  -7  -2 -12 9868.72 1081.45   2
  -2  -7 -12 9350.18 1042.59   1
  -7  -2 -12 8397.85 1044.31   1
   2   7  12 8814.43 982.739   1
   7   2  12 9160.64 1025.39   1
  -2  -7 -12 8993.65 1034.13   2
  -7  -2 -11 54085.3 2493.33   2
   9  -7 -11 57043.4 2607.49   1
  -2  -7 -11 56588.1 2579.45   1
  -7  -2 -11 56446.2 2610.39   1
   2   7  11 58380.6 2583.48   1
   2  -9  11 52667.9 2599.53   2
   7   2  11 56149.0 2583.92   1
  -2  -7 -11 56289.1 2593.81   2
  -9   7  11 45724.4 2373.82   1
  -7  -2 -10 199829. 5018.44   2
  -2  -7 -10 188086. 4975.08   1
  -7  -2 -10 186272. 4993.90   1
   2   7  10 192432. 4980.03   1
   2  -9  10 183620. 4953.00   2
   9  -7 -10 189750. 4962.63   1
   7   2  10 182462. 4820.46   1
  -2  -7 -10 182245. 4882.03   2
  -9   7  10 191067. 4947.82   1
  -7  -2  -9 20626.1 1487.21   2
  -2  -7  -9 20931.4 1533.82   1
  -7  -2  -9 18843.3 1461.51   1
   2   7   9 19582.2 1472.03   1
   2  -9   9 19833.6 1499.04   2
  -7   9  -9 18767.1 1422.11   1
   7   2   9 20103.4 1470.03   1
  -2  -7  -9 19270.8 1452.31   2
  -9   7   9 18492.4 1441.45   1
   9  -7  -9 18833.4 1442.07   1
  -7  -2  -8 77686.1 2968.78   2
   7  -9   8 80661.7 2965.58   1
   2  -9   8 75973.0 2924.23   2
  -2  -7  -8 81697.4 3042.85   1
  -7  -2  -8 70749.3 2906.14   1
   2   7   8 84913.4 3120.36   1
  -7   9  -8 76033.6 2937.96   1
  -2  -7  -8 83097.4 3042.35   2
   7   2   8 81047.8 3005.79   1
   9  -7  -8 84586.7 3073.74   1
  -9   7   8 83400.3 3044.57   1
  -7  -2  -7 19666.0 1437.72   2
  -7   9  -7 21970.4 1500.51   1
  -2  -7  -7 20722.3 1507.81   1
   7  -9   7 22085.9 1491.85   1
  -7  -2  -7 19636.8 1511.24   1
   2   7   7 18527.9 1411.77   1
  -9   7   7 23461.0 1533.83   1
   9  -7  -7 21944.2 1513.93   1
   2  -9   7 20895.5 1472.53   2
  -2  -7  -7 19068.3 1428.99   2
   7   2   7 21753.8 1522.99   1
  -7  -2  -6 289891. 6189.12   2
  -2  -7  -6 277462. 6159.09   1
   7  -9   6 304544. 6167.42   1
  -7  -2  -6 289874. 6263.07   1
   2   7   6 280020. 6175.57   1
   9  -2  -6 335041. 6256.77   1
   2  -9   6 283024. 6093.89   2
   9  -7  -6 283977. 6117.03   1
   7  -9   6 302950. 6318.68   2
  -7   9  -6 296607. 6210.68   1
  -2  -7  -6 278948. 6115.57   2
  -9   7   6 309742. 6257.25   1
   7   2   6 272624. 6073.55   1
   7   2   5 199256. 4888.45   1
  -7  -2  -5 203145. 4886.53   2
  -2  -7  -5 188380. 4780.84   1
  -7  -2  -5 178999. 4713.92   1
   2   7   5 196918. 4872.23   1
   7  -9   5 188946. 4645.48   1
   9  -2  -5 196543. 4644.79   1
  -9   2   5 213658. 4813.82   1
   7  -9   5 183592. 4801.70   2
   2  -9   5 201145. 4879.47   2
   9  -7  -5 192001. 4728.12   1
  -7   9  -5 188813. 4734.37   1
  -2  -7  -5 185863. 4726.77   2
  -9   7   5 183637. 4649.59   1
   7   2   4 5878.11 788.007   1
   9  -7  -4 5888.47 747.654   1
  -7  -2  -4 7564.07 891.095   2
   7  -9   4 5405.26 752.818   1
  -2  -7  -4 6556.54 846.871   1
  -7  -2  -4 6099.03 830.734   1
   2   7   4 6575.20 835.476   1
   9  -2  -4 8471.54 879.966   1
  -9   2   4 7497.72 831.292   1
   7  -9   4 6226.29 819.140   2
   2  -9   4 7463.07 863.660   2
  -2  -7  -4 7151.29 880.389   2
  -9   7   4 6102.07 783.500   1
  -7   9  -4 5954.80 784.849   1
   7   2   3 258580. 5682.42   1
  -7  -2  -3 263392. 5670.54   2
   2  -9   3 243122. 5393.78   1
  -2   9  -3 262957. 5494.94   1
  -2  -7  -3 264234. 5713.63   1
  -7  -2  -3 272928. 5758.99   1
   2   7   3 259134. 5689.15   1
   9  -2  -3 270176. 5568.47   1
   9  -7  -3 256797. 5534.30   1
  -9   2   3 264664. 5536.64   1
   7  -9   3 242713. 5586.28   2
   2  -9   3 249869. 5556.35   2
  -2  -7  -3 261652. 5700.02   2
  -9   7   3 239156. 5413.15   1
   7  -9   3 243476. 5410.40   1
  -7   9  -3 251234. 5583.53   1
   7   2   2 86921.4 3010.41   1
  -7  -2  -2 91877.1 3076.79   2
   7  -9   2 85206.8 2959.82   1
   2  -9   2 86347.0 2971.29   1
  -2   9  -2 90021.2 2972.92   1
  -2  -7  -2 86725.7 3027.90   1
   7  -9   2 91290.3 3136.88   2
  -7  -2  -2 87427.6 3012.04   1
   2   7   2 85137.4 3028.02   1
   9  -7  -2 90849.5 3037.01   1
   9  -2  -2 85420.2 2900.11   1
  -9   2   2 83943.3 2898.41   1
   2  -9   2 88161.0 3024.51   2
  -9   7   2 94240.6 3114.88   1
  -2  -7  -2 82156.5 2942.67   2
  -7   9  -2 88025.0 3036.45   1
  -7   9  -1 11454.2 1063.94   1
  -7  -2  -1 13806.0 1155.80   2
   7   2   1 13308.3 1157.57   1
   2  -9   1 14115.0 1134.89   1
  -2   9  -1 12294.9 1079.08   1
   7  -9   1 12837.5 1117.84   1
  -2  -7  -1 16403.9 1240.20   1
   9  -7  -1 13249.1 1105.00   1
   2   7   1 14217.3 1162.48   1
  -7  -2  -1 14092.5 1156.53   1
   9  -2  -1 13326.6 1096.40   1
  -9   2   1 13875.4 1147.62   1
   2  -9   1 12870.7 1115.87   2
  -9   7   1 13848.2 1168.09   1
  -2  -7  -1 12722.0 1113.10   2
   7  -9   1 12133.9 1119.65   2
  -2  -7   0 1357.51 446.930   2
  -7  -2   0 1595.93 382.189   2
  -9   7   0 1812.79 478.982   1
  -7   9   0 1410.42 343.931   1
   2  -9   0 943.757 240.944   1
  -2  -7   0 1208.53 380.408   1
   9  -2   0 1577.51 426.096   1
   7  -9   0 1910.71 491.438   1
  -2   9   0 1635.87 398.334   1
   7   2   0 1181.51 399.226   1
   9  -7   0 1326.94 377.838   1
  -7  -2   0 1140.69 395.417   1
   7  -9   0 1248.42 392.515   2
  -9   2   0 1998.72 500.339   1
   2   7   0 1251.09 347.744   1
   2  -9   0 1041.32 365.711   2
  -2  -7   1 388.300 266.990   2
  -9   7  -1 750.208 330.997   1
  -7  -2   1 396.363 253.854   2
  -7   9   1 1082.39 430.560   1
   2  -9  -1 818.136 355.380   1
   9  -2   1 456.529 276.289   1
  -2  -7   1 1531.41 398.559   1
   7  -9  -1 849.693 380.503   2
   9  -7   1 556.153 299.022   1
  -2   9   1 741.692 336.386   1
   7   2  -1 711.861 249.626   1
  -7  -2   1 738.766 326.416   1
   2   7  -1 794.319 334.898   1
   7  -9  -1 583.790 327.167   1
  -9   2  -1 1070.18 384.446   1
   2  -9  -1 412.188 256.305   2
   7   2  -2 331469. 6268.46   1
  -7   9   2 294932. 6105.59   1
   2  -9  -2 288486. 5979.73   1
   7  -9  -2 294617. 6082.03   1
   9  -7   2 290345. 5994.85   1
  -2   9   2 292211. 6040.59   1
   2   7  -2 294790. 5862.10   1
   9  -2   2 311310. 6174.60   1
  -7  -2   2 314557. 6046.78   1
  -9   2  -2 281125. 5919.45   1
   7  -9  -2 299188. 6170.59   2
   2  -9  -2 279184. 5966.27   2
  -9   7  -2 281705. 5994.63   1
  -2  -7   2 277123. 5913.63   2
  -7  -2   2 286974. 5852.43   2
   7   2  -3 87894.1 2920.67   1
  -7   9   3 89431.5 3091.40   1
   9  -7   3 95980.3 3096.49   1
   2  -9  -3 84957.9 3018.69   1
  -2   9   3 93196.3 3131.15   1
   9  -2   3 92266.8 3075.38   1
  -9   2  -3 87430.0 2999.65   1
  -2  -7   3 91775.4 3048.93   2
   7  -9  -3 90094.3 3121.94   2
  -9   7  -3 88602.4 3041.75   1
   2  -9  -3 90251.5 3078.39   2
   7  -9  -3 94454.4 3140.95   1
  -7   9   4 186657. 4724.48   1
   9  -7   4 188302. 4633.07   1
   2  -9  -4 189802. 4722.37   1
   7  -9  -4 179942. 4670.04   1
  -2   9   4 196236. 4793.74   1
   9  -2   4 195675. 4718.35   1
  -9   7  -4 191041. 4690.89   1
  -9   2  -4 202009. 4768.60   1
   7  -9  -4 203486. 4819.39   2
  -2  -7   4 192954. 4669.80   2
   2  -9  -4 194761. 4721.36   2
   9  -7   5 150731. 4079.17   1
  -7   9   5 163714. 4339.09   1
   2  -9  -5 147208. 4185.54   1
   7  -9  -5 165371. 4368.72   1
  -2   9   5 152210. 4231.71   1
   9  -2   5 149734. 4122.80   1
  -9   2  -5 151179. 4124.84   1
   7  -9  -5 156373. 4223.09   2
  -9   7  -5 153843. 4181.81   1
  -2  -7   5 159650. 4203.46   2
   2  -9  -5 152006. 4185.92   2
  -7   9   6 330677. 6713.62   1
   7  -9  -6 329975. 6707.08   1
   2  -9  -6 319049. 6604.08   1
  -2   9   6 316763. 6570.49   1
   9  -2   6 319433. 6493.08   1
  -9   2  -6 310718. 6508.14   1
  -9   7  -6 323824. 6626.04   1
   2  -9  -6 327334. 6627.99   2
  -2  -7   6 325793. 6549.45   2
   9  -7   6 322680. 6434.57   1
  -7   9   7 79746.2 2990.40   1
   7  -9  -7 80335.1 3039.84   1
   2  -9  -7 77372.2 2950.79   1
   9  -2   7 84576.7 3005.86   1
  -2   9   7 78896.3 2990.53   1
  -9   2  -7 78296.8 2952.15   1
  -9   7  -7 76824.6 2903.34   1
   7  -9  -7 76522.5 2894.96   2
  -2  -7   7 77430.6 2920.46   2
   9  -7   7 78543.7 2849.14   1
   2  -9  -7 79974.9 2983.63   2
   2  -9  -8 3839.49 680.468   2
   9  -7   8 6645.41 826.353   1
   9  -2   8 4737.79 743.775   1
  -7   9   8 5904.48 823.734   1
   7  -9  -8 5523.31 810.813   1
   2  -9  -8 4549.20 716.291   1
  -2   9   8 5738.54 795.935   1
  -9   2  -8 4186.07 670.038   1
  -9   7  -8 5754.67 787.531   1
   2  -9  -9 74004.1 2928.69   2
  -7   9   9 73675.0 2895.90   1
   7  -9  -9 73058.5 2876.98   1
   9  -2   9 83231.4 3020.58   1
   9  -7   9 75586.7 2893.50   1
   2  -9  -9 71985.4 2862.69   1
  -2   9   9 75180.0 2912.71   1
  -9   2  -9 72892.8 2935.10   1
  -9   7  -9 67306.3 2791.04   1
  -7   9  10 47007.5 2341.46   1
   7  -9 -10 52140.3 2470.82   1
   9  -2  10 56518.5 2497.11   1
   2  -9 -10 51390.2 2457.02   1
  -2   9  10 53971.0 2478.02   1
  -9   2 -10 49444.5 2391.36   1
   9  -7  10 50776.6 2373.00   1
  -9   7 -10 54176.5 2470.78   1
   2  -9 -10 50362.0 2434.56   2
  -7   9  11 61730.0 2749.59   1
   9  -2  11 68205.3 2810.18   1
   7  -9 -11 59990.7 2680.74   1
   2  -9 -11 72387.4 2913.94   1
  -2   9  11 65977.9 2779.36   1
  -9   2 -11 67353.8 2814.76   1
   9  -7  11 64304.6 2699.54   1
  -9   7 -11 65455.4 2809.57   1
   2  -9 -11 66433.2 2823.31   2
   9  -2  12 15589.6 1335.50   1
  -7   9  12 13658.3 1274.92   1
   7  -9 -12 14078.5 1306.56   1
   2  -9 -12 15266.9 1356.74   1
  -2   9  12 14315.1 1311.76   1
   9  -7  12 12772.2 1210.24   1
  -9   2 -12 15337.1 1339.84   1
  -9   7 -12 13181.0 1262.33   1
   2  -9 -12 13821.8 1323.57   2
   9  -2  13 18474.3 1473.97   1
  -7   9  13 16511.5 1416.09   1
   7  -9 -13 15096.4 1348.85   1
   2  -9 -13 17352.2 1450.09   1
  -2   9  13 17367.1 1438.59   1
  -9   2 -13 20089.8 1575.14   1
  -9   7 -13 15178.3 1359.94   1
   2  -9 -13 16730.8 1477.99   2
   9  -2  14 138993. 4348.62   1
  -7   9  14 135019. 4306.83   1
   7  -9 -14 134284. 4362.79   1
   2  -9 -14 136625. 4235.30   1
  -2   9  14 140943. 4355.57   1
  -9   2 -14 145550. 4431.49   1
   7  -9 -15 3663.16 731.406   1
  -1  -8 -14 114642. 3995.50   2
  -8  -1 -13 10512.5 1092.59   2
  -1  -8 -13 9203.72 1083.83   1
   1   8  13 10229.1 1113.73   1
  -8  -1 -13 11120.5 1170.88   1
   8   1  13 11517.6 1192.01   1
  -1  -8 -13 10899.3 1170.29   2
  -1  -8 -12 2178.54 578.474   2
  -8  -1 -12 2794.63 646.748   2
  -9   8  12 1804.44 481.180   1
  -1  -8 -12 3071.74 674.090   1
   8   1  12 1806.22 476.540   1
  -8  -1 -12 2516.30 614.108   1
   1   8  12 1613.33 513.405   1
   9  -8 -12 2135.48 515.739   1
  -9   8  11 57723.8 2672.90   1
  -8  -1 -11 68024.2 2855.34   2
   9  -8 -11 67810.3 2899.09   1
  -1  -8 -11 65583.8 2856.42   1
   1   8  11 69188.5 2873.58   1
  -8  -1 -11 65833.7 2850.61   1
  -1  -8 -11 66418.4 2853.64   2
   8   1  11 60798.1 2683.34   1
  -9   8  10 112059. 3822.08   1
  -8  -1 -10 135422. 4072.89   2
   9  -8 -10 135451. 4145.36   1
  -1  -8 -10 142486. 4239.90   1
  -8   9 -10 129009. 4083.43   1
   1   8  10 132051. 4068.55   1
  -8  -1 -10 133291. 4101.43   1
   1  -9  10 129107. 4090.64   2
  -1  -8 -10 135938. 4132.48   2
   8   1  10 149291. 4237.98   1
   8   1   9 99340.6 3431.25   1
  -9   8   9 103552. 3536.72   1
   8  -9   9 100138. 3414.57   1
  -8  -1  -9 108614. 3564.97   2
   9  -8  -9 103180. 3491.77   1
  -1  -8  -9 101825. 3516.19   1
   1   8   9 98800.0 3448.51   1
   1  -9   9 97455.8 3491.10   2
  -8  -1  -9 101028. 3508.54   1
  -8   9  -9 100818. 3510.59   1
  -1  -8  -9 99838.1 3495.18   2
   8   1   8 103333. 3509.38   1
  -8  -1  -8 103142. 3488.00   2
   8  -9   8 107753. 3528.57   1
   9  -8  -8 108949. 3564.47   1
  -1  -8  -8 103642. 3555.27   1
   1   8   8 102423. 3504.14   1
  -8  -1  -8 95478.2 3420.19   1
   1  -9   8 103712. 3544.95   2
  -8   9  -8 103828. 3508.90   1
  -1  -8  -8 105703. 3551.31   2
  -9   8   8 105358. 3495.16   1
   8   1   7 12988.9 1198.82   1
  -8  -1  -7 13696.2 1229.08   2
   9  -8  -7 13935.4 1224.90   1
   8  -9   7 13471.9 1171.46   1
  -1  -8  -7 12591.6 1154.25   1
   1   8   7 11734.6 1154.21   1
  -8  -1  -7 12869.2 1198.05   1
   1  -9   7 12495.0 1176.69   2
  -8   9  -7 12825.4 1175.88   1
  -1  -8  -7 13396.4 1181.05   2
  -9   8   7 13375.6 1170.02   1
   8   1   6 156306. 4354.98   1
  -8  -1  -6 155105. 4371.23   2
   9  -8  -6 158427. 4337.12   1
   8  -9   6 155361. 4285.38   1
  -1  -8  -6 153304. 4337.08   1
   1   8   6 151747. 4297.42   1
  -8  -1  -6 164106. 4438.32   1
   1  -9   6 157824. 4384.03   2
  -8   9  -6 161206. 4393.34   1
  -1  -8  -6 165493. 4438.31   2
  -9   8   6 159443. 4322.29   1
   9  -8  -5 38891.8 2021.83   1
  -8  -1  -5 33254.7 1913.32   2
   8   1   5 33026.6 1887.53   1
  -1  -8  -5 32951.2 1924.04   1
   8  -9   5 37656.6 1969.80   1
   1   8   5 35252.1 1964.57   1
  -8  -1  -5 35110.0 1935.24   1
   1  -9   5 34991.6 1919.11   2
  -8   9  -5 34577.1 1920.89   1
  -1  -8  -5 34432.7 1918.15   2
  -9   8   5 36142.9 1924.58   1
  -1  -8  -4 137.794 273.603   2
  -8  -1  -4 414.797 310.157   2
  -8   9  -4-91.2317 226.171   1
  -9   8   4 300.093 263.781   1
   9  -1  -4 106.165 246.360   1
   9  -8  -4 482.508 331.150   1
  -9   1   4 211.407 270.220   1
  -1  -8  -4-198.879 320.736   1
  -8  -1  -4 58.7697 293.703   1
   8   1   4-23.6196 229.414   1
   8  -9   4 49.5477 248.139   1
   1   8   4 52.7076 297.104   1
   1  -9   4-103.325 299.428   2
  -8  -1  -3 126562. 3731.01   2
   8   1   3 124708. 3701.32   1
  -1  -8  -3 119314. 3704.54   1
   9  -1  -3 126850. 3677.59   1
   1   8   3 111005. 3587.68   1
  -8  -1  -3 120599. 3659.40   1
  -9   1   3 127460. 3657.90   1
   8  -9   3 123318. 3658.20   1
   8  -9   3 121417. 3772.38   2
   1  -9   3 120523. 3666.36   2
   9  -8  -3 122938. 3710.56   1
  -1  -8  -3 120368. 3667.05   2
  -8   9  -3 125628. 3718.34   1
  -8  -1  -2 189718. 4660.46   2
   8   1   2 160449. 4387.80   1
   1  -9   2 172004. 4402.32   1
  -1   9  -2 178799. 4418.38   1
  -1  -8  -2 182315. 4605.86   1
   8  -9   2 168939. 4565.09   2
   9  -1  -2 168665. 4361.23   1
   1   8   2 183447. 4620.24   1
  -8  -1  -2 173156. 4497.64   1
  -9   1   2 200868. 4656.59   1
   9  -8  -2 164523. 4343.04   1
   8  -9   2 166232. 4389.59   1
   1  -9   2 169814. 4494.68   2
  -1  -8  -2 176087. 4504.42   2
  -9   8   2 172093. 4485.84   1
  -8   9  -2 165621. 4411.06   1
  -8  -1  -1 92993.8 3109.81   2
   8   1   1 90661.9 3076.51   1
   1  -9   1 84661.2 2989.50   1
  -1  -8  -1 92604.0 3154.82   1
  -1   9  -1 86752.7 2983.84   1
   9  -1  -1 90837.0 3061.32   1
   1   8   1 85977.3 3030.00   1
  -8  -1  -1 83964.6 3021.92   1
  -9   1   1 82476.4 2938.11   1
   9  -8  -1 87359.2 3007.19   1
   8  -9   1 88938.2 3201.70   2
   1  -9   1 86956.3 3059.17   2
  -1  -8  -1 84761.9 2991.32   2
   8  -9   1 88354.5 3016.04   1
  -9   8   1 91111.6 3112.41   1
  -8   9  -1 83576.2 3013.54   1
  -8  -1   0 18124.4 1340.26   2
   8  -9   0 20770.8 1406.62   1
  -9   1   0 17819.1 1304.66   2
   8   1   0 18017.4 1340.83   1
   1  -9   0 17312.6 1313.22   1
  -1  -8   0 18349.1 1335.22   1
  -1   9   0 17792.2 1364.51   1
   9  -1   0 17846.0 1327.19   1
   1   8   0 17976.5 1321.42   1
  -8  -1   0 19160.4 1367.40   1
   9  -8   0 20221.4 1391.73   1
  -9   1   0 17934.0 1304.38   1
   8  -9   0 20836.9 1485.30   2
   1  -9   0 16065.6 1295.98   2
  -1  -8   0 18790.4 1376.56   2
  -9   8   0 19085.9 1379.29   1
  -8   9   0 20690.3 1444.46   1
  -8   9   1 70561.6 2718.64   1
  -9   1  -1 69126.0 2635.09   2
   8   1  -1 66836.9 2611.53   1
   8  -9  -1 68540.8 2678.17   1
   1  -9  -1 66176.9 2610.48   1
  -1  -8   1 67170.1 2630.69   1
  -1   9   1 68341.0 2676.65   1
   9  -1   1 64163.9 2579.28   1
   1   8  -1 64838.1 2567.05   1
   9  -8   1 66257.4 2599.81   1
  -8  -1   1 68806.0 2649.77   1
  -9   1  -1 63958.3 2549.98   1
   8  -9  -1 73768.6 2804.10   2
   1  -9  -1 65163.2 2603.14   2
  -1  -8   1 63046.3 2570.95   2
  -9   8  -1 68112.1 2647.20   1
  -8   9   2 281721. 5907.11   1
  -9   1  -2 278183. 5856.36   2
   8   1  -2 281590. 5863.84   1
  -9   8  -2 256328. 5741.80   1
   1  -9  -2 276074. 5880.38   1
   8  -9  -2 266416. 5785.54   1
  -1   9   2 262035. 5823.54   1
   9  -1   2 268325. 5782.79   1
   9  -8   2 262136. 5718.32   1
   8  -9  -2 262899. 5854.51   2
  -8  -1   2 250301. 5601.23   1
  -9   1  -2 251171. 5682.66   1
  -1  -8   2 268146. 5780.45   2
   1  -9  -2 271961. 5819.78   2
  -8   9   3 41472.9 2076.42   1
  -9   1  -3 45211.1 2183.25   2
   8   1  -3 42412.8 2055.19   1
   1  -9  -3 42590.0 2099.68   1
   9  -1   3 44561.1 2122.08   1
   9  -8   3 40618.7 2036.09   1
  -1   9   3 41506.5 2108.73   1
   8  -9  -3 43526.1 2122.89   1
  -9   1  -3 42763.9 2122.91   1
   8  -9  -3 45110.3 2195.83   2
  -1  -8   3 42594.6 2103.08   2
  -9   8  -3 44890.9 2139.16   1
   1  -9  -3 40736.8 2049.18   2
  -8   9   4 81318.2 2995.82   1
  -9   1  -4 87516.0 3053.78   2
   1  -9  -4 77397.1 2990.21   1
   9  -8   4 86403.1 3027.61   1
   9  -1   4 79407.2 2937.96   1
  -1   9   4 78352.0 2952.22   1
   8  -9  -4 82079.2 2979.32   1
  -9   1  -4 72008.9 2818.32   1
   8  -9  -4 79720.6 3009.73   2
  -1  -8   4 89851.4 3081.80   2
  -9   8  -4 82340.0 3001.47   1
   1  -9  -4 81939.2 2977.15   2
  -8   9   5 50560.2 2333.01   1
   9  -8   5 50071.6 2272.12   1
  -9   1  -5 50551.6 2327.70   2
   9  -1   5 51686.4 2331.65   1
   1  -9  -5 46411.8 2286.97   1
  -1   9   5 53236.7 2402.79   1
  -9   1  -5 59978.3 2522.42   1
   8  -9  -5 55581.6 2375.15   1
   8  -9  -5 52414.9 2412.00   2
  -1  -8   5 48130.1 2229.54   2
  -9   8  -5 51450.3 2310.76   1
   1  -9  -5 50161.9 2313.84   2
  -8   9   6 106257. 3519.48   1
   9  -8   6 106341. 3423.70   1
  -9   1  -6 109505. 3552.33   2
   1  -9  -6 109031. 3585.26   1
  -1   9   6 113853. 3627.78   1
   1  -9  -6 113046. 3578.29   2
  -9   1  -6 108883. 3557.69   1
   8  -9  -6 101709. 3433.65   1
  -9   8  -6 108008. 3503.20   1
  -1  -8   6 114202. 3619.19   2
  -8   9   7 102411. 3439.25   1
  -9   1  -7 101773. 3436.03   2
   9  -1   7 99750.3 3360.13   1
   1  -9  -7 107275. 3546.07   1
  -1   9   7 104939. 3488.56   1
  -9   1  -7 103081. 3456.17   1
  -9   8  -7 97910.2 3387.20   1
  -1  -8   7 102804. 3438.51   2
   8  -9  -7 98327.9 3369.97   1
   1  -9  -7 104176. 3431.19   2
   9  -8   7 101851. 3356.97   1
  -9   8  -8 3697.85 638.106   1
   1  -9  -8 3080.58 593.539   2
  -9   1  -8 2354.17 512.237   2
   9  -8   8 3135.86 589.213   1
  -8   9   8 3444.71 667.745   1
   1  -9  -8 3387.65 615.746   1
   8  -9  -8 3564.16 596.262   1
  -1   9   8 3071.13 612.473   1
  -9   1  -8 2393.77 557.469   1
   9  -1   8 1919.91 496.404   1
  -1  -8   8 2909.19 554.864   2
   8  -9  -9 35111.3 1998.86   1
  -8   9   9 33820.8 1979.34   1
  -9   1  -9 35143.4 2007.93   2
   9  -1   9 33168.3 1952.61   1
   1  -9  -9 35154.2 2023.79   1
  -1   9   9 36359.6 2013.99   1
  -9   1  -9 31250.4 1939.35   1
  -9   8  -9 35114.3 2005.39   1
   9  -8   9 35709.1 1987.49   1
   1  -9  -9 34948.5 1998.65   2
  -8   9  10 163090. 4629.89   1
   8  -9 -10 160735. 4571.12   1
  -9   1 -10 173605. 4678.76   2
   9  -1  10 174280. 4644.22   1
   1  -9 -10 154418. 4476.78   1
  -1   9  10 163890. 4537.78   1
  -9   1 -10 171867. 4640.32   1
   9  -8  10 148150. 4376.41   1
   1  -9 -10 162863. 4565.30   2
  -9   8 -10 152539. 4471.21   1
  -8   9  11 10711.8 1123.54   1
   9  -1  11 12008.5 1157.74   1
  -9   1 -11 11685.9 1139.88   2
   8  -9 -11 12633.4 1227.45   1
   1  -9 -11 11999.8 1147.81   1
  -1   9  11 11517.2 1119.94   1
  -9   1 -11 10531.3 1101.71   1
   9  -8  11 10376.8 1086.92   1
  -9   8 -11 9548.59 1087.18   1
   1  -9 -11 9597.54 1058.09   2
   1  -9 -12 4771.73 821.093   2
  -9   1 -12 5684.98 820.588   2
  -8   9  12 5126.52 845.833   1
   1  -9 -12 5585.40 867.679   1
   9  -1  12 4971.82 762.516   1
  -9   1 -12 6259.47 855.741   1
  -1   9  12 4957.45 830.254   1
  -9   8 -12 5108.98 835.534   1
   8  -9 -12 5468.52 836.638   1
  -8   9  13 76670.6 3171.20   1
  -9   1 -13 83314.4 3170.81   2
   8  -9 -13 85900.7 3345.86   1
   9  -1  13 87012.3 3267.91   1
   1  -9 -13 76846.0 3134.94   1
  -1   9  13 81187.3 3169.27   1
  -9   1 -13 84464.6 3319.68   1
   1  -9 -13 74443.4 3126.54   2
   8  -9 -14 82811.5 3399.00   1
  -8   9  14 78449.6 3321.54   1
   1  -9 -14 83381.6 3377.74   2
  -9   0   1 315.871 275.414   1
  -9   0  -1 161.411 221.637   2
   9  -9  -1 1054.92 349.913   1
  -9   9  -1 928.397 388.803   1
  -9   9   1 805.641 338.492   1
   0  -9   1 471.576 335.913   1
   0  -9  -1 650.919 383.051   1
   0   9  -1 234.353 317.150   1
   0   9   1 47.7452 214.487   1
  -9   0  -1 724.413 372.104   1
   9   0   1 366.911 266.222   1
   9  -9   1 692.379 289.473   1
   0  -9   1 371.925 363.945   2
   9   0  -1 583.824 309.657   1
   0  -9  -1 157.061 235.832   2
  -9   0  -2 1090.87 390.472   2
  -9   9  -2 1658.82 460.176   1
  -9   9   2 1586.04 448.650   1
   9  -9  -2 1113.85 417.945   1
   0  -9  -2 1264.43 433.875   1
  -9   0   2 1371.43 458.278   1
   0   9   2 1364.07 431.592   1
  -9   0  -2 1008.11 378.027   1
   9  -9   2 1432.94 444.518   1
   9   0   2 2145.24 507.164   1
   0  -9   2 2078.43 492.320   2
   9   0  -2 1374.07 388.832   1
   0  -9  -2 1024.28 366.095   2
   0  -9  -3 1057.87 419.214   2
   9   0  -3 893.828 340.217   1
  -9   9  -3 717.109 315.254   1
  -9   0  -3 647.064 316.716   2
  -9   9   3 1535.78 446.360   1
   0  -9  -3 968.671 384.671   1
   9  -9  -3 876.880 307.935   1
   9  -9   3 1142.95 386.927   1
   0   9   3 915.803 404.850   1
   9  -9  -3 1270.25 407.234   2
   9   0   3 1175.45 380.082   1
  -9   0  -3 942.433 376.110   1
   0  -9   3 1202.88 402.771   2
  -9   0  -4 45600.9 2306.68   2
   9  -9  -4 44038.4 2181.70   1
   9   0   4 42230.8 2130.90   1
  -9   9   4 42683.1 2162.99   1
   0  -9  -4 42994.2 2201.31   1
   9  -9   4 41409.0 2081.63   1
   0   9   4 43973.6 2217.18   1
  -9   0  -4 41237.7 2144.37   1
   9  -9  -4 43294.6 2217.15   2
   0  -9   4 45873.8 2260.00   2
  -9   9  -4 47658.3 2263.93   1
   0  -9  -4 43389.5 2166.41   2
   0  -9  -5 306.991 359.749   2
  -9   9  -5 327.630 263.163   1
   0   9   5 239.520 238.016   1
  -9   0  -5 176.601 247.289   2
  -9   9   5 875.280 364.406   1
   0  -9  -5 445.448 323.768   1
   9  -9   5 447.340 280.388   1
  -9   0  -5 202.565 229.994   1
   9  -9  -5-220.295 279.421   1
   9   0   5 221.619 209.180   1
   0  -9   5 465.357 250.733   2
   0  -9  -6 2206.16 593.101   2
  -9   9  -6 2944.68 615.972   1
   9  -9   6 3267.15 624.300   1
  -9   0  -6 2499.71 569.478   2
  -9   9   6 1813.81 504.464   1
   0  -9  -6 1890.60 488.562   1
  -9   0  -6 1583.03 483.634   1
   0   9   6 2180.66 547.085   1
   9   0   6 2391.70 490.314   1
   0  -9   6 1754.73 490.425   2
   9  -9  -6 2617.42 561.940   1
   0  -9  -7 1025.17 365.343   2
  -9   9  -7 1045.86 347.672   1
   9  -9  -7 1084.02 385.463   1
  -9   0  -7 878.611 323.214   2
  -9   9   7 1555.55 486.211   1
   0  -9  -7 1182.10 427.833   1
  -9   0  -7 512.198 270.256   1
   9  -9   7 1218.47 421.618   1
   9   0   7 848.883 323.007   1
   0   9   7 814.318 376.181   1
   0  -9   7 403.597 280.051   2
  -9   9   8 210731. 5344.85   1
   9   0   8 210836. 5187.87   1
  -9   0  -8 215539. 5339.53   2
   0  -9  -8 224159. 5489.42   1
   9  -9  -8 208316. 5279.15   1
   0   9   8 216522. 5324.91   1
  -9   0  -8 214976. 5386.15   1
   0  -9   8 201273. 5304.69   2
  -9   9  -8 212016. 5300.55   1
   0  -9  -8 214501. 5304.28   2
   9  -9   8 207094. 5165.12   1
  -9   9  -9 808.254 413.143   1
   0  -9  -9 1044.35 452.968   2
  -9   0  -9 562.285 343.128   2
   9  -9   9 512.336 305.678   1
   9  -9  -9 341.194 251.209   1
  -9   9   9 784.983 410.705   1
   0  -9  -9 1365.41 529.796   1
   9   0   9 425.526 207.579   1
  -9   0  -9 1420.78 485.176   1
   0   9   9 329.744 242.704   1
   9  -9  10 2335.63 571.290   1
   0  -9 -10 2575.35 604.282   2
  -9   0 -10 1630.93 502.270   2
  -9   9  10 1858.67 511.529   1
   9  -9 -10 2334.12 574.351   1
   0  -9 -10 2398.56 565.854   1
   9   0  10 2409.63 567.760   1
  -9   0 -10 2677.49 524.188   1
   0   9  10 2101.55 512.273   1
  -9   9 -10 2351.98 580.228   1
   0  -9 -11 244.208 333.812   2
  -9   0 -11 320.842 327.922   2
  -9   9  11-354.701 360.978   1
   0  -9 -11 134.893 275.686   1
   9  -9 -11-66.5414 232.664   1
   9   0  11-29.1530 311.359   1
  -9   0 -11-305.972 332.486   1
   0   9  11-173.222 291.174   1
  -9   0 -12 306584. 6787.68   2
   0  -9 -12 318594. 6921.05   1
   0   9  12 317411. 6827.23   1
   9  -9 -12 309695. 6962.16   1
  -9   0 -12 321083. 6977.64   1
   0  -9 -12 312038. 6916.63   2
   9   0  12 324415. 6887.15   1
   0  -9 -13 745.383 364.523   2
   9  -9 -13 232.912 248.886   1
  -5  -5 -13 98.6318 343.965   2
  -5  -5 -12 681602. 11268.2   2
  -5  -5 -12 669620. 11291.6   1
   5   5  12 677329. 11159.9   1
  -5  -5 -11 519.975 397.035   2
   5   5  11 358.858 312.306   1
  -5  -5 -11 119.848 234.442   1
  -5  -5 -10 28664.7 1841.61   2
  -5  -5 -10 28976.8 1858.72   1
   5   5  10 28475.8 1812.49   1
   5 -10  10 25670.2 1767.12   2
  -5  -5  -9-256.118 350.593   2
   5   5   9 82.7019 276.163   1
  -5  -5  -9 223.306 349.405   1
   5 -10   9-2.04341 324.566   2
  10  -5  -8 75433.5 2946.01   1
  -5  -5  -8 79941.8 3054.21   1
   5   5   8 73857.6 2967.98   1
   5 -10   8 79928.6 3069.39   2
  -5  -5  -8 75988.3 2978.20   2
  10  -5  -7 161.282 333.151   1
 -10   5   7 298.491 325.438   1
  -5  -5  -7-60.7409 206.672   2
   5   5   7-7.06488 210.593   1
  -5  -5  -7-98.1714 308.356   1
   5 -10   7 286.921 306.154   2
  10  -5  -6 20707.0 1450.67   1
  -5  -5  -6 20847.4 1489.32   1
   5   5   6 19308.2 1441.86   1
 -10   5   6 18565.8 1394.04   1
   5 -10   6 18460.7 1385.89   2
  -5  -5  -6 18137.8 1434.98   2
 -10   5   5 63.2936 227.980   1
  -5  -5  -5-0.46099 225.442   2
   5   5   5 267.735 325.998   1
  -5  10  -5-216.714 288.107   1
  -5  -5  -5-30.5239 267.443   1
  10  -5  -5 396.504 302.497   1
   5 -10   5-104.587 224.658   2
   5 -10   5 87.3843 204.171   1
  -5  10  -4 197076. 4841.14   1
  10  -5  -4 196909. 4771.59   1
   5   5   4 187791. 4876.32   1
  -5  -5  -4 191863. 4905.49   1
   5 -10   4 194570. 4789.68   1
   5 -10   4 192549. 4847.88   2
 -10   5   4 193245. 4793.26   1
  -5  -5  -4 185959. 4843.86   2
 -10   5   3-8.71292 229.849   1
  -5  -5  -3-15.8135 235.906   2
   5 -10   3 163.830 220.728   1
   5   5   3 155.636 254.257   1
  -5  10  -3 347.994 297.418   1
  -5  -5  -3 336.808 295.426   1
  10  -5  -3 23.8784 251.822   1
   5 -10   3 392.365 295.979   2
  10  -5  -2 38600.0 1942.87   1
  -5  10  -2 39959.6 2007.84   1
   5 -10   2 41335.7 2024.24   1
  -5  -5  -2 39988.2 2027.03   1
   5   5   2 36861.4 1972.66   1
 -10   5   2 33958.5 1883.09   1
   5 -10   2 37015.3 2009.89   2
  -5  -5  -2 35261.4 1948.71   2
 -10   5   1 465.446 307.194   1
  -5  -5  -1 120.011 295.022   2
   5   5   1 51.6397 251.504   1
   5 -10   1 533.675 287.060   1
  -5  10  -1 251.119 283.350   1
  10  -5  -1 355.042 284.196   1
  -5  -5  -1 572.857 372.142   1
   5 -10   1 245.944 216.681   2
   5   5   0 999999. 14280.8   1
  -5  -5   1 139.100 239.855   2
  10  -5   1 691.860 257.130   1
   5   5  -1 388.025 295.786   1
   5 -10  -1 240.591 286.725   1
  -5  10   1 460.038 291.966   1
   5 -10  -1 562.067 295.180   2
 -10   5  -1 300.102 290.468   1
  -5  10   2 20042.0 1434.70   1
   5 -10  -2 18996.2 1428.43   1
 -10   5  -2 17455.0 1344.26   1
   5 -10  -2 19777.6 1451.91   2
  10  -5   2 17346.6 1304.56   1
  -5  -5   2 20386.1 1439.37   2
  -5  -5   3 337.278 272.483   2
   5 -10  -3 302.509 300.707   1
  -5  10   3 100.371 219.214   1
   5 -10  -3-399.617 344.268   2
  10  -5   3 45.9941 255.129   1
 -10   5  -3 112.315 230.868   1
  -5  10   4 220693. 5197.22   1
   5 -10  -4 213857. 5205.20   1
 -10   5  -4 219215. 5166.90   1
  10  -5   4 215028. 5098.28   1
   5 -10  -4 212167. 5167.45   2
   5 -10  -5 633.196 370.781   1
  -5  10   5-21.2376 250.225   1
  10  -5   5 499.073 251.627   1
   5 -10  -5 509.163 325.127   2
 -10   5  -5 343.751 290.872   1
   5 -10  -6 37457.8 2031.62   1
  -5  10   6 36486.7 1975.94   1
  10  -5   6 41140.4 2010.35   1
 -10   5  -6 36561.3 1945.67   1
   5 -10  -6 35861.7 2035.17   2
   5 -10  -7 207.452 276.766   1
  -5  10   7-178.986 237.419   1
  10  -5   7 602.175 368.074   1
 -10   5  -7 417.970 365.263   1
   5 -10  -7 107.549 307.399   2
   5 -10  -8 45912.9 2287.75   1
  -5  10   8 48691.7 2337.22   1
  10  -5   8 49470.2 2299.00   1
 -10   5  -8 44540.8 2241.05   1
   5 -10  -8 43416.7 2253.25   2
   5 -10  -9 64.2114 250.428   1
  10  -5   9 156.578 304.695   1
  -5  10   9 140.138 241.200   1
 -10   5  -9-182.944 399.738   1
   5 -10  -9 186.636 313.294   2
   5 -10 -10 14980.1 1299.12   1
  -5  10  10 14675.5 1289.83   1
  10  -5  10 16315.7 1305.98   1
 -10   5 -10 16686.7 1376.22   1
   5 -10 -10 15295.7 1396.00   2
  10  -5  11 145.514 291.428   1
   5 -10 -11 296.608 313.736   1
  -5  10  11 283.139 272.460   1
 -10   5 -11 803.737 355.570   1
  -5  10  12 842844. 13260.6   1
  10  -5  12 863997. 13395.0   1
 -10   5 -12 837169. 13333.7   1
  10  -5  13 375.033 352.651   1
   5 -10 -13-300.785 316.415   1
  -5  10  13 178.255 262.645   1
 -10   5 -13 223.225 192.567   1
 -10   5 -14 6032.04 896.905   1
  10  -5  14 6324.43 913.167   1
  -4  -6 -13 9166.19 1080.28   2
  -6  -4 -12 21003.7 1608.80   2
  -4  -6 -12 21758.0 1646.67   1
  -6  -4 -12 20894.2 1625.35   1
   4   6  12 23005.7 1650.19   1
   6   4  12 21066.3 1570.34   1
  -4  -6 -12 21978.8 1621.51   2
  -4  -6 -11 148904. 4435.87   1
  -6  -4 -11 145665. 4410.54   1
   4   6  11 150184. 4403.03   1
   4 -10  11 138656. 4387.90   2
   6   4  11 147319. 4333.09   1
  -4  -6 -11 143814. 4357.29   2
  -6  -4 -10 149640. 4398.02   2
  -4  -6 -10 152917. 4479.50   1
  -6  -4 -10 151298. 4450.86   1
   4   6  10 145535. 4353.51   1
   6   4  10 149072. 4300.68   1
  -4  -6 -10 153601. 4394.19   2
 -10   6   9 115083. 3797.33   1
  -6  -4  -9 112942. 3762.01   2
  -4  -6  -9 111994. 3743.71   1
  10  -6  -9 106199. 3596.37   1
  -6  -4  -9 117943. 3841.52   1
   4   6   9 113274. 3708.61   1
   6 -10   9 106091. 3668.24   2
   4 -10   9 111868. 3722.20   2
   6   4   9 107707. 3629.02   1
  -4  -6  -9 117213. 3795.90   2
  -6  -4  -8 17560.8 1452.41   2
  -4  -6  -8 16795.4 1395.66   1
  10  -6  -8 18100.0 1412.40   1
  -6  -4  -8 17757.0 1437.37   1
   4   6   8 15760.5 1339.28   1
   6 -10   8 15805.1 1388.69   2
   4 -10   8 17836.3 1410.45   2
   6   4   8 18928.1 1434.85   1
 -10   6   8 16638.8 1382.52   1
  -4  -6  -8 18386.1 1471.41   2
  -4  -6  -7 5057.98 781.232   2
   4   6   7 5483.68 806.133   1
 -10   6   7 3292.98 652.023   1
  -6  -4  -7 4789.56 767.074   2
   6   4   7 5361.34 778.199   1
  10  -4  -7 5941.17 783.861   1
  -6  -4  -7 5645.01 817.391   1
  -4  -6  -7 3525.52 681.122   1
  10  -6  -7 6065.46 780.116   1
   6 -10   7 4444.13 732.149   2
   4 -10   7 4036.94 689.643   2
  -6  -4  -6 87525.9 3204.56   2
  10  -6  -6 90077.1 3174.63   1
  -4  -6  -6 79995.4 3063.62   1
  -6  -4  -6 80854.4 3050.98   1
   4   6   6 77898.2 3053.78   1
   6 -10   6 81937.7 3112.11   2
   6 -10   6 84108.8 3044.55   1
   4 -10   6 85371.2 3099.45   2
 -10   4   6 83245.9 3075.31   1
   6   4   6 83466.8 3137.19   1
 -10   6   6 88498.4 3156.95   1
  10  -4  -6 89210.6 3077.03   1
  -6  10  -6 83410.9 3069.11   1
  -4  -6  -6 80450.8 3043.60   2
  -6  -4  -5 20547.0 1528.80   2
  10  -6  -5 23583.3 1572.01   1
  -4  -6  -5 21009.7 1518.04   1
  -6  -4  -5 21586.1 1581.02   1
   4   6   5 22245.8 1572.11   1
   6 -10   5 21328.5 1513.31   2
 -10   4   5 24208.8 1587.08   1
   4 -10   5 20290.0 1481.49   2
   6   4   5 20547.2 1545.49   1
 -10   6   5 20392.1 1468.43   1
  10  -4  -5 25205.6 1547.41   1
  -4  -6  -5 20540.7 1542.36   2
  -6  10  -5 26152.7 1611.99   1
   6 -10   5 22876.8 1544.79   1
  -4  -6  -4 2618.83 605.620   2
 -10   6   4 2370.86 527.695   1
   4   6   4 1928.30 468.996   1
  -6  -4  -4 1805.11 481.300   2
  10  -4  -4 2109.27 475.195   1
  -6  10  -4 2309.79 520.538   1
  -4  10  -4 2233.65 460.052   1
   6   4   4 2588.72 552.668   1
  10  -6  -4 2103.21 475.827   1
  -4  -6  -4 1508.83 422.954   1
  -6  -4  -4 2521.56 562.023   1
   4 -10   4 3200.39 581.597   1
   6 -10   4 2504.71 593.248   1
   6 -10   4 2469.28 571.618   2
   4 -10   4 3397.22 639.640   2
 -10   4   4 2393.78 481.725   1
  -6  10  -3 44062.2 2152.21   1
  -4  10  -3 47244.0 2209.26   1
  10  -6  -3 43947.6 2135.39   1
   6 -10   3 43969.8 2159.14   1
  -4  -6  -3 45948.2 2233.00   1
  -6  -4  -3 48083.3 2275.94   1
   4   6   3 45138.6 2223.85   1
 -10   4   3 48346.2 2235.69   1
   6 -10   3 42617.0 2145.72   2
   4 -10   3 44570.0 2131.33   2
   6   4   3 42663.4 2172.43   1
 -10   6   3 44147.2 2140.31   1
  10  -4  -3 50571.9 2238.07   1
  -4  -6  -3 40865.9 2141.95   2
  -6  -4  -3 45955.2 2254.78   2
  -6  10  -2 280838. 6026.29   1
  -4  10  -2 267859. 5852.63   1
   4 -10   2 286258. 6037.74   1
  10  -6  -2 292418. 6003.35   1
  10  -4  -2 274441. 5865.83   1
  -4  -6  -2 279213. 6015.67   1
  -6  -4  -2 293912. 6134.88   1
 -10   6   2 271245. 5859.61   1
   6 -10   2 283889. 6002.28   1
   4   6   2 284714. 6048.12   1
 -10   4   2 248843. 5670.06   1
   6 -10   2 268958. 5978.68   2
   4 -10   2 272933. 5953.00   2
   6   4   2 276919. 6000.22   1
  -4  -6  -2 263887. 5893.96   2
  -6  -4  -2 271917. 6064.71   2
  -6  10  -1 52860.6 2385.33   1
  10  -6  -1 50102.5 2278.77   1
  -4  10  -1 56077.7 2412.99   1
   4 -10   1 54197.5 2404.43   1
  -4  -6  -1 57004.5 2430.73   1
  -6  -4  -1 53755.4 2423.54   1
   4   6   1 55030.5 2412.31   1
 -10   4   1 52541.1 2344.30   1
  10  -4  -1 53317.2 2347.96   1
   4 -10   1 54790.4 2393.18   2
   6 -10   1 50579.5 2360.06   2
   6   4   1 52970.2 2398.41   1
   6 -10   1 50029.1 2319.17   1
  -4  -6  -1 56920.4 2462.22   2
  -6  -4  -1 56236.8 2453.25   2
 -10   6   1 55498.7 2380.02   1
  10  -6   0 51515.8 2261.91   1
  -6  10   0 56494.1 2449.99   1
  -4  10   0 55592.1 2415.59   1
   4 -10   0 57313.1 2501.34   1
   6 -10   0 55695.1 2440.73   1
  -4  -6   0 60500.9 2511.27   1
  -6  -4   0 60710.0 2538.44   1
   4   6   0 64320.7 2593.58   1
   6 -10   0 55525.1 2437.68   2
 -10   6   0 55378.3 2400.66   1
 -10   4   0 59098.0 2468.29   1
  10  -4   0 65904.7 2545.34   1
   4 -10   0 59340.3 2491.80   2
   6   4   0 61260.1 2546.16   1
  -4  -6   0 55799.7 2466.88   2
  -6  -4   0 58751.6 2509.02   2
  10  -6   1 118134. 3540.93   1
  -6  10   1 115650. 3648.87   1
  -4  10   1 118866. 3625.54   1
   4 -10  -1 116448. 3615.73   1
  -6  -4   1 123300. 3719.70   2
  -6  -4   1 116496. 3592.77   1
   4   6  -1 116063. 3584.56   1
 -10   4  -1 107564. 3441.74   1
  10  -4   1 123676. 3645.00   1
   6 -10  -1 118396. 3676.46   2
 -10   6  -1 120237. 3626.28   1
   4 -10  -1 122364. 3678.01   2
   6   4  -1 122962. 3690.02   1
  -4  -6   1 117624. 3619.65   2
  -6  10   2 295307. 6294.40   1
   6 -10  -2 307182. 6398.79   1
   4 -10  -2 306475. 6373.10   1
  -4  10   2 305931. 6339.21   1
  10  -4   2 282325. 6069.21   1
 -10   4  -2 311857. 6345.44   1
   6 -10  -2 296960. 6337.61   2
 -10   6  -2 325400. 6444.49   1
   4 -10  -2 301250. 6319.18   2
  -4  -6   2 304645. 6243.08   2
  -6  -4   2 305573. 6328.62   2
  10  -6   2 308852. 6221.35   1
  -6  10   3 54562.2 2433.04   1
   6 -10  -3 55646.2 2470.74   1
   4 -10  -3 56751.0 2497.47   1
  -4  10   3 56931.3 2448.33   1
  10  -4   3 56744.3 2392.87   1
 -10   4  -3 57464.3 2455.97   1
 -10   6  -3 56327.4 2414.97   1
   6 -10  -3 57292.9 2500.30   2
   4 -10  -3 59150.4 2550.02   2
  -4  -6   3 60109.1 2491.30   2
  10  -6   3 56944.8 2345.99   1
  -6  10   4 8959.78 971.498   1
   6 -10  -4 9975.41 993.572   1
   4 -10  -4 10287.2 1061.95   1
  10  -6   4 9354.34 959.574   1
  -4  10   4 9481.14 1011.23   1
  10  -4   4 10802.0 1020.94   1
 -10   4  -4 9578.52 989.781   1
 -10   6  -4 8833.64 937.327   1
   6 -10  -4 10172.4 1025.32   2
   4 -10  -4 10052.6 1054.35   2
  -4  -6   4 9223.74 984.420   2
  -6  10   5 38671.6 2038.33   1
   6 -10  -5 36206.7 2010.93   1
   4 -10  -5 34817.5 1971.63   1
  -4  10   5 38454.7 2025.99   1
   4 -10  -5 37617.4 2029.31   2
  10  -4   5 40899.9 1991.27   1
 -10   4  -5 37080.6 1954.94   1
 -10   6  -5 38649.2 2016.71   1
  10  -6   5 40281.6 2028.14   1
   6 -10  -5 39188.6 2092.22   2
  -6  10   6 49361.9 2319.95   1
   6 -10  -6 50072.8 2358.78   1
   4 -10  -6 43206.3 2219.03   1
  -4  10   6 46030.7 2235.80   1
  10  -4   6 45931.6 2187.15   1
 -10   4  -6 48704.7 2276.55   1
 -10   6  -6 48244.7 2263.80   1
  10  -6   6 48646.1 2255.48   1
   6 -10  -6 50099.3 2380.17   2
   4 -10  -6 45171.5 2262.07   2
  -6  10   7 67839.9 2768.97   1
   6 -10  -7 63881.7 2747.69   1
   4 -10  -7 68987.9 2805.52   1
  -4  10   7 67846.8 2754.87   1
  10  -4   7 65511.5 2661.05   1
 -10   4  -7 64586.7 2673.60   1
  10  -6   7 68577.9 2725.04   1
 -10   6  -7 69144.3 2772.81   1
   6 -10  -7 68844.0 2849.91   2
   4 -10  -7 68112.0 2813.00   2
  10  -4   8 885.368 327.509   1
   6 -10  -8 1005.85 401.165   1
   4 -10  -8 1002.53 364.973   1
  -6  10   8 386.047 379.943   1
  -4  10   8 1540.89 454.311   1
  10  -6   8 1111.69 418.913   1
 -10   4  -8 481.824 238.882   1
   6 -10  -8 521.808 268.348   2
 -10   6  -8 1022.41 474.125   1
   4 -10  -8 1425.81 462.954   2
  -6  10   9 7984.54 952.120   1
   6 -10  -9 8131.02 950.741   1
   4 -10  -9 9049.47 1033.99   1
  -4  10   9 9031.81 995.981   1
  10  -4   9 10283.9 1036.96   1
  10  -6   9 7185.13 899.512   1
 -10   4  -9 8512.05 955.789   1
 -10   6  -9 8303.83 982.718   1
   4 -10  -9 7842.57 926.136   2
  -6  10  10 284021. 6340.77   1
   6 -10 -10 302930. 6549.62   1
   4 -10 -10 294663. 6480.35   1
  -4  10  10 284411. 6289.05   1
  10  -4  10 289015. 6265.65   1
  10  -6  10 284328. 6309.09   1
 -10   4 -10 289569. 6390.26   1
 -10   6 -10 286598. 6371.83   1
  -6  10  11 16585.4 1389.02   1
   6 -10 -11 16378.6 1414.36   1
   4 -10 -11 18096.9 1461.67   1
  -4  10  11 16738.9 1392.55   1
  10  -4  11 18630.7 1466.51   1
  10  -6  11 15068.3 1309.19   1
 -10   4 -11 18487.1 1498.03   1
 -10   6 -11 15159.6 1354.15   1
   4 -10 -11 16855.2 1430.98   2
  -6  10  12 47045.6 2395.40   1
   6 -10 -12 51946.3 2556.89   1
   4 -10 -12 55884.3 2646.44   1
  10  -4  12 58642.2 2615.36   1
  -4  10  12 54097.8 2549.30   1
  10  -6  12 51669.0 2466.26   1
 -10   4 -12 54979.5 2598.48   1
 -10   6 -12 49921.8 2447.96   1
  -6  10  13 158179. 4602.69   1
   6 -10 -13 147141. 4494.93   1
  10  -4  13 147089. 4407.85   1
   4 -10 -13 141026. 4370.42   1
  -4  10  13 138963. 4255.81   1
  10  -6  13 142115. 4400.33   1
 -10   4 -13 148699. 4515.89   1
 -10   6 -13 131014. 4282.32   1
 -10   6 -14 78355.2 3278.96   1
  -3  -7 -12 3585.23 710.966   2
  -7  -3 -12 2002.43 518.252   2
   7   3  12 3533.97 675.432   1
  -3  -7 -12 2764.10 620.095   1
  -7  -3 -12 3098.63 683.766   1
   3 -10  12 2353.45 637.685   2
   3   7  12 3284.94 674.359   1
  -7  -3 -11 7724.04 974.699   2
  -7  -3 -11 6153.69 931.006   1
  -3  -7 -11 6843.89 910.335   1
   7   3  11 7191.12 927.021   1
   3 -10  11 5771.68 884.431   2
  -3  -7 -11 7024.67 947.553   2
   3   7  11 6946.21 889.784   1
  -7  -3 -10 218994. 5452.56   2
  -3  -7 -10 236010. 5744.66   1
  -7  -3 -10 240308. 5688.92   1
   3   7  10 220011. 5493.57   1
  10  -7 -10 213345. 5427.69   1
   3 -10  10 203651. 5471.93   2
   7   3  10 225809. 5539.41   1
 -10   7  10 194579. 5302.68   1
  -3  -7 -10 226259. 5507.44   2
  -7  -3  -9 39194.6 2163.41   2
  -3  -7  -9 43195.1 2233.07   1
  -7  -3  -9 37175.2 2148.07   1
   3   7   9 39125.1 2175.92   1
  10  -7  -9 43503.8 2246.40   1
   3 -10   9 40323.9 2213.31   2
   7   3   9 40038.5 2163.38   1
 -10   7   9 46333.5 2327.01   1
  -3  -7  -9 40036.1 2165.52   2
  -7  -3  -8 12786.1 1202.57   2
  -3  -7  -8 11459.1 1157.12   1
  -7  -3  -8 11858.9 1185.23   1
   3   7   8 12091.1 1201.99   1
  10  -7  -8 12432.1 1149.96   1
   3 -10   8 10871.1 1133.20   2
   7   3   8 11545.5 1195.06   1
 -10   7   8 13369.7 1268.03   1
  -3  -7  -8 12287.2 1209.21   2
  -7  -3  -7 216973. 5378.78   2
  -3  -7  -7 203691. 5270.81   1
   7 -10   7 220289. 5362.27   1
  -7  -3  -7 224728. 5436.25   1
  10  -7  -7 236785. 5458.72   1
   3   7   7 206691. 5302.30   1
   7 -10   7 224488. 5398.15   2
   3 -10   7 215178. 5300.90   2
   7   3   7 205144. 5248.69   1
  -7  10  -7 224577. 5419.18   1
 -10   7   7 218103. 5323.50   1
  -3  -7  -7 216609. 5334.03   2
  -7  -3  -6 144199. 4190.25   2
  -3  -7  -6 138915. 4176.73   1
  -7  -3  -6 135329. 4154.38   1
  10  -7  -6 131409. 3986.29   1
   7 -10   6 139553. 4084.35   1
   3   7   6 142449. 4198.56   1
  10  -3  -6 144058. 4072.59   1
   7 -10   6 137485. 4128.28   2
   3 -10   6 143878. 4183.16   2
   7   3   6 142475. 4169.59   1
 -10   7   6 138623. 4096.68   1
  -7  10  -6 138628. 4093.32   1
  -3  -7  -6 140284. 4126.77   2
  -7  -3  -5 67077.2 2778.79   2
  -3  -7  -5 68737.3 2815.65   1
  -7  -3  -5 66588.8 2798.13   1
  10  -7  -5 69528.2 2746.26   1
   3   7   5 64035.7 2761.43   1
   7 -10   5 69002.6 2732.53   1
  10  -3  -5 70998.2 2777.06   1
 -10   3   5 70999.0 2775.57   1
   7 -10   5 61664.2 2709.74   2
   3 -10   5 60582.0 2602.71   2
 -10   7   5 65014.7 2709.46   1
   7   3   5 63735.7 2757.24   1
  -7  10  -5 70715.2 2810.29   1
  -3  -7  -5 70097.4 2827.87   2
  -7  -3  -4 29119.4 1815.46   2
  -3  -7  -4 29095.8 1799.47   1
  10  -7  -4 29947.5 1767.00   1
  -7  -3  -4 28546.7 1801.27   1
   3   7   4 28084.0 1777.51   1
  10  -3  -4 29638.1 1753.51   1
 -10   3   4 27802.5 1685.10   1
   7 -10   4 30153.4 1807.16   2
   3 -10   4 28711.9 1754.71   2
   7 -10   4 29666.1 1757.72   1
 -10   7   4 29436.4 1755.89   1
   7   3   4 27581.7 1769.64   1
  -3  -7  -4 28884.9 1794.58   2
  -7  10  -4 31204.9 1844.61   1
  -3  -7  -3-18.8009 309.982   2
 -10   7   3 545.733 249.560   1
  -7  -3  -3 367.175 342.554   2
  -7  10  -3 989.364 350.561   1
   3 -10   3 510.436 304.708   1
  -3  10  -3 1231.03 426.746   1
   7   3   3 636.228 306.940   1
  -3  -7  -3 80.3392 243.787   1
   7 -10   3 437.071 249.524   1
  10  -7  -3 377.982 275.106   1
  -7  -3  -3 834.202 441.141   1
  10  -3  -3 581.265 314.521   1
   7 -10   3 987.923 447.210   2
   3 -10   3 805.853 354.685   2
 -10   3   3 101.551 277.736   1
   3   7   3 557.338 326.569   1
  -7  10  -2 187492. 4786.88   1
  -7  -3  -2 197691. 4882.01   2
  -3  10  -2 195737. 4804.65   1
   7 -10   2 175331. 4696.31   2
   3 -10   2 196938. 4867.36   1
   7 -10   2 183400. 4711.31   1
  10  -7  -2 174790. 4529.73   1
  -3  -7  -2 188719. 4830.50   1
  -7  -3  -2 178943. 4770.03   1
   3   7   2 191974. 4826.92   1
  10  -3  -2 186573. 4693.56   1
 -10   3   2 179909. 4636.43   1
   3 -10   2 172965. 4627.28   2
 -10   7   2 198399. 4849.72   1
  -3  -7  -2 187407. 4741.08   2
   7   3   2 180075. 4738.36   1
  -7  -3  -1 16752.9 1342.83   2
  -7  10  -1 18807.5 1405.69   1
  -3  10  -1 17743.4 1345.94   1
   3 -10   1 19320.1 1439.98   1
  10  -7  -1 16715.4 1307.36   1
  -3  -7  -1 18012.3 1408.87   1
   7 -10   1 16457.2 1345.21   1
  -7  -3  -1 16939.2 1363.56   1
   3   7   1 17002.9 1330.56   1
  10  -3  -1 14044.4 1196.69   1
 -10   3   1 17238.9 1343.03   1
   7 -10   1 19216.9 1428.38   2
   3 -10   1 16725.2 1310.68   2
 -10   7   1 17984.0 1372.03   1
  -3  -7  -1 16369.3 1315.37   2
   7   3   1 17850.6 1378.25   1
  -7  10   0 32724.9 1835.13   1
   3 -10   0 30539.7 1822.16   1
  -3  10   0 30335.8 1774.04   1
  10  -7   0 30082.1 1750.87   1
  -3  -7   0 30874.7 1832.01   1
  -7  -3   0 32001.5 1868.58   1
   3   7   0 30628.7 1797.80   1
   7 -10   0 33249.6 1842.16   1
  10  -3   0 33921.6 1840.47   1
 -10   3   0 32750.8 1814.08   1
  -3  -7   0 31983.9 1818.92   2
   7 -10   0 31192.9 1849.71   2
   3 -10   0 30883.9 1794.31   2
 -10   7   0 33537.5 1859.49   1
   7   3   0 32344.8 1841.38   1
  -7  -3   0 30121.2 1795.24   2
  -7  10   1 87167.9 3092.12   1
  10  -7   1 87603.3 3005.64   1
   3 -10  -1 85848.1 3081.01   1
  -3  10   1 74965.8 2903.37   1
  -7  -3   1 88306.9 3129.55   1
  10  -3   1 82898.0 2970.62   1
 -10   3  -1 84582.5 3047.63   1
   7 -10  -1 90169.8 3156.56   2
   7 -10  -1 79640.7 2981.65   1
   3 -10  -1 82717.3 3031.93   2
 -10   7  -1 88796.6 3086.27   1
  -3  -7   1 82662.9 3006.90   2
   7   3  -1 89159.7 3101.92   1
  -7  -3   1 84448.0 3038.31   2
  -7  10   2 141227. 4054.86   1
  10  -7   2 145396. 4015.51   1
   3 -10  -2 149845. 4181.92   1
  -3  10   2 143958. 4101.74   1
  10  -3   2 142276. 4013.88   1
 -10   3  -2 140970. 4074.71   1
   7 -10  -2 147845. 4195.65   2
 -10   7  -2 146972. 4082.08   1
   3 -10  -2 146687. 4118.64   2
  -3  -7   2 148649. 4129.05   2
   7 -10  -2 139143. 4059.81   1
  10  -7   3 92825.6 3155.55   1
  -7  10   3 97044.1 3281.19   1
   7 -10  -3 99214.2 3337.91   1
   3 -10  -3 94845.8 3320.44   1
  -3  10   3 95478.2 3249.13   1
  -3  -7   3 101882. 3357.62   2
  10  -3   3 89573.8 3148.20   1
 -10   3  -3 90385.4 3182.62   1
   7 -10  -3 96183.6 3358.76   2
 -10   7  -3 91526.8 3208.16   1
   3 -10  -3 95320.1 3252.72   2
 -10   7  -4 359.385 272.756   1
   7 -10  -4 574.625 308.146   1
   3 -10  -4 173.879 242.325   1
  -7  10   4 269.714 291.675   1
  10  -3   4 594.776 320.202   1
  10  -7   4 565.053 288.712   1
  -3  10   4 139.911 242.780   1
 -10   3  -4 348.827 284.564   1
   7 -10  -4 425.843 280.669   2
   3 -10  -4-24.3610 263.413   2
  -3  -7   4 150.270 287.410   2
  -7  10   5 57158.0 2527.27   1
   7 -10  -5 61202.4 2625.12   1
   3 -10  -5 58509.4 2581.04   1
  -3  -7   5 63201.0 2647.87   2
  -3  10   5 57566.6 2544.71   1
  10  -3   5 60754.9 2514.03   1
 -10   3  -5 54593.3 2471.15   1
   7 -10  -5 65594.4 2745.20   2
 -10   7  -5 63280.5 2643.38   1
   3 -10  -5 55418.0 2486.26   2
  10  -7   5 66599.5 2603.17   1
  -7  10   6 262730. 5877.06   1
   7 -10  -6 248887. 5827.28   1
   3 -10  -6 262149. 5919.24   1
  -3  10   6 266549. 5901.19   1
  10  -3   6 262796. 5834.48   1
 -10   3  -6 277682. 5965.40   1
 -10   7  -6 264179. 5905.56   1
   7 -10  -6 268430. 6053.83   2
  10  -7   6 251866. 5719.95   1
   3 -10  -6 259680. 5897.44   2
  -7  10   7 52603.8 2436.36   1
   7 -10  -7 55737.2 2494.94   1
   3 -10  -7 55331.2 2484.04   1
  -3  10   7 49861.9 2358.97   1
  10  -3   7 52063.2 2369.76   1
 -10   3  -7 53826.0 2458.55   1
 -10   7  -7 51517.9 2417.89   1
  10  -7   7 57557.3 2478.50   1
   7 -10  -7 52813.3 2560.54   2
   3 -10  -7 47541.1 2365.25   2
  -7  10   8 57381.8 2542.79   1
   7 -10  -8 55242.7 2541.78   1
   3 -10  -8 53529.5 2518.04   1
  -3  10   8 56880.9 2541.45   1
  10  -3   8 63246.8 2626.62   1
 -10   3  -8 56242.5 2539.44   1
  10  -7   8 60507.3 2562.97   1
 -10   7  -8 59141.2 2572.63   1
   3 -10  -8 53409.8 2508.42   2
  -7  10   9 84188.6 3143.38   1
   7 -10  -9 82693.9 3216.49   1
   3 -10  -9 90757.3 3288.95   1
  10  -3   9 89281.5 3198.70   1
  -3  10   9 90295.5 3233.89   1
 -10   3  -9 94535.6 3347.42   1
  10  -7   9 82470.7 3091.96   1
 -10   7  -9 87057.2 3240.57   1
   3 -10  -9 79745.5 3172.68   2
  -7  10  10 71521.6 2929.71   1
   7 -10 -10 73114.9 3007.39   1
   3 -10 -10 67961.5 2881.49   1
  10  -3  10 75866.2 3001.71   1
  -3  10  10 72686.9 2920.43   1
  10  -7  10 69928.1 2864.88   1
 -10   3 -10 71396.1 2921.94   1
 -10   7 -10 69303.4 2890.99   1
   3 -10 -10 69988.0 2964.81   2
  -7  10  11 25242.2 1731.52   1
   7 -10 -11 22902.6 1657.43   1
  10  -3  11 24799.1 1660.29   1
   3 -10 -11 22200.2 1639.59   1
  -3  10  11 23190.7 1646.13   1
  10  -7  11 22251.1 1597.49   1
 -10   3 -11 26843.9 1781.30   1
 -10   7 -11 25973.6 1751.29   1
   3 -10 -11 20665.3 1634.21   2
  -7  10  12 6393.86 883.832   1
  10  -3  12 7591.81 930.811   1
   7 -10 -12 6245.02 880.179   1
   3 -10 -12 7120.91 901.157   1
  10  -7  12 7107.96 945.309   1
 -10   3 -12 7469.41 982.089   1
  -3  10  12 7870.99 921.840   1
 -10   7 -12 5792.09 817.342   1
   3 -10 -12 6649.16 933.224   2
  10  -7  13 391.298 325.103   1
   7 -10 -13 599.731 395.028   1
  -7  10  13 451.159 226.164   1
 -10   7 -13 703.593 351.100   1
  -2  -8 -11 1621.33 487.905   2
  -8  -2 -11 681.144 281.155   2
  10  -8 -11 867.055 365.801   1
 -10   8  11 1068.65 418.158   1
   8   2  11 1380.18 513.741   1
  -2  -8 -11 1166.94 472.709   1
  -8  -2 -11 1766.70 545.218   1
   2   8  11 1475.61 514.612   1
  -2  -8 -10 3605.65 649.886   2
  -8  -2 -10 3970.59 705.608   2
  10  -8 -10 4188.55 719.367   1
 -10   8  10 3253.72 669.258   1
   8   2  10 4217.22 692.356   1
  -2  -8 -10 3673.84 719.389   1
  -8  -2 -10 4336.19 728.300   1
   2 -10  10 3897.35 756.203   2
   2   8  10 3828.01 688.212   1
  -8  -2  -9 8767.60 1027.37   2
  -2  -8  -9 7594.39 970.488   1
  -8  -2  -9 7717.85 960.940   1
   2   8   9 8652.95 1044.04   1
  10  -8  -9 9864.66 1092.77   1
   2 -10   9 6429.11 929.527   2
   8   2   9 9798.23 1055.93   1
  -2  -8  -9 9162.18 1014.27   2
 -10   8   9 7994.34 991.274   1
  -8  -2  -8 252156. 6006.70   2
   8 -10   8 254056. 6079.67   1
  -2  -8  -8 283575. 6315.99   1
  -8  -2  -8 278486. 6360.95   1
   2   8   8 290127. 6298.75   1
   2 -10   8 272926. 6238.85   2
  10  -8  -8 271315. 6167.76   1
  -8  10  -8 268282. 6213.67   1
  -2  -8  -8 279575. 6189.39   2
 -10   8   8 283768. 6246.05   1
   8   2   8 289111. 6291.52   1
  10  -8  -7 5026.86 783.145   1
  -2  -8  -7 4047.65 705.576   2
  -8  10  -7 6066.04 832.953   1
  -8  -2  -7 5056.51 802.208   2
 -10   8   7 6344.55 851.262   1
   8 -10   7 5575.02 828.065   1
  -2  -8  -7 3943.08 707.948   1
   8   2   7 4835.23 753.500   1
  -8  -2  -7 4436.45 725.167   1
   2 -10   7 3820.09 716.107   2
   2   8   7 4620.64 732.733   1
  10  -8  -6 176.632 276.784   1
  -2  -8  -6 20.1104 274.370   2
  -8  10  -6 248.581 261.567   1
  -8  -2  -6 467.938 338.580   2
 -10   8   6 432.949 329.202   1
  -2  -8  -6-36.9012 242.362   1
   8   2   6 425.795 370.443   1
   8 -10   6 149.506 250.461   1
  -8  -2  -6-17.6492 239.375   1
   2 -10   6 242.847 296.617   2
   2   8   6 189.631 264.502   1
  -8  -2  -5 20925.5 1507.90   2
  -2  -8  -5 16921.2 1416.30   1
  -8  -2  -5 19404.8 1492.04   1
   2   8   5 19837.3 1494.20   1
   8 -10   5 18129.5 1374.89   1
  10  -8  -5 17178.0 1357.47   1
   2 -10   5 19498.5 1418.72   2
  -8  10  -5 18237.8 1427.30   1
  -2  -8  -5 17802.1 1465.87   2
 -10   8   5 18265.6 1427.53   1
   8   2   5 19717.2 1487.50   1
  -8  -2  -4 282993. 6251.08   2
  -2  -8  -4 272239. 6183.85   1
   2   8   4 273027. 6156.53   1
  -8  -2  -4 277100. 6214.23   1
  10  -2  -4 301840. 6284.08   1
  10  -8  -4 285079. 6094.29   1
   8 -10   4 275838. 6057.00   1
 -10   2   4 294188. 6218.47   1
   8 -10   4 274666. 6167.30   2
   2 -10   4 275761. 6115.82   2
  -2  -8  -4 276742. 6186.57   2
 -10   8   4 297802. 6254.78   1
  -8  10  -4 266186. 6069.61   1
   8   2   4 276424. 6161.48   1
  -2  -8  -3 711.533 325.919   2
   8 -10   3 1479.04 447.757   1
  -8  -2  -3 1088.18 417.648   2
 -10   8   3 2011.02 426.337   1
  -8  10  -3 1589.85 493.353   1
  10  -2  -3 1694.07 392.543   1
  -2  -8  -3 1692.87 497.898   1
   8   2   3 964.679 370.950   1
  -8  -2  -3 1482.70 450.664   1
   8 -10   3 970.544 398.799   2
  10  -8  -3 1212.57 428.743   1
 -10   2   3 1985.77 520.852   1
   2   8   3 1418.13 467.491   1
   2 -10   3 1709.63 434.928   2
   8   2   2 18184.6 1430.44   1
  -8  -2  -2 18512.5 1480.05   2
   2 -10   2 17968.8 1370.43   1
  -2  10  -2 17928.5 1380.27   1
  -2  -8  -2 18424.9 1459.15   1
   2   8   2 20262.7 1461.19   1
  10  -2  -2 19531.8 1390.21   1
  10  -8  -2 16877.3 1331.24   1
  -8  -2  -2 15861.5 1353.45   1
 -10   2   2 19391.9 1441.64   1
   8 -10   2 17748.7 1436.43   2
   2 -10   2 17979.3 1367.70   2
 -10   8   2 18401.9 1401.64   1
  -2  -8  -2 18894.0 1429.67   2
   8 -10   2 18941.5 1423.45   1
  -8  10  -2 19537.8 1411.94   1
  -2  -8  -1 3100.14 630.357   2
  -8  -2  -1 3792.75 688.679   2
 -10   8   1 4371.61 677.712   1
  -8  10  -1 4113.41 656.275   1
   2 -10   1 3439.66 597.211   1
  10  -2  -1 4659.11 684.022   1
  -2  -8  -1 3703.95 689.263   1
  -2  10  -1 3885.94 653.230   1
   8 -10   1 4032.01 693.970   1
   8   2   1 4840.49 764.956   1
  10  -8  -1 4724.75 747.458   1
  -8  -2  -1 3071.23 604.565   1
   8 -10   1 4009.95 702.234   2
   2   8   1 3793.56 651.633   1
 -10   2   1 4644.26 722.555   1
   2 -10   1 5500.49 768.708   2
  -8  10   0 267580. 5978.47   1
  -8  -2   0 269080. 6064.74   2
   8   2   0 271203. 6111.80   1
   8 -10   0 282665. 6052.48   1
   2 -10   0 286932. 6188.93   1
  -2  10   0 268590. 5966.29   1
  -2  -8   0 272697. 6057.03   1
  10  -8   0 269607. 5911.54   1
   2   8   0 279349. 6087.41   1
  10  -2   0 275809. 5991.39   1
  -8  -2   0 280714. 6153.46   1
 -10   2   0 288377. 6094.53   1
   8 -10   0 282717. 6226.20   2
   2 -10   0 270901. 5985.51   2
 -10   8   0 274247. 6015.82   1
  -2  -8   0 276575. 6020.23   2
  -2  -8   1 425.662 322.395   2
   8 -10  -1 436.556 349.684   1
 -10   8  -1 134.335 249.621   1
 -10   2  -1-39.1907 226.427   2
  -8  10   1 10.9339 210.712   1
  10  -2   1 519.970 302.962   1
   2 -10  -1 404.128 276.543   1
  10  -8   1 456.600 347.806   1
  -2  10   1 395.119 289.576   1
   8   2  -1 381.721 363.544   1
  -8  -2   1 189.428 276.730   1
   8 -10  -1 603.845 403.183   2
 -10   2  -1 311.574 285.162   1
   2 -10  -1 4.09475 235.303   2
  -8  10   2 30052.2 1806.47   1
 -10   2  -2 29817.1 1824.95   2
   2 -10  -2 28991.1 1800.22   1
  10  -8   2 33209.7 1830.25   1
  -2  10   2 30586.4 1796.06   1
   8 -10  -2 31290.7 1803.43   1
  10  -2   2 32333.9 1842.66   1
 -10   2  -2 29133.9 1747.67   1
   8 -10  -2 29680.6 1856.58   2
   2 -10  -2 30747.4 1822.70   2
 -10   8  -2 29312.0 1770.33   1
  -2  -8   2 29139.1 1780.78   2
  -8  10   3 8852.60 919.571   1
 -10   2  -3 5648.09 826.389   2
  10  -8   3 8438.60 922.388   1
  10  -2   3 5387.71 768.274   1
  -2  10   3 6285.89 833.778   1
   2 -10  -3 5504.24 803.063   1
   8 -10  -3 7505.89 889.168   1
   8 -10  -3 7565.40 925.134   2
 -10   8  -3 7867.01 893.000   1
 -10   2  -3 5723.48 811.443   1
   2 -10  -3 5991.79 798.964   2
  -2  -8   3 5886.59 812.260   2
  -8  10   4 357317. 7185.56   1
  10  -8   4 362355. 7074.27   1
   2 -10  -4 370166. 7342.20   1
  -2  10   4 356521. 7212.84   1
  10  -2   4 365626. 7171.39   1
 -10   2  -4 388543. 7388.63   1
   8 -10  -4 368475. 7182.05   1
   8 -10  -4 377201. 7508.49   2
 -10   8  -4 356417. 7170.38   1
  -2  -8   4 376473. 7376.85   2
   2 -10  -4 365316. 7200.32   2
 -10   8  -5 858.856 411.041   1
  10  -2   5 519.729 409.379   1
   8 -10  -5-3.69415 214.789   1
  -8  10   5 68.2260 284.338   1
   2 -10  -5 287.600 258.458   1
  10  -8   5 365.959 272.324   1
  -2  10   5-93.0170 264.679   1
 -10   2  -5 339.531 257.014   1
   8 -10  -5 184.246 250.959   2
  -2  -8   5-42.5377 281.130   2
   2 -10  -5-51.5401 259.335   2
 -10   8  -6 3547.42 637.894   1
  10  -2   6 3695.03 638.411   1
  -8  10   6 2870.02 588.073   1
  10  -8   6 3175.39 596.616   1
   2 -10  -6 2786.83 575.287   1
   8 -10  -6 3822.23 673.073   1
  -2  10   6 3233.30 638.272   1
  -2  -8   6 1773.00 434.808   2
   2 -10  -6 2711.74 518.409   2
 -10   2  -6 3645.04 686.867   1
   8 -10  -7 12685.3 1189.21   1
  -8  10   7 14000.9 1263.53   1
   2 -10  -7 12814.4 1236.60   1
  10  -2   7 13584.4 1199.18   1
  -2  10   7 14378.4 1267.00   1
 -10   2  -7 13414.2 1245.97   1
 -10   8  -7 13132.9 1170.21   1
  10  -8   7 12874.3 1197.98   1
   2 -10  -7 13014.5 1192.80   2
  -8  10   8 235065. 5655.84   1
   8 -10  -8 244057. 5735.68   1
  10  -2   8 240610. 5630.16   1
   2 -10  -8 243371. 5763.50   1
  -2  10   8 227767. 5564.40   1
 -10   2  -8 235472. 5709.71   1
   2 -10  -8 233843. 5675.52   2
 -10   8  -8 243900. 5710.07   1
  10  -8   8 238862. 5635.27   1
   8 -10  -9 312.468 362.212   1
  -8  10   9 424.317 285.657   1
   2 -10  -9 475.591 351.654   1
  -2  10   9 188.873 305.697   1
 -10   2  -9 481.136 370.657   1
  10  -8   9-51.6615 267.845   1
  10  -2   9 187.484 250.407   1
 -10   8  -9 250.812 244.612   1
   2 -10  -9 546.561 390.738   2
  -8  10  10 851.486 453.658   1
   2 -10 -10 648.020 358.268   1
   8 -10 -10 425.090 283.615   1
  -2  10  10 756.890 456.614   1
  10  -8  10 539.017 397.234   1
 -10   2 -10 271.842 272.895   1
  10  -2  10 744.195 325.042   1
 -10   8 -10 723.749 407.054   1
   2 -10 -10 442.529 256.064   2
   2 -10 -11 82.0910 297.064   2
  -8  10  11 485.825 267.432   1
   2 -10 -11-32.3410 306.587   1
  10  -8  11 96.7417 281.460   1
  -2  10  11 982.810 424.357   1
 -10   2 -11 477.747 274.955   1
  10  -2  11 905.731 388.279   1
 -10   8 -11 614.241 410.114   1
   8 -10 -11 429.902 372.550   1
  -8  10  12 144014. 4446.20   1
  10  -8  12 130652. 4272.67   1
 -10   8 -12 131701. 4347.64   1
   2 -10 -12 130829. 4347.82   2
   2 -10 -13 1553.14 523.466   2
 -10   9  11 2997.60 685.667   1
  10  -9 -11 3238.60 674.063   1
  10  -9 -10 213106. 5555.74   1
  -9  -1 -10 246116. 5746.98   2
  -1  -9 -10 228104. 5629.24   1
   1   9  10 227452. 5594.46   1
  -9  -1 -10 223553. 5673.15   1
  -1  -9 -10 222480. 5640.48   2
   9   1  10 226469. 5570.18   1
 -10   9  10 205091. 5449.87   1
  -9  -1  -9 35982.7 1994.44   2
  -1  -9  -9 30862.0 1940.05   1
   1   9   9 31730.7 1961.59   1
  -9  -1  -9 33799.8 2016.43   1
   1 -10   9 28048.5 1891.24   2
  -9  10  -9 25436.5 1814.68   1
  -1  -9  -9 29560.7 1903.90   2
 -10   9   9 28401.8 1828.30   1
   9   1   9 30292.1 1902.20   1
  10  -9  -9 29916.2 1856.89   1
  -1  -9  -8 1613.62 532.352   2
  -9  10  -8 1123.78 397.747   1
  -9  -1  -8 1902.86 516.135   2
 -10   9   8 1260.57 408.028   1
  10  -9  -8 977.979 358.115   1
  -1  -9  -8 2474.08 576.484   1
   9   1   8 1316.45 439.685   1
   9 -10   8 1207.46 402.444   1
  -9  -1  -8 1465.76 486.252   1
   1   9   8 2345.95 562.796   1
   1 -10   8 2055.72 570.677   2
   9   1   7 94776.3 3407.09   1
  -9  -1  -7 94675.0 3423.33   2
   9 -10   7 88596.3 3290.90   1
  -1  -9  -7 94313.2 3440.83   1
   1   9   7 98363.4 3479.51   1
  -9  -1  -7 92108.7 3394.33   1
   1 -10   7 85048.8 3267.38   2
  -9  10  -7 89057.3 3334.56   1
  -1  -9  -7 95981.6 3388.51   2
  10  -9  -7 100149. 3407.88   1
 -10   9   7 94805.7 3390.19   1
   9   1   6 16453.2 1327.72   1
  -9  -1  -6 15975.0 1351.14   2
   9 -10   6 15155.9 1319.94   1
  -1  -9  -6 14788.5 1329.07   1
   1   9   6 15311.6 1327.13   1
  -9  -1  -6 14017.4 1282.68   1
   1 -10   6 14493.7 1325.46   2
  -9  10  -6 14333.3 1298.92   1
  10  -9  -6 14538.0 1273.35   1
  -1  -9  -6 13715.3 1245.88   2
 -10   9   6 17484.0 1378.74   1
  -9  -1  -5 9432.14 1031.85   2
   9   1   5 10571.4 1122.94   1
  -1  -9  -5 9889.86 1059.02   1
   9 -10   5 11379.7 1110.97   1
   1   9   5 9409.93 1084.36   1
  -9  -1  -5 11800.6 1180.06   1
   1 -10   5 8579.41 993.259   2
  10  -9  -5 11415.0 1130.93   1
  -9  10  -5 12356.2 1146.88   1
  -1  -9  -5 11859.1 1141.04   2
 -10   9   5 10933.4 1100.48   1
  -9  -1  -4 40802.4 2162.33   2
   9   1   4 41105.6 2165.30   1
  -1  -9  -4 38145.3 2123.96   1
   1   9   4 38062.5 2108.11   1
   9 -10   4 37349.9 2056.52   1
  -9  -1  -4 39821.3 2157.15   1
  10  -9  -4 40894.6 2089.39   1
   1 -10   4 39285.0 2095.49   2
  -1  -9  -4 38370.2 2066.16   2
  -9  10  -4 37640.6 2074.95   1
 -10   9   4 39277.0 2081.98   1
  -9  -1  -3 27925.4 1800.99   2
   9   1   3 27817.3 1746.70   1
  -1  -9  -3 25446.3 1718.60   1
  10  -1  -3 30666.8 1821.27   1
   1   9   3 26722.1 1761.52   1
  -9  -1  -3 27289.0 1776.57   1
   9 -10   3 30364.1 1784.42   1
  10  -9  -3 29269.2 1772.70   1
   1 -10   3 27486.7 1751.72   2
  -1  -9  -3 30311.1 1796.51   2
  -9  10  -3 27715.6 1725.04   1
 -10   9   3 26925.6 1712.30   1
  -9  -1  -2 255115. 5931.21   2
   9   1   2 250541. 5867.27   1
  -1  -9  -2 259021. 6069.44   1
  10  -1  -2 250165. 5811.05   1
   1   9   2 259770. 5982.89   1
  -9  -1  -2 256829. 5921.78   1
 -10   1   2 265028. 6006.29   1
  10  -9  -2 256492. 5746.49   1
   9 -10   2 263041. 5852.60   1
   1 -10   2 249806. 5805.66   2
  -1  -9  -2 262614. 5892.71   2
 -10   9   2 272719. 5948.11   1
  -9  10  -2 264303. 5948.52   1
  -9  -1  -1 127228. 3950.96   2
   9   1   1 114861. 3706.97   1
  -1  10  -1 114875. 3712.38   1
  -1  -9  -1 116625. 3825.62   1
  10  -1  -1 128139. 3895.67   1
   1   9   1 119916. 3821.04   1
  -9  -1  -1 119875. 3823.04   1
  10  -9  -1 114193. 3594.54   1
 -10   1   1 121012. 3797.20   1
   9 -10   1 107328. 3687.62   2
   9 -10   1 109864. 3590.72   1
   1 -10   1 119644. 3743.49   2
  -1  -9  -1 117338. 3721.32   2
 -10   9   1 122407. 3747.07   1
  -9  10  -1 111889. 3619.83   1
   9   1   0 34253.0 1968.64   1
   1 -10   0 33205.0 1959.56   1
  -1  10   0 30546.8 1863.44   1
  10  -1   0 33907.6 1950.82   1
   1   9   0 34543.0 1988.60   1
  10  -9   0 32920.8 1880.78   1
  -9  -1   0 36422.2 2048.57   1
 -10   1   0 32917.0 1934.44   1
   9 -10   0 30408.6 1930.31   2
   1 -10   0 32715.0 1906.85   2
   9 -10   0 32209.5 1870.77   1
  -1  -9   0 32521.4 1885.33   2
 -10   9   0 30407.1 1819.69   1
  -9  10   0 31297.4 1835.85   1
   9   1  -1 82252.3 3066.93   1
   1 -10  -1 73535.9 2965.62   1
  10  -1   1 78215.1 3005.37   1
  -1  10   1 78345.1 3017.47   1
  10  -9   1 78255.0 2958.93   1
  -9  -1   1 85255.9 3160.52   1
 -10   1  -1 73732.4 2942.23   1
   9 -10  -1 78708.5 3092.57   2
   1 -10  -1 77485.3 2987.71   2
  -1  -9   1 75901.7 2955.92   2
 -10   9  -1 74512.4 2917.26   1
  -9  10   1 79346.1 2979.07   1
   9 -10  -1 78197.9 2963.06   1
 -10   1  -2 238969. 5754.80   2
   9 -10  -2 260970. 5737.19   1
   1 -10  -2 233324. 5665.97   1
  10  -1   2 249921. 5727.25   1
  -1  10   2 247725. 5744.87   1
  10  -9   2 251192. 5633.28   1
 -10   1  -2 228424. 5592.99   1
   9 -10  -2 241166. 5865.42   2
  -1  -9   2 244792. 5691.42   2
   1 -10  -2 236985. 5589.60   2
 -10   9  -2 252582. 5738.09   1
  -9  10   2 236436. 5569.83   1
 -10   1  -3 64225.0 2738.10   2
   9 -10  -3 57758.2 2531.05   1
   1 -10  -3 56184.6 2574.42   1
  10  -1   3 60927.1 2610.71   1
  10  -9   3 59109.8 2526.67   1
  -1  10   3 57794.6 2613.43   1
 -10   1  -3 62034.2 2674.08   1
   9 -10  -3 55837.3 2702.36   2
  -1  -9   3 58570.2 2578.13   2
 -10   9  -3 55498.8 2499.29   1
   1 -10  -3 59916.3 2570.01   2
  -9  10   3 59943.7 2588.96   1
 -10   9  -4 708.575 396.250   1
 -10   1  -4 708.866 356.763   2
  10  -9   4 788.496 373.351   1
  -9  10   4 671.175 351.774   1
   1 -10  -4 646.477 366.422   1
  -1  10   4 466.162 309.872   1
 -10   1  -4 759.733 376.510   1
   9 -10  -4 869.394 396.675   1
   9 -10  -4 116.795 225.746   2
  -1  -9   4 370.161 320.913   2
  10  -1   4 934.800 356.828   1
   1 -10  -4 479.312 319.145   2
  -9  10   5 15129.7 1297.72   1
 -10   1  -5 15339.8 1366.48   2
  10  -9   5 16187.8 1328.07   1
  10  -1   5 14572.4 1272.96   1
   1 -10  -5 15496.0 1350.36   1
   9 -10  -5 15091.5 1295.77   1
  -1  10   5 16024.1 1366.47   1
 -10   1  -5 18663.0 1421.89   1
  -1  -9   5 14878.6 1293.29   2
 -10   9  -5 14057.1 1244.51   1
   1 -10  -5 13672.2 1267.63   2
  -9  10   6 41686.7 2191.20   1
  10  -9   6 38580.5 2074.37   1
 -10   1  -6 38289.6 2102.00   2
  10  -1   6 44388.9 2228.32   1
   1 -10  -6 39289.6 2168.41   1
  -1  10   6 37683.7 2091.84   1
   9 -10  -6 41640.6 2177.86   1
 -10   1  -6 38024.6 2110.00   1
 -10   9  -6 43547.1 2200.06   1
  -1  -9   6 39265.4 2166.53   2
   1 -10  -6 40786.7 2131.75   2
  -9  10   7 8172.76 974.312   1
 -10   1  -7 7688.84 963.719   2
  10  -1   7 7891.41 945.679   1
   1 -10  -7 8065.34 983.521   1
  -1  10   7 7844.35 958.976   1
  10  -9   7 7833.85 886.648   1
   9 -10  -7 7879.60 964.472   1
 -10   1  -7 8371.11 1014.73   1
 -10   9  -7 8159.48 948.272   1
   1 -10  -7 9502.26 1056.98   2
  -1  -9   7 7719.58 955.543   2
  -9  10   8 47351.0 2343.83   1
 -10   1  -8 45867.2 2324.23   2
  10  -1   8 47908.2 2340.52   1
   1 -10  -8 44563.7 2337.23   1
  -1  10   8 48025.7 2352.38   1
   9 -10  -8 44638.5 2281.88   1
 -10   1  -8 49052.4 2422.53   1
 -10   9  -8 41880.2 2263.13   1
  10  -9   8 40313.9 2168.34   1
   1 -10  -8 48955.9 2391.89   2
  -9  10   9 100920. 3590.47   1
 -10   1  -9 110084. 3696.42   2
  10  -1   9 112034. 3630.76   1
   1 -10  -9 112705. 3756.34   1
  -1  10   9 104171. 3604.81   1
 -10   1  -9 110999. 3700.22   1
   9 -10  -9 104358. 3580.67   1
 -10   9  -9 98029.2 3551.21   1
  10  -9   9 91384.1 3426.09   1
   1 -10  -9 103934. 3626.35   2
  -9  10  10 118357. 3955.64   1
  10  -1  10 130440. 3969.09   1
 -10   1 -10 114469. 3827.70   2
   1 -10 -10 120153. 3936.86   1
  -1  10  10 115396. 3829.56   1
 -10   1 -10 119258. 3875.04   1
   9 -10 -10 126173. 4013.75   1
 -10   9 -10 112709. 3869.86   1
  10  -9  10 116632. 3889.35   1
   1 -10 -10 116759. 3913.54   2
  -9  10  11 75129.5 3136.09   1
   9 -10 -11 69942.6 3014.36   1
 -10   9 -11 70332.8 3053.78   1
   1 -10 -11 78963.8 3191.07   2
  10   0   0 34590.8 2052.51   1
   0  10   0 35888.9 2085.02   1
 -10   0   0 35887.5 2084.09   1
  10 -10   0 44570.5 2162.56   1
   0 -10   0 37973.6 2082.38   2
 -10  10   0 43547.5 2172.41   1
  10   0   1 111907. 3717.32   1
  10   0  -1 111356. 3740.60   1
   0 -10  -1 101075. 3671.66   1
   0  10   1 108112. 3717.94   1
  10 -10   1 124259. 3806.75   1
 -10   0  -1 104810. 3705.11   1
 -10   0   1 109824. 3756.37   1
  10 -10  -1 119626. 3724.93   1
   0 -10   1 123140. 3826.75   2
   0 -10  -1 110136. 3656.80   2
 -10  10  -1 121407. 3782.31   1
 -10  10   1 116577. 3716.28   1
  10   0   2 282519. 6297.11   1
   0 -10  -2 267985. 6301.35   1
   0  10   2 284728. 6408.39   1
  10 -10   2 290498. 6229.25   1
 -10   0  -2 254373. 6117.54   1
  10 -10  -2 299752. 6297.86   1
   0 -10   2 270947. 6188.07   2
   0 -10  -2 284056. 6215.92   2
 -10  10  -2 289602. 6287.71   1
 -10  10   2 290708. 6239.68   1
 -10   0  -3 30152.6 1920.30   2
  10   0   3 34998.1 1966.99   1
   0 -10  -3 29644.8 1874.37   1
   0  10   3 32583.0 1969.97   1
  10 -10   3 36568.4 1988.42   1
 -10   0  -3 30115.0 1897.19   1
   0 -10   3 33933.3 1976.61   2
  10 -10  -3 36590.3 1992.51   1
   0 -10  -3 33660.1 1957.42   2
 -10  10  -3 37697.9 2043.44   1
 -10  10   3 40643.9 2118.13   1
  10   0   4 7445.28 938.483   1
 -10   0  -4 5810.79 876.733   2
  10 -10   4 6072.16 829.203   1
   0 -10  -4 6200.33 885.348   1
   0  10   4 6205.62 836.764   1
 -10   0  -4 6401.59 868.931   1
 -10  10  -4 7060.40 924.627   1
  10 -10  -4 7042.96 872.755   1
   0 -10   4 5849.15 832.045   2
 -10  10   4 8289.04 973.164   1
   0 -10  -4 7550.67 958.723   2
 -10   0  -5 11818.7 1236.44   2
  10   0   5 15624.1 1313.71   1
  10 -10   5 13755.7 1282.68   1
   0 -10  -5 12226.4 1241.01   1
   0  10   5 14057.0 1296.08   1
 -10   0  -5 14744.4 1318.48   1
   0 -10   5 12648.5 1229.98   2
 -10  10  -5 14303.8 1284.72   1
   0 -10  -5 13754.9 1265.09   2
 -10  10   5 15417.6 1326.17   1
  10 -10  -5 13060.7 1218.66   1
  10 -10  -6 9601.21 1058.34   1
 -10   0  -6 9462.81 1098.94   2
  10   0   6 9324.72 1057.17   1
  10 -10   6 8662.94 1017.90   1
   0 -10  -6 8926.68 1049.33   1
   0  10   6 9280.73 1060.86   1
 -10   0  -6 9208.85 1073.76   1
   0 -10   6 9645.52 1092.89   2
 -10  10  -6 9730.89 1086.27   1
   0 -10  -6 9102.07 1042.91   2
 -10  10   6 8690.04 1009.28   1
  10 -10   7 28024.4 1817.88   1
  10   0   7 29816.8 1870.50   1
 -10   0  -7 27446.0 1848.77   2
  10 -10  -7 29988.2 1867.92   1
   0 -10  -7 27850.6 1860.65   1
   0  10   7 29520.1 1873.34   1
 -10   0  -7 28725.7 1849.35   1
   0 -10   7 25283.1 1790.16   2
 -10  10  -7 28848.6 1843.05   1
   0 -10  -7 29981.0 1890.40   2
 -10  10   7 31244.2 1915.94   1
   0 -10  -8 3493.61 717.421   2
 -10  10  -8 3959.41 742.394   1
 -10   0  -8 3482.22 655.366   2
 -10  10   8 4090.67 724.430   1
  10 -10   8 3391.39 650.782   1
   0 -10  -8 3921.62 754.676   1
  10 -10  -8 5010.90 768.406   1
  10   0   8 2474.43 594.962   1
 -10   0  -8 3320.32 650.364   1
   0  10   8 3079.51 658.620   1
 -10   0  -9 40463.6 2228.72   2
  10 -10  -9 45643.2 2353.49   1
 -10  10  -9 40111.5 2274.82   1
  10 -10   9 41171.4 2269.04   1
   0 -10  -9 40348.5 2246.67   2
 -10  10   9 41728.6 2274.60   1
   5 -11  11 19139.0 1585.51   2
  -5  -6 -10 175514. 4881.01   1
  -6  -5 -10 171568. 4853.26   1
   5   6  10 179447. 4838.90   1
   6   5  10 165121. 4676.59   1
   5 -11  10 152259. 4674.92   2
  -5  -6 -10 164363. 4709.55   2
  -6  -5 -10 164492. 4761.57   2
  -5  -6  -9 51262.2 2495.54   1
  -6  -5  -9 50306.5 2508.17   1
   5   6   9 49637.1 2457.38   1
   6   5   9 46367.2 2397.37   1
   6 -11   9 49011.6 2491.98   2
   5 -11   9 51391.0 2527.23   2
  -5  -6  -9 54288.4 2529.39   2
  -6  -5  -9 48758.1 2470.72   2
  11  -6  -8 985.368 368.785   1
  -5  -6  -8 1417.26 492.903   2
  -6  -5  -8 1089.16 423.627   2
   5   6   8 752.077 384.900   1
   6   5   8 1025.00 367.698   1
  -5  -6  -8 1149.04 439.473   1
  -6  -5  -8 1013.90 392.620   1
   6 -11   8 766.689 357.063   2
   5 -11   8 1496.69 487.542   2
  11  -6  -7 32577.8 1921.21   1
  -5  -6  -7 31620.5 1921.93   1
  -6  -5  -7 27761.5 1848.81   1
   5   6   7 28855.6 1867.00   1
   6   5   7 30074.7 1855.77   1
   6 -11   7 32053.0 1948.03   2
   5 -11   7 31497.1 1899.78   2
 -11   6   7 30395.9 1889.45   1
  11  -5  -7 27631.4 1780.60   1
  -5  -6  -7 31423.0 1939.15   2
  -6  -5  -7 29278.5 1899.68   2
  11  -6  -6 60377.4 2620.57   1
  -5  -6  -6 55051.5 2636.48   1
  -6  -5  -6 56806.0 2648.34   1
   5   6   6 55518.1 2604.63   1
   6   5   6 57207.9 2630.86   1
   6 -11   6 60789.2 2689.69   2
   5 -11   6 60803.7 2676.76   2
 -11   5   6 59692.2 2688.03   1
 -11   6   6 59433.9 2665.57   1
  11  -5  -6 58509.9 2570.24   1
  -5  -6  -6 62566.6 2770.11   2
  -6  -5  -6 58442.5 2666.46   2
  11  -6  -5 38836.1 2090.85   1
  -5  -6  -5 29894.2 1901.71   1
  -6  -5  -5 28511.1 1855.23   1
   5   6   5 32754.2 1989.10   1
   6   5   5 31261.6 1948.82   1
   6 -11   5 31244.1 1909.57   2
   5 -11   5 32332.2 1918.78   2
 -11   5   5 34400.0 1987.55   1
 -11   6   5 29940.5 1846.43   1
  11  -5  -5 31833.9 1842.32   1
  -5  -6  -5 33540.7 1985.77   2
  -6  11  -5 34324.4 1975.28   1
  -6  -5  -5 30919.2 1923.50   2
  -6  11  -4 22687.4 1616.08   1
  -5  11  -4 18515.7 1480.95   1
  11  -6  -4 22116.8 1564.38   1
   6 -11   4 22288.2 1588.78   1
  -5  -6  -4 19016.0 1544.17   1
  -6  -5  -4 21131.2 1610.01   1
 -11   5   4 18386.6 1458.41   1
   5   6   4 23281.8 1677.23   1
   6   5   4 21848.5 1593.60   1
   6 -11   4 22131.1 1588.46   2
   5 -11   4 21566.4 1553.73   2
 -11   6   4 20347.8 1534.57   1
  11  -5  -4 21914.8 1559.72   1
  -5  -6  -4 20802.3 1569.42   2
  -6  -5  -4 23224.9 1657.31   2
  -6  11  -3 104737. 3601.93   1
  11  -6  -3 107101. 3490.04   1
  -5  11  -3 107115. 3591.28   1
   6 -11   3 105269. 3601.86   1
  -5  -6  -3 106061. 3635.26   1
  -6  -5  -3 104129. 3604.75   1
   5   6   3 109412. 3660.92   1
   6   5   3 108864. 3633.41   1
 -11   5   3 103865. 3523.01   1
   6 -11   3 110419. 3594.15   2
   5 -11   3 106174. 3564.35   2
 -11   6   3 100635. 3482.63   1
   5 -11   3 106338. 3595.79   1
  11  -5  -3 113310. 3600.98   1
  -5  -6  -3 101505. 3518.52   2
  -6  -5  -3 107040. 3648.43   2
  11  -6  -2 261565. 5815.11   1
  -6  11  -2 254027. 5932.21   1
  -5  11  -2 260830. 5967.96   1
   5 -11   2 261806. 5958.47   1
  -5  -6  -2 261200. 6023.87   1
  -6  -5  -2 255309. 5997.36   1
   5   6   2 262676. 6083.01   1
   6 -11   2 253332. 5856.23   1
   6   5   2 256940. 5984.99   1
 -11   5   2 239911. 5733.60   1
   6 -11   2 257262. 5884.55   2
   5 -11   2 259195. 5883.15   2
 -11   6   2 277063. 6048.34   1
  11  -5  -2 273581. 5931.06   1
  -5  -6  -2 263448. 6005.96   2
  -6  -5  -2 251236. 5909.97   2
  -6  11  -1 38131.4 2056.46   1
  -5  11  -1 36337.3 2032.68   1
  -5  -6  -1 35346.0 2021.01   1
  -6  -5  -1 38567.5 2122.48   1
   5   6   1 36785.3 2006.89   1
   6   5   1 39395.9 2099.35   1
 -11   5   1 32244.4 1874.39   1
   6 -11   1 37492.4 2055.67   2
 -11   6   1 36416.0 1996.14   1
   5 -11   1 35676.4 1998.44   2
  11  -5  -1 38867.2 2033.53   1
   6 -11   1 35717.4 2013.67   1
  -5  -6  -1 34874.6 2007.56   2
  -6  -5  -1 35228.4 2020.58   2
  11  -6  -1 36780.0 1945.74   1
  -6  11   0 13988.7 1222.80   1
  -5  11   0 14613.4 1236.22   1
   5 -11   0 13246.5 1225.53   1
   6 -11   0 17903.4 1381.19   1
   6   5   0 14751.1 1279.81   1
 -11   5   0 14247.6 1238.86   1
 -11   6   0 13633.6 1249.51   1
  11  -5   0 13372.4 1174.04   1
   6 -11   0 15102.0 1323.30   2
   5 -11   0 14192.4 1283.96   2
  11  -6   0 14490.2 1194.33   1
  -5  -6   0 16445.2 1338.12   2
  -6  -5   0 16070.1 1329.46   2
  -5  -6   1 2602.19 570.386   2
  -6  -5   1 4004.76 716.410   2
  11  -6   1 2523.87 519.796   1
   5 -11  -1 2727.44 584.418   1
  -6  11   1 2314.56 570.242   1
  -5  11   1 3181.03 657.005   1
  11  -5   1 2557.89 523.888   1
   6 -11  -1 2713.16 536.170   2
   5 -11  -1 2895.29 595.842   2
 -11   5  -1 2484.02 567.534   1
 -11   6  -1 2112.71 481.999   1
  -6  11   2 201016. 5078.60   1
  -5  11   2 205731. 5148.10   1
   6 -11  -2 209483. 5181.72   1
   5 -11  -2 205693. 5168.03   1
  11  -5   2 208017. 5047.79   1
 -11   5  -2 213338. 5148.38   1
 -11   6  -2 200420. 5037.88   1
   6 -11  -2 201703. 5130.02   2
   5 -11  -2 199072. 5067.94   2
  11  -6   2 211181. 5043.54   1
  -5  -6   2 210515. 5236.44   2
  -6  11   3 51694.4 2440.15   1
   6 -11  -3 55366.6 2525.09   1
  -5  11   3 50326.9 2395.27   1
   5 -11  -3 51522.6 2460.51   1
  11  -5   3 51068.0 2292.95   1
 -11   5  -3 53174.6 2401.59   1
 -11   6  -3 57839.7 2490.91   1
  11  -6   3 51605.5 2342.77   1
   6 -11  -3 53646.8 2486.42   2
   5 -11  -3 52301.6 2467.30   2
  -6  11   4 13801.0 1199.04   1
   6 -11  -4 11340.2 1155.11   1
  -5  11   4 11334.2 1087.37   1
   5 -11  -4 11372.1 1155.80   1
  11  -5   4 12175.9 1115.76   1
 -11   5  -4 10667.7 1124.48   1
 -11   6  -4 11241.3 1083.28   1
  11  -6   4 13318.4 1167.68   1
   6 -11  -4 11109.8 1145.58   2
   5 -11  -4 12221.9 1192.71   2
  -6  11   5 64530.4 2723.06   1
   6 -11  -5 68084.8 2817.50   1
  -5  11   5 63158.0 2696.42   1
   5 -11  -5 67655.4 2836.98   1
  11  -5   5 68104.3 2679.08   1
 -11   5  -5 69429.2 2747.39   1
  11  -6   5 65595.8 2657.77   1
 -11   6  -5 66921.0 2751.28   1
   6 -11  -5 61444.9 2738.66   2
   5 -11  -5 55507.5 2633.81   2
  -6  11   6 59551.1 2605.66   1
   6 -11  -6 61690.0 2716.43   1
   5 -11  -6 66070.8 2788.47   1
  -5  11   6 62940.4 2686.86   1
  11  -5   6 62851.3 2599.67   1
  11  -6   6 68773.8 2676.81   1
 -11   5  -6 67079.2 2751.95   1
 -11   6  -6 56572.7 2544.28   1
   6 -11  -6 59774.9 2713.68   2
   5 -11  -6 60925.2 2751.42   2
  -6  11   7 23644.6 1595.85   1
   6 -11  -7 20802.8 1518.06   1
   5 -11  -7 20311.1 1543.30   1
  -5  11   7 21013.8 1491.46   1
  11  -5   7 21829.3 1493.93   1
  11  -6   7 23130.6 1569.61   1
 -11   5  -7 21629.4 1548.61   1
 -11   6  -7 22729.3 1586.44   1
   6 -11  -7 20636.0 1587.63   2
   5 -11  -7 19694.1 1570.50   2
  -6  11   8 13774.7 1231.41   1
   6 -11  -8 14696.0 1283.69   1
   5 -11  -8 13431.5 1271.75   1
  -5  11   8 12601.8 1197.30   1
  11  -5   8 13497.1 1195.03   1
  11  -6   8 16244.4 1339.22   1
 -11   5  -8 14146.9 1253.58   1
 -11   6  -8 13028.8 1227.80   1
   6 -11  -8 11795.8 1290.13   2
   5 -11  -8 11927.4 1230.86   2
  -6  11   9 52598.9 2473.21   1
   6 -11  -9 50104.4 2475.84   1
   5 -11  -9 49054.0 2422.25   1
  -5  11   9 50204.2 2397.96   1
  11  -5   9 49073.2 2368.81   1
  11  -6   9 50733.7 2419.75   1
 -11   5  -9 50672.6 2411.95   1
 -11   6  -9 54263.3 2489.32   1
   5 -11  -9 45826.9 2418.59   2
  -6  11  10 179122. 4888.34   1
   6 -11 -10 188347. 5082.58   1
   5 -11 -10 184685. 5023.85   1
  -5  11  10 193503. 5074.13   1
  11  -5  10 189481. 4973.81   1
  11  -6  10 195843. 5065.01   1
 -11   5 -10 198923. 5145.99   1
 -11   6 -10 190535. 5034.22   1
   5 -11 -10 172216. 5094.85   2
  11  -6  11 56039.7 2617.67   1
 -11   6 -11 61350.2 2718.49   1
   4 -11  11 789.304 432.956   2
  -7  -4 -10 12290.0 1241.20   2
  -4  -7 -10 12603.1 1242.83   1
  -7  -4 -10 12262.4 1277.27   1
   4   7  10 12496.8 1204.93   1
   4 -11  10 10106.2 1160.54   2
   7   4  10 11465.7 1178.49   1
  -4  -7 -10 11616.6 1192.76   2
  -7  -4  -9 12358.6 1240.15   2
  11  -7  -9 10155.0 1108.99   1
  -4  -7  -9 13425.4 1258.96   1
  -7  -4  -9 13521.6 1287.14   1
   4   7   9 12804.7 1233.03   1
   4 -11   9 11646.9 1206.13   2
   7   4   9 12380.4 1214.38   1
  -4  -7  -9 14158.1 1294.52   2
  -7  -4  -8 395853. 7936.97   2
  11  -7  -8 379968. 7772.95   1
  -4  -7  -8 398986. 8014.93   1
  -7  -4  -8 419054. 8162.63   1
   4   7   8 409259. 8039.00   1
   7 -11   8 401341. 7911.43   2
   4 -11   8 388067. 7868.13   2
   7   4   8 414946. 8001.12   1
 -11   7   8 358901. 7718.75   1
  -4  -7  -8 424924. 8023.84   2
   4   7   7 583.864 335.058   1
  -4  -7  -7-56.0987 344.892   2
 -11   7   7 353.621 369.602   1
  -7  -4  -7 396.062 375.509   2
   7   4   7 315.402 369.208   1
  11  -7  -7 446.365 344.505   1
  -4  -7  -7 451.759 374.996   1
  -7  -4  -7 353.271 254.546   1
   7 -11   7 220.327 305.519   2
   4 -11   7-474.813 377.365   2
   4   7   6 2715.63 618.624   1
  -4  -7  -6 2836.89 628.655   2
 -11   7   6 2436.84 565.414   1
  -7  -4  -6 3227.57 664.732   2
  -7  11  -6 2134.85 500.146   1
   7   4   6 2585.06 611.569   1
  11  -7  -6 1675.97 459.510   1
  -4  -7  -6 2865.03 640.351   1
  -7  -4  -6 2280.05 516.518   1
   7 -11   6 2711.94 622.273   2
   4 -11   6 2391.42 553.836   2
  -7  -4  -5 32006.5 1945.27   2
  11  -7  -5 37258.0 2053.70   1
  -4  -7  -5 31057.2 1947.20   1
  -7  -4  -5 28444.5 1843.80   1
   4   7   5 31359.5 1916.69   1
 -11   4   5 34343.2 1977.63   1
   7 -11   5 31927.1 1926.72   2
  11  -4  -5 30498.7 1857.25   1
   4 -11   5 29994.2 1852.79   2
   7 -11   5 32291.9 1912.90   1
   7   4   5 30401.3 1916.01   1
 -11   7   5 30571.8 1861.97   1
  -4  -7  -5 31145.1 1877.91   2
  -7  11  -5 31967.8 1936.79   1
  11  -7  -4 179578. 4756.68   1
  -4  -7  -4 166968. 4758.75   1
  -7  -4  -4 167146. 4753.59   1
   4   7   4 175306. 4857.98   1
 -11   4   4 166694. 4633.13   1
  11  -4  -4 194515. 4889.85   1
   7 -11   4 175690. 4738.22   2
   4 -11   4 180797. 4815.12   2
   7   4   4 180462. 4858.40   1
 -11   7   4 173025. 4680.51   1
  -4  -7  -4 172696. 4710.85   2
   7 -11   4 166484. 4650.79   1
  -7  11  -4 176121. 4787.70   1
  -7  -4  -4 181818. 4890.47   2
   4   7   3 2262.25 592.239   1
  -4  -7  -3 1343.34 428.139   2
 -11   7   3 1763.41 473.762   1
  -7  -4  -3 1294.33 477.947   2
  11  -7  -3 1817.86 484.668   1
  -7  11  -3 1809.08 508.509   1
   7   4   3 1703.68 487.796   1
  -4  11  -3 1448.59 441.751   1
  -4  -7  -3 1681.78 496.422   1
  -7  -4  -3 1247.61 400.209   1
   7 -11   3 2023.57 555.421   1
  11  -4  -3 2006.79 500.355   1
   7 -11   3 1515.89 497.251   2
   4 -11   3 1696.08 491.886   2
 -11   4   3 1393.51 452.572   1
  -7  11  -2 27998.8 1802.71   1
  -4  11  -2 31738.7 1876.50   1
  11  -7  -2 31422.9 1832.99   1
   4 -11   2 29732.2 1854.44   1
   7 -11   2 28150.3 1806.98   1
  -4  -7  -2 33203.8 1938.86   1
  -7  -4  -2 31954.9 1937.16   1
   4   7   2 29925.7 1880.52   1
  11  -4  -2 27434.8 1742.25   1
 -11   4   2 28322.6 1782.31   1
   7 -11   2 29549.4 1850.49   2
   4 -11   2 28419.1 1805.49   2
   7   4   2 31377.6 1882.84   1
 -11   7   2 28441.0 1735.28   1
  -4  -7  -2 32047.5 1915.08   2
  -7  -4  -2 29019.7 1885.61   2
  -4  -7  -1 6432.29 886.204   2
 -11   7   1 5256.14 769.756   1
  -7  -4  -1 5080.51 834.467   2
  11  -7  -1 6492.80 820.227   1
  -4  11  -1 6261.94 844.033   1
   4 -11   1 5002.06 769.775   1
  -7  11  -1 5173.37 814.450   1
   7   4   1 5449.71 847.036   1
   7 -11   1 5817.84 821.944   1
  -7  -4  -1 6012.86 876.988   1
  -4  -7  -1 6638.89 896.701   1
   4   7   1 6352.43 877.724   1
  11  -4  -1 7190.75 829.344   1
   7 -11   1 5711.44 840.942   2
   4 -11   1 6870.23 881.076   2
 -11   4   1 5696.24 792.253   1
  -7  11   0 376817. 7541.57   1
  11  -7   0 373699. 7337.37   1
  -4  11   0 390707. 7655.94   1
   4 -11   0 383538. 7688.84   1
   7 -11   0 393883. 7604.64   1
  11  -4   0 386556. 7426.13   1
 -11   4   0 405003. 7658.36   1
   7 -11   0 383335. 7614.96   2
   4 -11   0 390613. 7591.13   2
 -11   7   0 369955. 7390.00   1
   7   4   0 386321. 7658.35   1
  -4  -7   0 381170. 7580.69   2
  -7  -4   0 407558. 7932.92   2
  -4  -7   1 1936.95 520.003   2
 -11   7  -1 2593.31 604.926   1
   7 -11  -1 1817.75 436.495   1
   4 -11  -1 1283.91 413.206   1
  -7  11   1 2432.22 564.406   1
  -4  11   1 607.372 388.778   1
  11  -7   1 1670.69 497.046   1
  11  -4   1 1475.13 407.727   1
   7 -11  -1 1574.69 440.216   2
 -11   4  -1 1157.78 444.443   1
   4 -11  -1 209.832 236.181   2
   7 -11  -2 37194.8 2054.09   1
  -7  11   2 39216.0 2075.30   1
   4 -11  -2 34886.1 2017.98   1
  -4  11   2 37165.2 2009.29   1
  11  -4   2 40820.4 2041.12   1
 -11   4  -2 43022.1 2168.00   1
   7 -11  -2 36573.1 2066.15   2
 -11   7  -2 36154.9 2014.28   1
   4 -11  -2 35040.5 1991.51   2
  -4  -7   2 34380.6 1988.51   2
  11  -7   2 36756.0 1972.96   1
  -4  -7   3 5666.02 806.996   2
   4 -11  -3 7698.92 949.177   1
  -4  11   3 6353.36 869.232   1
  -7  11   3 5190.68 772.294   1
   7 -11  -3 4192.39 736.511   1
  11  -4   3 6445.59 830.477   1
 -11   7  -3 6540.66 893.348   1
   7 -11  -3 6503.75 870.562   2
 -11   4  -3 6993.82 858.289   1
  11  -7   3 5513.50 783.979   1
   4 -11  -3 5425.17 807.654   2
  -7  11   4 193595. 4921.05   1
   4 -11  -4 180311. 4878.59   1
  -4  11   4 174971. 4758.60   1
  11  -4   4 186090. 4775.99   1
 -11   4  -4 186178. 4848.67   1
 -11   7  -4 195157. 4902.79   1
   7 -11  -4 182422. 4931.31   2
   4 -11  -4 185050. 4892.67   2
  11  -7   4 196914. 4872.76   1
   7 -11  -5 0.98061 276.227   1
   4 -11  -5 451.493 234.235   1
  11  -4   5-250.272 246.318   1
  -7  11   5-30.9417 239.220   1
  -4  11   5 334.706 342.982   1
 -11   4  -5-185.961 326.138   1
   7 -11  -5 179.400 295.258   2
   4 -11  -5 262.628 354.264   2
  11  -7   5 626.431 325.032   1
 -11   7  -5-59.1309 193.992   1
   7 -11  -6 4411.17 740.092   1
  11  -4   6 4219.15 660.074   1
   4 -11  -6 3863.27 665.439   1
  -7  11   6 4196.86 661.222   1
  -4  11   6 2273.97 477.925   1
 -11   4  -6 4298.75 727.565   1
   7 -11  -6 3531.70 716.090   2
  11  -7   6 3582.82 633.285   1
   4 -11  -6 3205.82 605.067   2
 -11   7  -6 4078.19 700.254   1
  -7  11   7 20328.3 1509.21   1
   7 -11  -7 19294.0 1506.02   1
   4 -11  -7 18127.6 1462.02   1
  -4  11   7 19805.9 1503.94   1
  11  -4   7 18522.2 1391.15   1
 -11   4  -7 18577.9 1446.53   1
  11  -7   7 22700.3 1544.07   1
 -11   7  -7 20053.4 1521.03   1
   7 -11  -7 18053.3 1554.88   2
   4 -11  -7 16428.2 1401.23   2
  -7  11   8 422325. 8050.61   1
   7 -11  -8 418338. 8118.74   1
   4 -11  -8 418942. 8100.43   1
  -4  11   8 404348. 7917.19   1
  11  -4   8 444863. 8076.08   1
  11  -7   8 429244. 8006.39   1
 -11   4  -8 407227. 7922.07   1
 -11   7  -8 409171. 7997.35   1
   4 -11  -8 395081. 8081.93   2
  11  -4   9 273.102 305.967   1
   7 -11  -9 324.169 367.664   1
   4 -11  -9-106.070 303.176   1
  -7  11   9 263.304 330.412   1
  -4  11   9-228.525 356.879   1
  11  -7   9 257.098 294.257   1
 -11   4  -9 316.453 235.259   1
 -11   7  -9 58.9029 275.449   1
   4 -11  -9 260.592 254.282   2
  -7  11  10 29430.1 1894.57   1
   7 -11 -10 28575.6 1872.55   1
   4 -11 -10 32261.3 1949.23   1
  -4  11  10 31211.1 1893.95   1
  11  -4  10 30184.3 1872.47   1
  11  -7  10 29385.2 1838.25   1
 -11   4 -10 32668.7 1946.64   1
 -11   7 -10 31153.3 1955.03   1
   4 -11 -10 26748.6 1882.58   2
  11  -7  11 4869.10 795.747   1
 -11   7 -11 5395.10 794.785   1
   4 -11 -11 3840.07 762.739   2
  11  -8 -10 43043.7 2382.51   1
   3 -11  10 38394.4 2280.21   2
  -8  -3  -9 107917. 3722.72   2
  -3  -8  -9 107353. 3752.33   1
  -8  -3  -9 107990. 3782.61   1
  11  -8  -9 97742.2 3573.76   1
   3   8   9 109752. 3731.66   1
   3 -11   9 93641.2 3612.82   2
   8   3   9 105439. 3678.85   1
 -11   8   9 86606.1 3473.29   1
  -3  -8  -9 108424. 3713.78   2
  -3  -8  -8 841.831 411.427   2
  -8  -3  -8 346.386 337.830   2
 -11   8   8 541.828 342.047   1
   8   3   8 575.449 234.756   1
  -3  -8  -8 247.923 272.040   1
  -8  -3  -8 745.797 453.384   1
  11  -8  -8 1178.25 396.982   1
   3 -11   8 507.970 278.076   2
   3   8   8 611.633 322.814   1
  -8  -3  -7 115512. 3818.33   2
  -3  -8  -7 108959. 3776.65   1
  -8  -3  -7 111589. 3773.82   1
  11  -8  -7 110822. 3716.23   1
   3   8   7 110518. 3766.71   1
   3 -11   7 106315. 3699.96   2
   8   3   7 111605. 3779.91   1
  -8  11  -7 98347.4 3641.88   1
 -11   8   7 104716. 3678.72   1
  -3  -8  -7 105809. 3671.06   2
  -8  -3  -6 241593. 5881.34   2
  -3  -8  -6 243312. 5955.70   1
  11  -8  -6 247696. 5828.51   1
  -8  -3  -6 237656. 5831.09   1
   8 -11   6 229001. 5712.18   1
   3   8   6 254728. 5976.99   1
   8 -11   6 240455. 5758.37   2
   3 -11   6 219057. 5591.48   2
   8   3   6 243958. 5820.18   1
 -11   8   6 254313. 5911.99   1
  -8  11  -6 238853. 5820.13   1
  -3  -8  -6 243035. 5818.66   2
  -8  -3  -5 32179.5 1989.39   2
  -3  -8  -5 30999.9 1974.88   1
  11  -8  -5 30673.2 1884.69   1
  -8  -3  -5 32008.8 1992.77   1
   3   8   5 32885.1 1988.78   1
   8 -11   5 31760.9 1897.58   1
   8 -11   5 33851.6 1992.18   2
   3 -11   5 32822.2 1956.90   2
 -11   8   5 30991.1 1892.22   1
   8   3   5 36162.5 2036.14   1
  -8  11  -5 33719.0 2000.58   1
  -3  -8  -5 35124.2 1988.09   2
  -8  -3  -4 129534. 4082.59   2
  -3  -8  -4 119466. 4000.46   1
  11  -8  -4 124282. 3881.05   1
  -8  -3  -4 126362. 4062.15   1
   3   8   4 126322. 4034.58   1
  11  -3  -4 146262. 4226.10   1
 -11   3   4 121113. 4000.57   1
   8 -11   4 125959. 3935.76   1
   8 -11   4 128500. 4102.83   2
   3 -11   4 132417. 4013.33   2
 -11   8   4 131589. 4032.43   1
   8   3   4 133732. 4149.66   1
  -3  -8  -4 133163. 4075.29   2
  -8  11  -4 124624. 3938.04   1
  -8  -3  -3 6342.08 877.363   2
  -3  -8  -3 6845.74 944.823   1
  11  -8  -3 7073.31 893.475   1
  -8  -3  -3 6875.58 961.020   1
  11  -3  -3 6047.72 791.581   1
 -11   3   3 6223.09 861.423   1
   3 -11   3 6598.76 848.951   2
   8 -11   3 7021.61 885.247   2
   8 -11   3 6008.23 846.764   1
 -11   8   3 6694.77 888.352   1
   8   3   3 7815.54 960.793   1
  -3  -8  -3 8043.22 942.747   2
   3   8   3 6012.77 871.840   1
  -8  11  -3 7249.17 912.414   1
  -8  -3  -2 114725. 3891.94   2
  -3  11  -2 117905. 3826.28   1
  11  -8  -2 132782. 3931.82   1
  -3  -8  -2 115300. 3902.14   1
  -8  -3  -2 122106. 3982.23   1
   3   8   2 113813. 3825.64   1
  11  -3  -2 122022. 3805.50   1
 -11   3   2 120510. 3869.46   1
   8 -11   2 133303. 4083.48   2
   3 -11   2 128561. 3916.06   2
 -11   8   2 123700. 3835.13   1
  -3  -8  -2 124995. 3903.62   2
   8   3   2 124693. 3977.77   1
  -8  11  -2 122207. 3891.64   1
   8 -11   2 122704. 3890.90   1
  -3  -8  -1 3260.16 626.619   2
 -11   8   1 3482.81 641.762   1
  -8  -3  -1 3133.84 652.643   2
  -8  11  -1 3105.46 650.805   1
   3 -11   1 3707.55 685.019   1
  11  -8  -1 3013.37 618.788   1
  11  -3  -1 4662.63 744.357   1
   8   3   1 3984.01 684.910   1
  -3  11  -1 3974.69 700.693   1
  -8  -3  -1 2839.46 608.889   1
   8 -11   1 3321.31 628.027   1
   8 -11   1 3224.53 633.296   2
   3   8   1 3928.86 686.152   1
 -11   3   1 4251.03 699.288   1
   3 -11   1 4292.07 697.492   2
  -3  -8   0 3925.82 638.717   2
 -11   8   0 4209.19 696.602   1
  11  -8   0 3550.10 613.203   1
  -8  11   0 3763.74 666.958   1
   3 -11   0 2659.33 534.702   1
  11  -3   0 4429.47 717.984   1
   8   3   0 3021.79 627.333   1
  -3  11   0 3958.73 721.191   1
   8 -11   0 3056.16 611.170   2
 -11   3   0 3246.95 615.397   1
   3 -11   0 3496.96 632.000   2
   8 -11   0 3668.20 678.418   1
  -8  11   1 22750.4 1616.29   1
  11  -8   1 23963.6 1579.00   1
   3 -11  -1 21906.5 1630.15   1
  -3  11   1 23259.5 1632.72   1
   8 -11  -1 24337.6 1675.60   1
  11  -3   1 23220.8 1566.09   1
 -11   3  -1 25098.1 1630.22   1
   8 -11  -1 23595.5 1674.76   2
   3 -11  -1 25260.5 1673.20   2
 -11   8  -1 25017.9 1644.04   1
  -3  -8   1 23207.2 1636.16   2
  -8  11   2 94088.1 3329.51   1
  11  -8   2 98858.2 3288.50   1
   3 -11  -2 85219.5 3212.10   1
  -3  11   2 84562.3 3204.20   1
  11  -3   2 88728.7 3158.45   1
   8 -11  -2 94594.0 3355.03   1
 -11   3  -2 93228.2 3280.61   1
   8 -11  -2 92801.2 3422.59   2
 -11   8  -2 91965.4 3240.18   1
   3 -11  -2 85761.0 3189.02   2
  -3  -8   2 89364.4 3272.08   2
  11  -8   3 110557. 3540.07   1
  -8  11   3 110728. 3673.09   1
   3 -11  -3 111340. 3743.50   1
  -3  11   3 113998. 3705.19   1
  11  -3   3 115332. 3667.58   1
 -11   3  -3 104627. 3523.60   1
   8 -11  -3 111899. 3622.35   1
   8 -11  -3 106139. 3695.94   2
 -11   8  -3 117303. 3720.57   1
   3 -11  -3 113786. 3708.16   2
  -3  -8   3 105060. 3646.52   2
 -11   8  -4 4539.22 703.666   1
   8 -11  -4 3876.71 676.282   1
  11  -3   4 2643.69 546.683   1
  -8  11   4 5078.85 746.045   1
   3 -11  -4 3426.50 654.555   1
  11  -8   4 4377.78 687.144   1
  -3  11   4 2983.35 576.054   1
 -11   3  -4 2645.55 500.580   1
   8 -11  -4 3620.13 735.285   2
   3 -11  -4 3070.67 606.714   2
  -3  -8   4 3170.35 611.425   2
  -8  11   5 138146. 4141.96   1
   3 -11  -5 135741. 4211.15   1
  -3  11   5 139579. 4183.05   1
  11  -3   5 147242. 4204.35   1
   8 -11  -5 127150. 4186.77   2
 -11   8  -5 139887. 4180.19   1
   3 -11  -5 139808. 4186.86   2
  11  -8   5 141031. 4083.07   1
   8 -11  -5 139068. 4139.78   1
   8 -11  -6 201428. 5087.58   1
  -8  11   6 206770. 5163.49   1
   3 -11  -6 192002. 5114.20   1
  -3  11   6 188437. 4997.39   1
  11  -3   6 196350. 4983.03   1
 -11   3  -6 214986. 5282.97   1
 -11   8  -6 206799. 5138.42   1
   8 -11  -6 183655. 5147.81   2
  11  -8   6 190045. 4943.12   1
   3 -11  -6 196064. 5116.52   2
  -8  11   7 64029.9 2756.02   1
   8 -11  -7 64731.2 2757.30   1
   3 -11  -7 62926.6 2780.16   1
  -3  11   7 61632.7 2665.87   1
  11  -3   7 62349.1 2641.04   1
 -11   3  -7 63071.2 2746.48   1
 -11   8  -7 62570.9 2716.55   1
  11  -8   7 61124.4 2672.19   1
   3 -11  -7 60561.8 2730.59   2
  -8  11   8 96568.7 3415.91   1
   3 -11  -8 99354.7 3543.68   1
  11  -3   8 99735.9 3442.91   1
  -3  11   8 95450.0 3424.31   1
   8 -11  -8 93992.1 3396.49   1
 -11   3  -8 103673. 3562.21   1
  11  -8   8 98604.8 3463.84   1
 -11   8  -8 96969.7 3459.72   1
   3 -11  -8 94638.5 3499.18   2
  -8  11   9 10118.4 1091.31   1
   3 -11  -9 11035.6 1136.86   1
  11  -3   9 11022.6 1106.75   1
  -3  11   9 10054.9 1118.16   1
   8 -11  -9 10244.4 1086.51   1
 -11   3  -9 10212.0 1100.72   1
  11  -8   9 10856.9 1105.63   1
 -11   8  -9 11056.7 1155.63   1
   3 -11  -9 10721.0 1138.20   2
  11  -8  10 131891. 4143.53   1
 -11   8 -10 128759. 4155.58   1
   3 -11 -10 128311. 4225.16   2
   3 -11 -11 780.723 378.466   2
  11  -9 -10 35135.9 2087.11   1
  11  -9  -9 22191.8 1660.80   1
   2 -11   9 16845.0 1516.84   2
 -11   9   9 19296.0 1547.45   1
  -2  -9  -8 2330.53 547.247   2
  -9  -2  -8 2658.33 670.428   2
 -11   9   8 2102.77 556.826   1
  -2  -9  -8 2248.52 555.681   1
   9   2   8 2522.11 615.514   1
  -9  -2  -8 2166.93 521.660   1
   2   9   8 2473.27 567.395   1
   2 -11   8 2550.10 597.750   2
  11  -9  -8 2371.66 563.377   1
  -9  -2  -7 12328.3 1221.13   2
   9 -11   7 13882.6 1314.83   1
  -2  -9  -7 16084.3 1390.96   1
   2   9   7 13118.8 1308.03   1
  -9  -2  -7 14275.2 1355.15   1
  11  -9  -7 14907.1 1339.41   1
   2 -11   7 12273.5 1238.99   2
  -9  11  -7 13882.6 1321.12   1
  -2  -9  -7 12332.2 1218.20   2
 -11   9   7 16057.9 1338.49   1
   9   2   7 14308.4 1291.39   1
  -9  -2  -6 192151. 5125.98   2
  -2  -9  -6 190628. 5149.16   1
   9 -11   6 164547. 4797.52   1
   2   9   6 193485. 5098.16   1
  -9  -2  -6 201972. 5319.54   1
  11  -9  -6 193290. 5022.72   1
   2 -11   6 173156. 4915.93   2
  -9  11  -6 165797. 4852.60   1
  -2  -9  -6 191192. 5000.26   2
 -11   9   6 193728. 5115.42   1
   9   2   6 193140. 5088.92   1
  -9  -2  -5 144232. 4444.84   2
  -2  -9  -5 133283. 4319.43   1
   9 -11   5 143143. 4341.34   1
   2   9   5 142997. 4373.13   1
  -9  -2  -5 148345. 4510.98   1
  11  -9  -5 153963. 4404.69   1
   2 -11   5 149849. 4410.20   2
  -9  11  -5 145884. 4382.64   1
  -2  -9  -5 157189. 4419.22   2
 -11   9   5 151270. 4404.19   1
   9   2   5 151566. 4460.75   1
  -9  -2  -4 58294.8 2704.69   2
  -2  -9  -4 54364.1 2652.10   1
   2   9   4 58378.0 2716.45   1
  -9  -2  -4 54622.4 2662.26   1
  11  -9  -4 64773.3 2721.70   1
   9 -11   4 64322.0 2736.85   1
   2 -11   4 59309.8 2665.86   2
  -2  -9  -4 61552.6 2691.22   2
 -11   9   4 63500.0 2730.46   1
  -9  11  -4 61554.2 2735.91   1
   9   2   4 60345.7 2730.69   1
  -9  -2  -3 26946.8 1859.15   2
  -2  -9  -3 26526.3 1849.88   1
  11  -2  -3 30472.1 1888.80   1
   2   9   3 31514.2 1954.94   1
  11  -9  -3 33817.1 1940.61   1
  -9  -2  -3 28882.7 1915.84   1
   9 -11   3 31375.4 1893.77   1
   2 -11   3 29531.6 1852.12   2
  -2  -9  -3 31403.9 1902.44   2
 -11   9   3 37270.5 2055.42   1
  -9  11  -3 29147.7 1853.15   1
   9   2   3 31454.3 1909.96   1
  -9  -2  -2 176814. 5028.48   2
  -2  -9  -2 170898. 4970.05   1
  11  -2  -2 182691. 4916.51   1
  11  -9  -2 187608. 4861.54   1
   2   9   2 186820. 5064.40   1
  -9  -2  -2 174739. 4974.54   1
 -11   2   2 185198. 4991.65   1
   9 -11   2 179026. 5004.27   2
   9 -11   2 192295. 4953.52   1
   2 -11   2 186002. 4920.57   2
 -11   9   2 187826. 4907.19   1
  -2  -9  -2 193064. 4983.69   2
  -9  11  -2 192661. 4976.22   1
   9   2   2 180675. 4964.76   1
  -2  -9  -1 156.545 274.663   2
 -11   9   1 529.185 291.612   1
   9 -11   1 367.088 324.682   1
  -9  11  -1 185.128 246.084   1
  11  -2  -1 372.453 285.725   1
  11  -9  -1 615.463 280.814   1
   9   2   1 580.214 269.129   1
  -9  -2  -1 280.348 361.678   1
   2   9   1 42.9184 235.822   1
   9 -11   1 404.041 376.397   2
 -11   2   1 769.652 387.735   1
   2 -11   1 717.683 331.288   2
 -11   9   0 5300.16 756.069   1
  11  -2   0 4780.91 750.838   1
  -9  11   0 4904.05 742.118   1
   2 -11   0 4833.85 805.732   1
   9 -11   0 4564.79 732.463   1
  11  -9   0 5941.88 829.884   1
  -2  11   0 4172.86 757.471   1
   9   2   0 4659.93 775.426   1
   9 -11   0 4413.11 803.322   2
 -11   2   0 4710.28 752.300   1
   2 -11   0 4948.76 729.925   2
  -2  -9   0 4840.66 772.286   2
   9 -11  -1 65688.1 2736.48   1
   2 -11  -1 54910.1 2609.63   1
  -2  11   1 58305.4 2672.65   1
  11  -9   1 61154.8 2595.63   1
  11  -2   1 61194.7 2669.01   1
 -11   2  -1 57991.5 2618.59   1
   9 -11  -1 58088.4 2713.13   2
   2 -11  -1 59655.1 2640.24   2
 -11   9  -1 66127.2 2704.68   1
  -2  -9   1 57728.2 2631.09   2
  -9  11   1 59947.6 2633.01   1
   9 -11  -2 63972.3 2727.54   1
  11  -9   2 64417.8 2674.74   1
   2 -11  -2 58649.9 2711.30   1
  -2  11   2 62559.7 2720.79   1
  11  -2   2 72743.5 2908.94   1
 -11   2  -2 60285.1 2685.57   1
   9 -11  -2 61773.5 2825.81   2
 -11   9  -2 64336.7 2681.04   1
   2 -11  -2 68051.3 2801.29   2
  -2  -9   2 62185.1 2763.72   2
  -9  11   2 64172.3 2736.52   1
  -9  11   3 115900. 3739.37   1
  11  -9   3 120754. 3708.44   1
   2 -11  -3 100281. 3619.40   1
   9 -11  -3 113973. 3702.33   1
  -2  11   3 107480. 3657.91   1
  11  -2   3 111999. 3683.75   1
 -11   2  -3 107315. 3633.02   1
   9 -11  -3 105061. 3782.82   2
 -11   9  -3 120364. 3749.40   1
   2 -11  -3 114655. 3748.14   2
  -2  -9   3 96802.0 3545.59   2
  -9  11   4 12382.8 1133.40   1
  11  -9   4 11560.6 1134.88   1
 -11   2  -4 9563.15 1082.65   2
   2 -11  -4 8625.42 1068.19   1
  11  -2   4 10231.9 1069.61   1
  -2  11   4 9180.05 1038.31   1
   9 -11  -4 11465.8 1104.35   1
 -11   2  -4 9729.90 1053.32   1
   9 -11  -4 10785.8 1209.25   2
 -11   9  -4 13446.4 1201.30   1
  -2  -9   4 8951.06 1056.37   2
   2 -11  -4 10354.7 1099.48   2
  11  -9   5 83633.5 3101.26   1
  -9  11   5 82258.0 3142.51   1
 -11   2  -5 67214.5 2923.15   2
   2 -11  -5 75371.6 3066.20   1
  11  -2   5 86555.7 3184.13   1
  -2  11   5 75265.1 3038.16   1
   9 -11  -5 82019.4 3141.89   1
 -11   2  -5 77027.6 3098.36   1
 -11   9  -5 86043.3 3186.02   1
  -2  -9   5 69963.1 3020.46   2
   2 -11  -5 77402.6 3076.21   2
  -9  11   6 167508. 4701.86   1
 -11   2  -6 151092. 4580.52   2
   2 -11  -6 173301. 4830.71   1
  11  -2   6 183232. 4797.25   1
  -2  11   6 169553. 4741.85   1
   9 -11  -6 165637. 4603.32   1
 -11   2  -6 179644. 4854.59   1
 -11   9  -6 169342. 4730.41   1
   2 -11  -6 175149. 4733.44   2
  11  -9   6 169165. 4610.40   1
  -9  11   7 27557.5 1767.77   1
 -11   2  -7 21887.7 1700.26   2
  11  -2   7 24809.4 1669.37   1
   2 -11  -7 23976.2 1709.64   1
  -2  11   7 25533.3 1741.76   1
   9 -11  -7 27330.1 1774.56   1
 -11   2  -7 24837.1 1731.26   1
 -11   9  -7 27361.8 1793.56   1
  11  -9   7 28051.8 1749.61   1
   2 -11  -7 25543.2 1730.02   2
  -9  11   8 7092.67 936.252   1
 -11   2  -8 6520.70 968.567   2
   2 -11  -8 8016.82 998.505   1
 -11   2  -8 8557.93 949.629   1
   9 -11  -8 7452.23 943.523   1
  -2  11   8 6944.27 924.038   1
 -11   9  -8 7851.14 979.727   1
  11  -2   8 7141.69 896.809   1
  11  -9   8 6637.78 882.439   1
   2 -11  -8 8094.23 971.857   2
  11  -9   9 1407.61 445.294   1
 -11   9  -9 1408.57 432.162   1
 -10  11  -8 86470.8 3450.09   1
 -10  11  -7 5264.65 814.031   1
 -10  -1  -7 5366.86 877.108   2
  -1 -10  -7 3141.05 670.541   1
   1  10   7 4549.71 775.794   1
  10 -11   7 4754.35 816.172   1
   1 -11   7 3244.11 674.851   2
 -10  11  -6 5060.94 779.126   1
 -10  -1  -6 4461.86 792.774   2
  10 -11   6 4933.19 790.808   1
 -11  10   6 6240.60 885.685   1
  -1 -10  -6 4631.39 769.834   1
 -10  -1  -6 5727.15 893.099   1
  10   1   6 5440.09 853.047   1
   1  10   6 5390.27 828.748   1
   1 -11   6 5079.34 813.267   2
  11 -10  -6 4697.55 740.492   1
  -1 -10  -5 4610.13 775.852   2
 -10  11  -5 4689.80 766.245   1
 -10  -1  -5 5290.99 851.564   2
 -11  10   5 4383.11 758.012   1
  -1 -10  -5 4698.02 780.264   1
  10 -11   5 4751.91 747.676   1
  10   1   5 4812.38 761.310   1
 -10  -1  -5 5216.72 891.093   1
   1  10   5 5468.65 790.505   1
   1 -11   5 5765.34 865.462   2
  11 -10  -5 4737.80 774.221   1
  10   1   4 226400. 5617.18   1
 -10  -1  -4 189856. 5388.38   2
  -1 -10  -4 185705. 5309.85   1
  10 -11   4 213884. 5384.42   1
   1  10   4 204874. 5427.20   1
 -10  -1  -4 214924. 5544.23   1
  11 -10  -4 230168. 5481.85   1
   1 -11   4 218390. 5487.06   2
 -10  11  -4 224979. 5551.63   1
  -1 -10  -4 223262. 5473.45   2
 -11  10   4 227895. 5538.97   1
 -10  11  -3 1419.41 439.490   1
 -11  10   3 1105.56 413.100   1
  -1 -10  -3 752.382 428.329   1
  10   1   3 756.976 412.500   1
  10 -11   3 527.419 286.158   1
 -10  -1  -3 414.763 353.272   1
   1  10   3 226.754 314.732   1
  11 -10  -3-24.0273 247.051   1
   1 -11   3-35.0638 277.470   2
  -1 -10  -3 736.940 478.196   2
 -11  10   2 1223.86 377.308   1
 -10  11  -2 1820.20 489.477   1
  10   1   2 1624.06 440.270   1
 -10  -1  -2 1496.44 478.523   1
   1  10   2 1711.43 497.825   1
  11 -10  -2 1630.07 446.367   1
  10 -11   2 2109.78 471.390   1
   1 -11   2 1449.93 489.924   2
  -1 -10  -2 2249.24 547.266   2
 -11  10   1 2068.74 498.473   1
 -10  11  -1 1945.24 489.248   1
  10   1   1 1934.50 509.926   1
 -10  -1  -1 1512.96 455.742   1
  11 -10  -1 3415.92 623.516   1
 -11   1   1 1992.89 522.994   1
  10 -11   1 2920.96 614.069   1
   1 -11   1 2120.28 619.715   2
  11  -1  -1 2072.58 565.445   1
  -1 -10  -1 2679.09 568.081   2
  10   1   0 308042. 6997.12   1
  11  -1   0 323996. 7040.18   1
  11 -10   0 351249. 6978.75   1
 -11   1   0 315021. 7127.91   1
  10 -11   0 342699. 6995.41   1
   1 -11   0 333364. 6976.36   2
  -1 -10   0 320634. 6921.58   2
 -11  10   0 343497. 6983.97   1
 -10  11   0 349533. 7050.86   1
  10 -11  -1 3530.19 695.544   1
 -11  10  -1 3097.45 640.057   1
 -10  11   1 1837.45 479.255   1
  11 -10   1 1948.66 508.628   1
  -1  11   1 3180.83 638.371   1
 -11   1  -1 2913.84 638.141   1
  11  -1   1 3007.76 609.957   1
   1 -11  -1 4200.28 750.414   2
  -1 -10   1 2323.92 519.223   2
 -11  10  -2 952.170 496.604   1
 -10  11   2-8.70615 269.330   1
  10 -11  -2 355.705 239.525   1
   1 -11  -2-305.552 358.672   1
  11 -10   2 1065.44 408.284   1
  -1  11   2 213.631 235.415   1
 -11   1  -2 134.295 217.392   1
  11  -1   2-74.9905 227.692   1
  -1 -10   2 370.262 341.889   2
   1 -11  -2 290.402 316.439   2
 -11  10  -3 7601.46 915.970   1
  11  -1   3 7713.02 980.958   1
  11 -10   3 6778.87 915.098   1
   1 -11  -3 5205.47 831.607   1
  10 -11  -3 6845.73 892.034   1
  -1  11   3 5921.49 864.659   1
 -11   1  -3 6820.22 883.039   1
  -1 -10   3 6376.21 853.711   2
 -10  11   3 8583.72 1020.73   1
   1 -11  -3 5614.48 801.784   2
  10 -11  -4 136619. 4103.14   1
 -11   1  -4 116074. 4047.63   2
  11 -10   4 134336. 4082.31   1
  11  -1   4 134378. 4148.88   1
   1 -11  -4 121343. 4051.49   1
  -1  11   4 129401. 4119.16   1
 -11   1  -4 138604. 4271.11   1
  -1 -10   4 124332. 4095.24   2
 -11  10  -4 138730. 4168.80   1
   1 -11  -4 134976. 4102.58   2
 -10  11   4 146472. 4229.46   1
  11 -10   5 9151.83 1042.38   1
  10 -11  -5 9279.14 1034.13   1
 -11   1  -5 6748.84 967.947   2
  11  -1   5 8782.60 997.775   1
  -1  11   5 9254.25 1030.86   1
   1 -11  -5 8085.55 984.145   1
 -11   1  -5 7709.61 1009.27   1
 -11  10  -5 10693.0 1129.53   1
   1 -11  -5 8064.56 992.957   2
  -1 -10   5 6826.30 939.811   2
 -10  11   5 8556.94 1001.48   1
 -11  10  -6 1529.12 513.019   1
 -11   1  -6 769.746 398.561   2
 -10  11   6 1022.21 465.275   1
   1 -11  -6 968.847 445.962   1
  11 -10   6 1663.91 438.085   1
  -1  11   6 987.742 381.258   1
  10 -11  -6 894.982 374.314   1
 -11   1  -6 1343.69 437.856   1
  11  -1   6 1412.42 461.535   1
  -1 -10   6 1033.56 393.584   2
   1 -11  -6 1927.65 532.571   2
 -11   1  -7 7958.68 1030.26   2
 -11  10  -7 9421.40 1060.46   1
  11 -10   7 8489.33 1015.57   1
  11   0   0 22197.0 1685.78   1
   0 -11   0 23533.6 1663.13   2
  11   0   1 10092.6 1136.90   1
 -11   0  -1 11082.2 1203.20   1
   0 -11   1 13237.6 1251.88   2
   0 -11  -1 11945.4 1190.74   2
  11   0   2 91354.3 3447.10   1
   0  11   2 90003.0 3509.27   1
 -11   0  -2 84878.2 3443.53   1
   0 -11   2 93909.9 3476.58   2
  11   0   3 65353.2 2860.95   1
   0 -11  -3 54394.5 2734.70   1
   0  11   3 52827.3 2653.33   1
 -11   0  -3 55082.4 2742.33   1
   0 -11   3 61789.2 2800.35   2
  11   0   4 26684.1 1773.88   1
   0 -11  -4 21273.6 1701.02   1
   0  11   4 27140.7 1824.02   1
 -11   0  -4 22417.9 1712.43   1
   0 -11   4 25724.0 1761.13   2
   0 -11  -5 67376.3 3051.70   1
   0  11   5 69681.5 3005.28   1
   0 -11   5 67493.9 2997.30   2
  -6  -6  -7-517.164 376.208   2
   6   6   7 164.968 280.134   1
  -6  -6  -7-305.368 375.304   1
   6 -12   7 303.588 303.664   2
  -6  -6  -6 26439.2 1827.59   1
   6   6   6 27171.7 1858.55   1
   6 -12   6 28174.8 1802.86   2
 -12   6   6 23482.7 1726.66   1
  12  -6  -6 23689.5 1681.69   1
  -6  -6  -6 29200.8 1918.15   2
  -6  -6  -5-136.390 312.915   2
   6   6   5-12.2662 281.716   1
  12  -6  -5 76.8953 297.778   1
  -6  -6  -5 636.556 399.750   1
   6 -12   5-394.671 382.705   2
 -12   6   5-224.335 213.193   1
  -6  -6  -4 345440. 7634.05   1
   6   6   4 369907. 7750.21   1
   6 -12   4 395925. 7689.85   2
 -12   6   4 355100. 7526.21   1
  12  -6  -4 409344. 7753.31   1
  -6  -6  -4 394640. 7860.48   2
  -6  -6  -3 330.133 270.467   2
   6   6   3 49.9052 254.671   1
  12  -6  -3 59.7613 268.926   1
  -6  12  -3 364.072 273.338   1
   6 -12   3 241.114 269.865   1
  -6  -6  -3 16.5353 300.685   1
   6 -12   3 216.819 267.590   2
 -12   6   3 302.006 308.296   1
  -6  -6  -2 3852.91 711.451   2
  12  -6  -2 3556.21 623.015   1
   6   6   2 4604.22 756.082   1
  -6  12  -2 3883.68 696.955   1
   6 -12   2 3448.88 671.599   2
   6 -12   2 2605.23 563.434   1
 -12   6   2 3589.85 641.235   1
  12  -6  -1 367.397 284.590   1
  -6  -6  -1 557.926 419.198   2
  -6  12  -1 375.609 346.374   1
   6 -12   1-235.003 266.763   1
   6 -12   1-75.0239 233.375   2
 -12   6   1-153.535 298.617   1
  -6  12   0 149006. 4416.54   1
   6 -12   0 137083. 4263.01   1
 -12   6   0 140803. 4203.38   1
  12  -6   0 161602. 4404.20   1
   6 -12   0 148894. 4370.00   2
  -6  -6   0 130895. 4281.33   2
  -6  12   1-1.52694 223.460   1
   6 -12  -1 329.978 273.429   1
   6 -12  -1 755.690 433.147   2
  12  -6   1-29.8810 246.273   1
 -12   6  -1 195.913 293.508   1
   6 -12  -2-67.8166 317.282   1
  -6  12   2 417.393 291.427   1
  12  -6   2 281.142 247.938   1
   6 -12  -2 475.974 404.308   2
 -12   6  -2 244.184 238.187   1
   6 -12  -3 158.344 246.902   1
  -6  12   3 179.846 267.091   1
  12  -6   3 249.156 286.113   1
   6 -12  -3-279.301 286.919   2
 -12   6  -3 210.758 228.650   1
  -6  12   4 244645. 5835.31   1
   6 -12  -4 242464. 5922.80   1
  12  -6   4 259735. 5808.56   1
 -12   6  -4 242400. 5742.03   1
   6 -12  -4 242337. 5894.11   2
   6 -12  -5 589.061 380.492   1
  -6  12   5 222.746 221.377   1
  12  -6   5-338.755 334.065   1
   6 -12  -5 110.292 258.646   2
 -12   6  -5 487.164 344.328   1
  -6  12   6 18393.3 1475.45   1
   6 -12  -6 18463.8 1513.29   1
  12  -6   6 19454.8 1426.90   1
 -12   6  -6 18735.5 1443.44   1
   6 -12  -6 16373.4 1428.39   2
   6 -12  -7 374.468 286.891   2
   6 -12  -8 256899. 6362.88   2
  12  -7  -7 89391.2 3415.88   1
  -5  -7  -7 93393.2 3561.76   1
  -7  -5  -7 95697.1 3610.05   1
   5   7   7 96758.6 3574.98   1
   7   5   7 98867.3 3591.44   1
   5 -12   7 97719.6 3545.44   2
 -12   7   7 88103.3 3488.21   1
  -7  -5  -7 97878.0 3587.12   2
  12  -7  -6 178923. 4873.06   1
  -5  -7  -6 167839. 4937.99   1
  -7  -5  -6 167977. 4922.63   1
   5   7   6 174846. 4942.60   1
   7   5   6 169925. 4905.46   1
   7 -12   6 181482. 4984.00   2
   5 -12   6 172793. 4846.00   2
 -12   7   6 163125. 4825.00   1
  -5  -7  -6 185429. 5065.65   2
  -7  -5  -6 183774. 5082.42   2
  12  -7  -5 115394. 3767.59   1
  -5  -7  -5 103109. 3794.44   1
  -7  -5  -5 100675. 3721.03   1
   5   7   5 110941. 3850.46   1
 -12   5   5 105840. 3757.45   1
   7   5   5 109513. 3796.73   1
   7 -12   5 109438. 3733.02   2
  12  -5  -5 110613. 3780.18   1
   5 -12   5 114889. 3796.72   2
 -12   7   5 107667. 3734.67   1
  -5  -7  -5 115536. 3825.85   2
  -7  -5  -5 110568. 3870.17   2
 -12   7   4 3526.16 680.141   1
   5   7   4 4102.34 775.774   1
  -5  -7  -4 3597.62 675.848   2
  -7  -5  -4 5232.55 851.093   2
   7   5   4 4277.82 745.787   1
  -7  12  -4 4027.10 720.467   1
   7 -12   4 4301.02 722.189   1
  -5  -7  -4 3389.38 697.604   1
  -7  -5  -4 2877.92 655.732   1
  12  -7  -4 3977.62 696.411   1
   7 -12   4 4491.51 773.887   2
   5 -12   4 4643.63 751.280   2
  12  -5  -4 5514.31 837.222   1
 -12   5   4 5939.80 850.903   1
 -12   7   3 296.297 241.772   1
   5   7   3 792.613 426.591   1
  -5  -7  -3 256.718 327.607   2
  -7  -5  -3 278.002 395.732   2
   7   5   3 955.189 415.671   1
  -7  12  -3 189.669 275.980   1
  12  -7  -3 334.194 254.694   1
  -5  -7  -3 578.259 359.504   1
  -7  -5  -3 856.484 384.281   1
   7 -12   3 285.056 297.016   1
   7 -12   3-131.264 254.434   2
  12  -5  -3 549.591 272.928   1
   5 -12   3 724.984 423.811   2
 -12   5   3 168.776 315.206   1
  -7  12  -2 124692. 4032.63   1
   5 -12   2 118534. 3994.98   1
  -5  12  -2 120454. 4051.14   1
   7 -12   2 121562. 3998.66   1
   5   7   2 126470. 4150.88   1
  12  -5  -2 125401. 3951.75   1
 -12   5   2 110261. 3778.00   1
   7   5   2 127116. 4114.99   1
   7 -12   2 139521. 4202.59   2
   5 -12   2 137519. 4097.72   2
 -12   7   2 127911. 4021.72   1
  -5  -7  -2 124249. 4082.59   2
  -7  -5  -2 121029. 4083.97   2
  12  -7  -2 132296. 3960.13   1
  -7  12  -1 22626.0 1660.29   1
  -5  12  -1 22829.4 1665.74   1
   7 -12   1 20349.9 1569.64   1
  12  -5  -1 24554.4 1656.76   1
 -12   5   1 24629.9 1689.05   1
   7 -12   1 22934.0 1657.78   2
 -12   7   1 24531.8 1660.71   1
   5 -12   1 25428.2 1700.82   2
  -5  -7  -1 20725.5 1604.39   2
  12  -7  -1 24542.5 1627.83   1
  -7  -5  -1 20922.2 1641.66   2
  -7  12   0 21909.2 1569.22   1
  -5  12   0 20715.6 1562.86   1
   5 -12   0 20320.1 1597.52   1
  12  -5   0 20910.9 1509.09   1
   7 -12   0 19196.4 1475.50   1
 -12   5   0 22778.4 1581.53   1
   7 -12   0 20877.7 1592.43   2
 -12   7   0 21220.5 1553.14   1
   5 -12   0 22832.3 1618.99   2
  12  -7   0 20787.6 1495.70   1
  -5  -7   0 17806.6 1562.60   2
  -7  12   1 95150.4 3403.95   1
  -5  12   1 87446.9 3301.17   1
   5 -12  -1 86378.7 3315.47   1
  12  -5   1 94809.2 3270.36   1
 -12   5  -1 91759.9 3325.23   1
 -12   7  -1 91219.2 3306.60   1
   7 -12  -1 91471.7 3411.20   2
   5 -12  -1 91674.8 3333.10   2
  12  -7   1 94159.0 3251.47   1
   7 -12  -1 88168.8 3268.61   1
  -5  -7   1 82710.0 3264.11   2
   7 -12  -2 55193.9 2579.25   1
  -7  12   2 53568.5 2500.90   1
  -5  12   2 46442.4 2389.77   1
   5 -12  -2 47295.8 2440.76   1
  12  -5   2 56883.1 2511.64   1
 -12   5  -2 47458.1 2357.74   1
 -12   7  -2 54738.7 2503.80   1
   7 -12  -2 53917.1 2563.17   2
   5 -12  -2 53422.7 2526.67   2
  12  -7   2 56517.0 2505.66   1
  -7  12   3 7433.92 934.573   1
   7 -12  -3 7218.46 928.595   1
  -5  12   3 8246.78 989.139   1
   5 -12  -3 8439.62 1025.21   1
  12  -5   3 7937.91 917.723   1
 -12   5  -3 9163.34 991.512   1
 -12   7  -3 7584.94 930.438   1
  12  -7   3 7575.75 901.689   1
   7 -12  -3 7013.95 940.622   2
   5 -12  -3 7809.09 958.682   2
  -7  12   4 6936.01 921.588   1
   5 -12  -4 5731.66 850.789   1
  -5  12   4 5453.25 767.294   1
  12  -5   4 6939.02 885.400   1
 -12   5  -4 6522.09 908.912   1
  12  -7   4 7474.22 895.594   1
   5 -12  -4 5841.90 861.595   2
   7 -12  -4 6329.64 906.704   2
 -12   7  -4 6489.64 857.105   1
  -7  12   5 12013.8 1166.29   1
   7 -12  -5 10919.6 1150.19   1
  -5  12   5 12346.6 1213.92   1
   5 -12  -5 12706.9 1247.89   1
  12  -5   5 12919.8 1176.46   1
 -12   5  -5 10602.9 1104.63   1
  12  -7   5 10855.3 1129.94   1
 -12   7  -5 11612.3 1154.60   1
   7 -12  -5 9406.77 1106.53   2
   5 -12  -5 11494.0 1204.81   2
  -7  12   6 309141. 6622.87   1
   7 -12  -6 300058. 6605.74   1
  -5  12   6 281234. 6448.17   1
   5 -12  -6 299276. 6668.81   1
  12  -5   6 307834. 6476.76   1
  12  -7   6 273206. 6233.94   1
 -12   5  -6 332491. 6767.73   1
 -12   7  -6 310546. 6616.18   1
   7 -12  -6 276825. 6660.64   2
   5 -12  -6 292800. 6671.22   2
   7 -12  -7 49950.3 2646.69   2
   5 -12  -7 56478.0 2694.19   2
   5 -12  -8 16011.7 1448.22   2
   5 -12  -9 51336.2 2687.81   2
  12  -8  -8 3672.19 736.692   1
  12  -8  -7 59282.7 2696.41   1
  -4  -8  -7 51270.9 2639.15   1
   4   8   7 51830.3 2545.61   1
  12  -8  -6 204340. 5342.27   1
  -4  -8  -6 199100. 5483.16   1
  -8  -4  -6 210060. 5555.43   1
   4   8   6 212530. 5499.00   1
   4 -12   6 217321. 5500.49   2
   8   4   6 213561. 5505.78   1
 -12   8   6 195833. 5292.62   1
  -8  -4  -6 203017. 5463.70   2
  -8  -4  -5 7179.99 975.033   2
  12  -8  -5 8350.38 1007.74   1
  -4  -8  -5 7132.29 965.997   1
   4   8   5 7273.15 960.623   1
  -8  -4  -5 7117.55 969.592   1
   8 -12   5 7180.43 958.245   1
   4 -12   5 6617.29 922.954   2
   8   4   5 7571.40 1008.00   1
   8 -12   5 7788.52 985.781   2
 -12   8   5 7241.02 924.510   1
  -4  -8  -5 7728.55 994.272   2
  -8  12  -5 7707.90 962.882   1
  12  -8  -4 77276.1 3018.15   1
  -4  -8  -4 64978.4 2991.75   1
  -8  -4  -4 65685.9 2995.98   1
   4   8   4 67018.4 3000.66   1
  12  -4  -4 69373.3 2921.73   1
   8 -12   4 79914.7 3137.61   2
   8 -12   4 67349.0 2954.84   1
   4 -12   4 73156.6 3015.26   2
   8   4   4 77112.1 3110.12   1
 -12   8   4 79344.8 3093.84   1
  -4  -8  -4 77402.3 3105.13   2
  -8  12  -4 69619.7 2981.79   1
  -8  -4  -4 67993.6 3014.80   2
  12  -8  -3 48223.8 2345.92   1
  -4  -8  -3 41477.0 2355.40   1
  -8  -4  -3 42171.4 2360.20   1
   4   8   3 41685.1 2323.02   1
  12  -4  -3 43107.5 2257.81   1
 -12   4   3 44491.0 2326.60   1
   8 -12   3 44938.7 2344.48   2
   4 -12   3 47037.8 2336.51   2
   8   4   3 38499.0 2252.82   1
 -12   8   3 51852.5 2455.07   1
   8 -12   3 40406.0 2243.60   1
  -4  -8  -3 50981.5 2455.95   2
  -8  12  -3 44013.4 2330.36   1
  -8  -4  -3 39279.4 2305.03   2
   8 -12   2 106499. 3680.17   1
  12  -8  -2 110756. 3636.55   1
  12  -4  -2 118189. 3822.88   1
 -12   4   2 105062. 3677.68   1
   8 -12   2 110480. 3724.43   2
   4 -12   2 115329. 3769.80   2
   8   4   2 98884.6 3712.96   1
 -12   8   2 111627. 3693.69   1
  -4  -8  -2 109665. 3766.50   2
  -8  -4  -2 96842.7 3666.97   2
  -8  12  -2 109308. 3686.95   1
  12  -8  -1 29215.3 1765.28   1
  -4  12  -1 22090.0 1682.00   1
   8 -12   1 25322.2 1743.15   1
  12  -4  -1 25424.5 1721.30   1
 -12   4   1 23865.6 1697.16   1
   8 -12   1 27058.0 1836.40   2
   4 -12   1 26179.6 1691.24   2
 -12   8   1 31646.1 1837.48   1
  -4  -8  -1 24316.6 1732.43   2
  -8  12  -1 27261.0 1799.13   1
   8 -12   0 460.903 374.843   1
  -4  -8   0 290.950 247.640   2
 -12   8   0 223.558 283.040   1
  -8  12   0 348.820 293.453   1
   4 -12   0 38.7822 241.566   1
  -4  12   0 403.488 346.026   1
  12  -4   0 325.357 269.601   1
  12  -8   0 467.024 347.344   1
   8 -12   0-339.856 347.622   2
 -12   4   0-19.5358 221.522   1
   4 -12   0 474.016 365.894   2
  -4  -8   1 4406.00 781.496   2
 -12   8  -1 7063.50 887.224   1
  -8  12   1 5826.76 879.728   1
   4 -12  -1 4092.47 744.126   1
   8 -12  -1 6238.17 864.508   1
  12  -8   1 6284.06 840.978   1
  -4  12   1 4801.60 786.583   1
  12  -4   1 5930.61 822.422   1
   8 -12  -1 5624.45 844.513   2
 -12   4  -1 6128.53 842.595   1
   4 -12  -1 5384.44 796.896   2
  -8  12   2 100146. 3535.48   1
  -4  12   2 95629.8 3492.47   1
   4 -12  -2 94729.2 3557.14   1
  12  -4   2 105484. 3545.36   1
   8 -12  -2 102846. 3568.10   1
 -12   4  -2 108812. 3621.64   1
   8 -12  -2 97711.0 3593.82   2
 -12   8  -2 109596. 3658.44   1
   4 -12  -2 107179. 3599.64   2
  -4  -8   2 84639.5 3377.17   2
  12  -8   2 102870. 3421.71   1
  -8  12   3 57137.8 2624.22   1
   4 -12  -3 51139.1 2564.98   1
  -4  12   3 51681.4 2521.39   1
  12  -4   3 49979.6 2424.86   1
 -12   4  -3 64138.7 2700.20   1
   8 -12  -3 56700.8 2608.32   1
   8 -12  -3 54219.8 2657.91   2
 -12   8  -3 60774.5 2634.92   1
   4 -12  -3 55247.8 2584.70   2
  12  -8   3 56657.7 2489.13   1
  12  -8   4 2984.12 572.621   1
   8 -12  -4 1766.38 465.261   1
   4 -12  -4 1353.25 502.220   1
  12  -4   4 1233.61 438.790   1
  -8  12   4 2274.88 513.692   1
  -4  12   4 1401.19 502.324   1
 -12   4  -4 1225.82 424.020   1
   8 -12  -4 1749.47 490.719   2
   4 -12  -4 1621.78 495.101   2
 -12   8  -4 2118.23 486.095   1
  -8  12   5 103646. 3576.00   1
   4 -12  -5 101555. 3629.40   1
  -4  12   5 100817. 3572.89   1
  12  -4   5 103315. 3517.31   1
 -12   4  -5 113214. 3700.50   1
 -12   8  -5 102267. 3542.69   1
  12  -8   5 108568. 3551.08   1
   4 -12  -5 105358. 3673.59   2
   8 -12  -5 109140. 3630.51   1
   4 -12  -6 125937. 4071.10   1
  -4  12   6 124406. 4009.90   1
   4 -12  -6 128046. 4098.44   2
   4 -12  -7 59630.9 2771.56   2
  -9  -3  -6 12092.0 1281.60   2
  -3  -9  -6 11334.7 1255.98   1
   3   9   6 12150.1 1243.47   1
  -9  12  -6 13533.1 1334.89   1
 -12   9   5 1583.22 456.015   1
  -9  -3  -5 1801.23 564.131   2
  -9  12  -5 1031.40 410.768   1
   9   3   5 1817.95 547.827   1
  -3  -9  -5 1604.26 537.758   1
  12  -9  -5 1387.99 508.992   1
  -9  -3  -5 1658.73 473.077   1
   9 -12   5 1480.49 470.896   1
   3   9   5 1693.70 444.389   1
  -9  -3  -4 308777. 7248.11   2
  12  -9  -4 367722. 7259.12   1
  -3  -9  -4 289993. 7038.15   1
  -9  -3  -4 290858. 7017.29   1
   3   9   4 313224. 7089.41   1
   9 -12   4 310081. 6968.76   1
   9 -12   4 337843. 7160.20   2
   3 -12   4 349108. 7200.29   2
 -12   9   4 383502. 7443.38   1
   9   3   4 314109. 7089.50   1
  -3  -9  -4 344888. 7122.77   2
  -9  12  -4 321099. 7063.06   1
  -3  -9  -3 7461.97 946.222   2
  -9  -3  -3 7098.96 983.303   2
  12  -9  -3 10308.0 1088.51   1
  12  -3  -3 7659.59 971.595   1
   3   9   3 7847.24 1016.61   1
  -9  -3  -3 7007.15 982.420   1
   9 -12   3 8801.74 1017.28   1
   9 -12   3 9309.66 1097.74   2
 -12   9   3 9818.28 1069.06   1
   9   3   3 7761.92 1020.48   1
   3 -12   3 7894.42 956.366   2
  -9  12  -3 9066.07 1051.85   1
  -3  -9  -2 872.926 453.034   2
 -12   9   2 1085.19 388.012   1
   9 -12   2 939.511 417.687   1
  -9  12  -2 1172.65 409.754   1
  12  -9  -2 1105.03 459.353   1
  12  -3  -2 585.536 417.531   1
   9   3   2 658.659 327.485   1
  -9  -3  -2 459.842 304.524   1
   9 -12   2-97.9636 338.541   2
 -12   3   2 299.966 275.377   1
   3 -12   2 1712.14 526.606   2
  -3  -9  -1 1429.15 505.840   2
 -12   9   1 2529.38 571.366   1
  12  -9  -1 2193.96 511.592   1
  -9  12  -1 1392.58 456.054   1
  12  -3  -1 1095.16 417.458   1
   9 -12   1 1981.54 554.142   1
   9 -12   1 1055.40 406.277   2
 -12   3   1 1102.04 443.763   1
   3 -12   1 1127.57 388.311   2
   9 -12   0 108267. 3696.04   1
  12  -9   0 107002. 3570.63   1
  -3  12   0 87610.4 3471.20   1
  12  -3   0 98126.8 3541.43   1
 -12   3   0 99353.7 3580.22   1
   9 -12   0 106234. 3805.04   2
   3 -12   0 104213. 3599.67   2
 -12   9   0 115528. 3714.22   1
  -3  -9   0 100715. 3641.88   2
  -9  12   0 111195. 3711.20   1
 -12   9  -1 79.0050 278.997   1
  12  -3   1-26.6635 239.047   1
  -9  12   1-122.706 297.428   1
   3 -12  -1 52.9408 308.484   1
  -3  12   1 235.908 258.645   1
   9 -12  -1 34.7237 268.024   1
  12  -9   1 354.730 290.287   1
   9 -12  -1 333.521 270.774   2
 -12   3  -1-11.8970 241.207   1
   3 -12  -1 270.979 223.293   2
  -3  -9   1 796.300 444.487   2
  -9  12   2 8602.31 986.842   1
  12  -9   2 9744.94 1025.51   1
   3 -12  -2 6882.04 959.728   1
  -3  12   2 9049.06 1063.94   1
   9 -12  -2 9217.29 1006.07   1
  12  -3   2 9640.18 1048.01   1
 -12   3  -2 8874.94 1052.78   1
   9 -12  -2 8025.42 1025.25   2
 -12   9  -2 10225.7 1038.03   1
   3 -12  -2 10076.7 1090.34   2
  -3  -9   2 7535.23 995.141   2
 -12   9  -3 2115.76 561.649   1
   9 -12  -3 2001.33 527.537   1
  12  -3   3 1171.23 467.364   1
  -9  12   3 2498.80 585.499   1
   3 -12  -3 347.969 337.175   1
  12  -9   3 1333.31 318.080   1
  -3  12   3 800.960 374.967   1
 -12   3  -3 1568.28 441.190   1
   9 -12  -3 1650.40 470.468   2
   3 -12  -3 1579.09 513.279   2
  -3  -9   3 1410.56 436.127   2
   3 -12  -4 235697. 5947.00   1
  -3  12   4 238563. 5856.87   1
  12  -3   4 250028. 5791.89   1
 -12   3  -4 242071. 5842.67   1
   9 -12  -4 224059. 5953.56   2
 -12   3  -5 1616.57 478.415   2
   3 -12  -5 1873.44 515.413   1
  -3  12   5 2032.37 579.003   1
 -12   3  -6 135.986 294.141   2
  10   2   4 4144.39 728.460   1
 -10  -2  -4 4954.18 857.428   1
   2  10   4 5788.82 861.547   1
 -10  -2  -3 78983.3 3376.05   1
  10   2   3 91334.5 3507.24   1
  10   2   2 94332.7 3585.59   1
  12  -2  -1 29863.2 1971.04   1
  12  -2   0 12325.4 1240.49   1
 -12   2   0 10489.4 1189.33   1
  -2 -10   0 11363.2 1202.14   2
  12  -2   1 208.000 254.110   1
 -12   2  -1 1180.09 466.004   1
  10 -12  -1 300.755 328.266   2
  -2 -10   1 399.903 360.881   2
   2 -12  -2 78878.5 3373.70   1
  -2  12   2 82406.1 3299.43   1
  12  -2   2 88302.3 3378.56   1
 -12   2  -2 88663.7 3429.17   1
  10 -12  -2 85252.6 3478.68   2
  -2 -10   2 81837.3 3324.99   2
   2 -12  -3 17465.2 1537.98   1
  -2  12   3 17392.2 1496.08   1
  -2 -10   3 15293.3 1433.28   2
  -7  13  -2 56728.3 2753.75   1
  -6  -7  -2 56709.4 2782.45   2
  -7  -6  -2 56032.2 2801.76   2
  -6  -7  -1 1051.83 406.744   2
  -7  13  -1 708.529 371.315   1
  -6  13  -1 808.989 380.884   1
   7 -13   1 1112.86 431.026   1
  -7  13   0 855.679 362.183   1
  -6  13   0-50.0004 276.311   1
   7 -13   0 434.702 264.116   1
   6 -13   0 347.194 252.878   1
  -6  13   1 644.424 316.142   1
   6 -13  -1 959.796 381.529   1
  -5  13   0 191727. 5343.89   1
   5 -13  -1 494.287 411.478   1
  -5  13   1 538.403 373.759   1
   0   0   0    0.00    0.00   0

;
_shelx_hkl_checksum              9174
loop_
_space_group_symop_operation_xyz
'x, y, z'
'-y, x-y, z'
'-x+y, -x, z'
'-y, -x, -z+1/2'
'-x+y, y, -z+1/2'
'x, x-y, -z+1/2'
'-x, -y, -z'
'y, -x+y, -z'
'x-y, x, -z'
'y, x, z-1/2'
'x-y, -y, z-1/2'
'-x, -x+y, z-1/2'
loop_
_atom_site_label
_atom_site_type_symbol
_atom_site_fract_x
_atom_site_fract_y
_atom_site_fract_z
_atom_site_U_iso_or_equiv
_atom_site_adp_type
_atom_site_occupancy
_atom_site_site_symmetry_order
_atom_site_calc_flag
_atom_site_refinement_flags_posn
_atom_site_refinement_flags_adp
_atom_site_refinement_flags_occupancy
Co1 Co 0.6667 0.3333 0.2500 0.00551(9) Uani 1 6 d S T P
Fe1 Fe 1.0000 0.0000 0.0000 0.00419(9) Uani 1 6 d S T P
O1 O 0.88343(10) 0.34369(9) 0.16801(5) 0.01392(14) Uani 1 1 d . . .
O2 O 1.01329(8) 0.20882(9) 0.08300(5) 0.00982(13) Uani 1 1 d . . .
C1 C 0.87310(12) 0.21021(12) 0.11995(6) 0.01019(15) Uani 1 1 d . . .
H1 H 0.7551 0.1052 0.1107 0.028(5) Uiso 1 1 calc R . .
C2 C 1.3333 0.6667 0.1568(7) 0.105(2) Uani 1 3 d S T P
N1 N 1.2773(3) 0.5545(7) 0.2500 0.080(3) Uani 0.334 2 d S T P
loop_
_atom_site_aniso_label
_atom_site_aniso_U_11
_atom_site_aniso_U_22
_atom_site_aniso_U_33
_atom_site_aniso_U_23
_atom_site_aniso_U_13
_atom_site_aniso_U_12
Co1 0.00513(10) 0.00513(10) 0.00628(15) 0.000 0.000 0.00256(5)
Fe1 0.00364(10) 0.00364(10) 0.00528(15) 0.000 0.000 0.00182(5)
O1 0.0141(3) 0.0107(3) 0.0163(3) -0.0045(2) 0.0046(2) 0.0057(2)
O2 0.0096(2) 0.0094(2) 0.0112(3) -0.00185(19) 0.00144(18) 0.0054(2)
C1 0.0101(3) 0.0106(3) 0.0117(4) -0.0031(2) -0.0009(2) 0.0065(3)
C2 0.0188(7) 0.0188(7) 0.278(7) 0.000 0.000 0.0094(3)
N1 0.0157(14) 0.0089(16) 0.212(10) 0.000 -0.036(3) 0.0045(8)
loop_
_atom_type_symbol
_atom_type_description
_atom_type_scat_dispersion_real
_atom_type_scat_dispersion_imag
_atom_type_scat_source
C C 0.0030 0.0010 'International Tables Vol C Tables 4.2.6.8 and 6.1.1.4'
H H 0.0000 0.0000 'International Tables Vol C Tables 4.2.6.8 and 6.1.1.4'
N N 0.0050 0.0030 'International Tables Vol C Tables 4.2.6.8 and 6.1.1.4'
O O 0.0090 0.0050 'International Tables Vol C Tables 4.2.6.8 and 6.1.1.4'
Fe Fe 0.3380 0.7600 'International Tables Vol C Tables 4.2.6.8 and 6.1.1.4'
Co Co 0.3460 0.8760 'International Tables Vol C Tables 4.2.6.8 and 6.1.1.4'
loop_
_geom_angle_atom_site_label_1
_geom_angle_atom_site_label_2
_geom_angle_atom_site_label_3
_geom_angle
_geom_angle_site_symmetry_1
_geom_angle_site_symmetry_3
O1 Co1 O1 89.60(4) 4_665 .
O1 Co1 O1 93.44(3) 4_665 6
O1 Co1 O1 83.65(4) . 6
O1 Co1 O1 83.65(4) 4_665 3_665
O1 Co1 O1 93.44(3) . 3_665
O1 Co1 O1 175.92(4) 6 3_665
O1 Co1 O1 175.92(4) 4_665 2_655
O1 Co1 O1 93.44(3) . 2_655
O1 Co1 O1 89.60(4) 6 2_655
O1 Co1 O1 93.44(3) 3_665 2_655
O1 Co1 O1 93.44(3) 4_665 5_655
O1 Co1 O1 175.92(4) . 5_655
O1 Co1 O1 93.44(3) 6 5_655
O1 Co1 O1 89.60(4) 3_665 5_655
O1 Co1 O1 83.65(4) 2_655 5_655
O2 Fe1 O2 180.00(4) 9_545 3_765
O2 Fe1 O2 88.64(3) 9_545 .
O2 Fe1 O2 91.36(3) 3_765 .
O2 Fe1 O2 88.64(3) 9_545 2_645
O2 Fe1 O2 91.36(3) 3_765 2_645
O2 Fe1 O2 91.36(3) . 2_645
O2 Fe1 O2 91.36(3) 9_545 8_665
O2 Fe1 O2 88.64(3) 3_765 8_665
O2 Fe1 O2 88.64(3) . 8_665
O2 Fe1 O2 180.00(3) 2_645 8_665
O2 Fe1 O2 91.36(3) 9_545 7_755
O2 Fe1 O2 88.64(3) 3_765 7_755
O2 Fe1 O2 180.0 . 7_755
O2 Fe1 O2 88.64(3) 2_645 7_755
O2 Fe1 O2 91.36(3) 8_665 7_755
C1 O1 Co1 124.86(6) . .
C1 O2 Fe1 124.88(6) . .
O1 C1 O2 123.95(8) . .
N1 C2 N1 54.7(4) 3_775 .
N1 C2 N1 54.7(4) 3_775 2_755
N1 C2 N1 54.7(4) . 2_755
N1 N1 N1 60.001(1) 3_775 2_755
N1 N1 C2 62.6(2) 3_775 4_775
N1 N1 C2 62.6(2) 2_755 4_775
N1 N1 C2 62.6(2) 3_775 .
N1 N1 C2 62.6(2) 2_755 .
C2 N1 C2 115.9(5) 4_775 .
loop_
_geom_bond_atom_site_label_1
_geom_bond_atom_site_label_2
_geom_bond_distance
_geom_bond_site_symmetry_2
Co1 O1 2.0704(7) 4_665
Co1 O1 2.0704(7) .
Co1 O1 2.0704(7) 6
Co1 O1 2.0704(7) 3_665
Co1 O1 2.0704(7) 2_655
Co1 O1 2.0704(7) 5_655
Fe1 O2 2.0145(6) 9_545
Fe1 O2 2.0145(6) 3_765
Fe1 O2 2.0145(6) .
Fe1 O2 2.0145(6) 2_645
Fe1 O2 2.0145(6) 8_665
Fe1 O2 2.0145(6) 7_755
O1 C1 1.2448(10) .
O2 C1 1.2633(10) .
C2 N1 1.504(9) 3_775
C2 N1 1.504(9) .
C2 N1 1.504(9) 2_755
N1 N1 1.383(8) 3_775
N1 N1 1.383(8) 2_755
N1 C2 1.504(9) 4_775
