#------------------------------------------------------------------------------
#$Date: 2017-02-04 00:27:10 +0200 (Sat, 04 Feb 2017) $
#$Revision: 191261 $
#$URL: file:///home/coder/svn-repositories/cod/cif/4/34/51/4345113.cif $
#------------------------------------------------------------------------------
#
# This file is available in the Crystallography Open Database (COD),
# http://www.crystallography.net/
#
# All data on this site have been placed in the public domain by the
# contributors.
#
data_4345113
loop_
_publ_author_name
'Mazzuca, Lidia'
'Ca\~nadillas-Delgado, Laura'
'Rodr\'iguez-Velamaz\'an, J Alberto'
'Fabelo, Oscar'
'Scarrozza, Marco'
'Stroppa, Alessandro'
'Picozzi, Silvia'
'Zhao, Jiong-Peng'
'Bu, Xian-He'
'Rodr\'iguez-Carvajal, Juan'
_publ_section_title
;
 Magnetic Structures of Heterometallic M(II)-M(III) Formate Compounds.
;
_journal_issue                   1
_journal_name_full               'Inorganic chemistry'
_journal_page_first              197
_journal_page_last               207
_journal_paper_doi               10.1021/acs.inorgchem.6b01866
_journal_volume                  56
_journal_year                    2017
_chemical_formula_sum            'C8 H14 Co Fe N O12'
_chemical_formula_weight         430.97
_chemical_name_systematic
;
 ?
;
_space_group_crystal_system      trigonal
_space_group_IT_number           163
_space_group_name_Hall           '-P 3 2c'
_space_group_name_H-M_alt        'P -3 1 c'
_symmetry_space_group_name_Hall  '-P 3 2c'
_symmetry_space_group_name_H-M   'P -3 1 c'
_atom_sites_solution_hydrogens   geom
_audit_creation_method           SHELXL-2014
_cell_angle_alpha                90
_cell_angle_beta                 90
_cell_angle_gamma                120
_cell_formula_units_Z            2
_cell_length_a                   8.21140(10)
_cell_length_b                   8.21140(10)
_cell_length_c                   13.6951(3)
_cell_measurement_reflns_used    6336
_cell_measurement_temperature    105(2)
_cell_measurement_theta_max      32.2850
_cell_measurement_theta_min      4.8870
_cell_volume                     799.71(2)
_computing_cell_refinement       'CrysAlis PRO software program'
_computing_data_collection       'CrysAlis PRO software program'
_computing_data_reduction        'CrysAlis PRO software program'
_computing_molecular_graphics    'Mercury (McRae, 2006)'
_computing_publication_material  'WINGX (Farrugia, 1999)'
_computing_structure_refinement  'SHELXL-2014 (Sheldrick, 2014)'
_computing_structure_solution    'SHELXL-2014 (Sheldrick, 2014)'
_diffrn_ambient_temperature      105(2)
_diffrn_measured_fraction_theta_full 0.815
_diffrn_measured_fraction_theta_max 0.864
_diffrn_measurement_device_type  'CRISTAL beamline, SOLEIL synchrotron'
_diffrn_radiation_type           synchrotron
_diffrn_radiation_wavelength     0.66951
_diffrn_reflns_av_R_equivalents  0.0789
_diffrn_reflns_av_unetI/netI     0.0309
_diffrn_reflns_Laue_measured_fraction_full 0.815
_diffrn_reflns_Laue_measured_fraction_max 0.864
_diffrn_reflns_limit_h_max       12
_diffrn_reflns_limit_h_min       -12
_diffrn_reflns_limit_k_max       13
_diffrn_reflns_limit_k_min       -13
_diffrn_reflns_limit_l_max       19
_diffrn_reflns_limit_l_min       -19
_diffrn_reflns_number            9188
_diffrn_reflns_point_group_measured_fraction_full 0.815
_diffrn_reflns_point_group_measured_fraction_max 0.864
_diffrn_reflns_theta_full        23.685
_diffrn_reflns_theta_max         32.464
_diffrn_reflns_theta_min         5.582
_diffrn_source                   synchrotron
_exptl_absorpt_coefficient_mu    1.617
_exptl_absorpt_correction_T_max  1.00000
_exptl_absorpt_correction_T_min  0.90739
_exptl_absorpt_correction_type   multi-scan
_exptl_absorpt_process_details
;
CrysAlisPro, Agilent Technologies,
Version 1.171.37.33 (release 27-03-2014 CrysAlis171 .NET)
(compiled Mar 27 2014,17:12:48)
Empirical absorption correction using spherical harmonics,
 implemented in SCALE3 ABSPACK scaling algorithm.
;
_exptl_crystal_colour            red
_exptl_crystal_density_diffrn    1.790
_exptl_crystal_description       prism
_exptl_crystal_F_000             436
_exptl_crystal_size_max          0.09
_exptl_crystal_size_mid          0.07
_exptl_crystal_size_min          0.06
_refine_diff_density_max         0.664
_refine_diff_density_min         -0.534
_refine_diff_density_rms         0.110
_refine_ls_extinction_method     none
_refine_ls_goodness_of_fit_ref   1.228
_refine_ls_hydrogen_treatment    refU
_refine_ls_matrix_type           full
_refine_ls_number_parameters     41
_refine_ls_number_reflns         1008
_refine_ls_number_restraints     0
_refine_ls_restrained_S_all      1.228
_refine_ls_R_factor_all          0.0462
_refine_ls_R_factor_gt           0.0432
_refine_ls_shift/su_max          0.000
_refine_ls_shift/su_mean         0.000
_refine_ls_structure_factor_coef Fsqd
_refine_ls_weighting_details
'w=1/[\s^2^(Fo^2^)+(0.1013P)^2^+0.2666P] where P=(Fo^2^+2Fc^2^)/3'
_refine_ls_weighting_scheme      calc
_refine_ls_wR_factor_gt          0.1389
_refine_ls_wR_factor_ref         0.1600
_reflns_Friedel_coverage         0.000
_reflns_number_gt                966
_reflns_number_total             1008
_reflns_threshold_expression     'I > 2\s(I)'
_cod_data_source_file            FeCo_105K.cif
_cod_data_source_block           shelx
_cod_original_cell_volume        799.71(3)
_cod_database_code               4345113
_shelx_space_group_comment
;
The symmetry employed for this shelxl refinement is uniquely defined
by the following loop, which should always be used as a source of
symmetry information in preference to the above space-group names.
They are only intended as comments.
;
_shelxl_version_number           2014-3
_shelx_res_file
;
TITL FeCo_warm7 in P-31c
CELL  0.66951   8.2114   8.2114  13.6951   90.000   90.000  120.000
ZERR     2.00   0.0001   0.0001   0.0003    0.000    0.000    0.000
LATT   1
SYMM  - Y,   X - Y,   Z
SYMM  - X + Y, - X,   Z
SYMM  - Y, - X, 1/2 - Z
SYMM  - X + Y,   Y, 1/2 - Z
SYMM    X,   X - Y, 1/2 - Z
SFAC  C        2.31000 20.84392  1.02000 10.20751   1.58860   0.56870 =
         0.86500  51.65125   0.21560   0.003   0.001     5.315   0.770  12.011
SFAC  H        0.49300 10.51091  0.32291 26.12573   0.14019   3.14236 =
         0.04081  57.79977   0.00304   0.000   0.000     0.000   0.320   1.008
SFAC  N       12.21261  0.00570  3.13220  9.89331   2.01250  28.99754 =
         1.16630   0.58260 -11.52901   0.005   0.003    10.897   0.700  14.007
SFAC  O        3.04850 13.27711  2.28680  5.70111   1.54630   0.32390 =
         0.86700  32.90894   0.25080   0.009   0.005    20.072   0.660  15.999
SFAC  FE      11.76951  4.76111  7.35731  0.30720   3.52220  15.35351 =
         2.30450  76.88058   1.03690   0.338   0.760  2867.351   1.260  55.845
SFAC  CO      12.28411  4.27910  7.34091  0.27840   4.00340  13.53591 =
         2.34880  71.16927   1.01180   0.346   0.876  3304.255   1.260  58.933
UNIT  16   28   2    24   2    2
MERG   2
FMAP   2
PLAN   20
ACTA
L.S.   8
TEMP    20.00
WGHT    0.101300    0.266600
FVAR      24.75574
CO1   6    0.666667    0.333333    0.250000    10.16667    0.01260    0.01260 =
         0.01910    0.00000    0.00000    0.00630
FE1   5    1.000000    0.000000    0.000000    10.16667    0.01196    0.01196 =
         0.01709    0.00000    0.00000    0.00598
O1    4    0.883237    0.343197    0.168195    11.00000    0.02327    0.02179 =
         0.03667   -0.00725    0.00677    0.01077
O2    4    1.012870    0.208904    0.082874    11.00000    0.02089    0.02165 =
         0.03030   -0.00470    0.00289    0.01163
C1    1    0.873626    0.209672    0.120935    11.00000    0.02033    0.02158 =
         0.02825   -0.00500    0.00026    0.01254
AFIX  43
H1    2    0.755905    0.103234    0.113120    11.00000    0.04741
AFIX   0
C2    1    1.333333    0.666667    0.150964    10.33333    0.03655    0.03655 =
         0.72098    0.00000    0.00000    0.01827
N1    3    1.278378    0.556757    0.250000    10.16700    0.05123    0.01941 =
         0.46708    0.00000   -0.11476    0.00971
HKLF    4  1.0  0.00  1.00  0.00  1.00  0.00  0.00  0.00  0.00 -1.00

REM  FeCo_warm7 in P-31c
REM R1 =  0.0432 for     966 Fo > 4sig(Fo)  and  0.0462 for all    1008 data
REM     41 parameters refined using      0 restraints

END

WGHT      0.1013      0.2666

REM Highest difference peak  0.664,  deepest hole -0.534,  1-sigma level  0.110
Q1    1   1.0001  0.0935  0.0401  11.00000  0.05    0.66
Q2    1   0.9086  0.3008  0.1395  11.00000  0.05    0.56
Q3    1   0.7603  0.3372  0.2881  11.00000  0.05    0.51
Q4    1   1.3333  0.6667  0.2500  10.16667  0.05    0.49
Q5    1   0.9469  0.1685  0.1281  11.00000  0.05    0.47
Q6    1   0.8057  0.4022  0.1484  11.00000  0.05    0.43
Q7    1   0.8625  0.3214  0.0096  11.00000  0.05    0.42
Q8    1   1.3333  0.6667  0.0978  10.33333  0.05    0.41
Q9    1   1.0834  0.1481  0.0900  11.00000  0.05    0.40
Q10   1   0.9996  0.2848  0.2595  11.00000  0.05    0.38
Q11   1   0.6254  0.1973  0.0821  11.00000  0.05    0.38
Q12   1   0.8484  0.3218  0.2135  11.00000  0.05    0.37
Q13   1   0.9484  0.3604  0.1350  11.00000  0.05    0.37
Q14   1   1.2451  0.7209  0.1076  11.00000  0.05    0.37
Q15   1   1.0000  0.0000  0.1474  10.33333  0.05    0.35
Q16   1   0.9337  0.0781  0.0997  11.00000  0.05    0.34
Q17   1   0.7055  0.2363  0.0904  11.00000  0.05    0.34
Q18   1   0.5842 -0.0021  0.0566  11.00000  0.05    0.33
Q19   1   1.3337  0.5619  0.1782  11.00000  0.05    0.32
Q20   1   0.8618 -0.0682 -0.0025  11.00000  0.05    0.32
;
_shelx_res_checksum              93434
_shelx_hkl_file
;
   0   0   3 25.5558 10.7043   1
   0   0  -3-132.428 118.553   1
   0   0   5 758.991 202.628   1
   0   0  -5-24.5721 159.077   1
   0   0  -6 91861.2 2841.03   1
   0   0   6 96899.2 3010.42   1
   0   0   7 168.300 109.271   1
   0   0  -7-317.398 246.805   1
   0   0  -9 13.2818 153.683   1
   0   0   9 239.558 226.162   1
   0   0 -10 22860.9 1867.73   1
   0   0  10 26039.2 2047.48   1
   0   0 -11 53.1792 221.531   1
   0   0  11-45.8615 154.068   1
   0   0  13 107.036 226.171   1
   0   0 -13-44.0159 289.464   1
  -1   0  -4 7327.15 701.704   2
  -1   0  -4 6606.52 431.439   1
   0   1   4 7780.18 565.431   1
  -1   1   4 6739.39 719.820   1
   1   0  -4 6438.46 760.340   1
  -1   1   4 5030.51 541.837   2
   1  -1  -4 3824.95 510.646   1
   0  -1  -4 8626.73 580.091   1
   1   0   4 6462.19 442.504   1
   0   1  -4 7341.77 803.266   1
  -1   0   4 5631.98 777.809   1
   1  -1   4 6718.72 701.331   1
  -1   1  -4 6439.69 692.096   1
  -1   0   4 4481.85 691.279   2
   0  -1   4 5414.58 749.285   1
   1  -1  -5 38633.7 1880.60   1
   1  -1   5 29095.0 1583.32   1
   1   0  -5 29761.6 1841.06   1
   0   1  -5 24247.5 1609.55   1
   0  -1  -5 36194.6 1363.65   1
  -1   1   5 25440.4 1504.37   1
   0  -1   5 22590.5 1565.12   1
  -1   0   5 18113.6 1531.32   1
  -1   0   5 25776.3 1703.91   2
  -1   1   5 24587.7 1315.99   2
  -1   0  -5 27473.3 1027.56   1
   1   0   5 25944.9 1036.63   1
  -1   1  -5 25847.8 1460.21   1
   0   1   5 22553.7 1087.94   1
   1  -1   6 100646. 3223.27   1
   1  -1  -6 99747.6 3235.59   1
  -1   0  -6 104916. 2347.55   1
  -1   0   6 96168.2 3548.41   1
   1   0  -6 96704.4 3482.66   1
   0   1  -6 99494.1 3486.12   1
   0  -1   6 92528.8 3457.62   1
  -1   1   6 110739. 3470.20   1
  -1   1   6 69482.8 2494.38   2
   0   1   6 89783.0 2447.04   1
  -1   1  -6 95171.9 3069.33   1
  -1   0   6 102472. 3899.11   2
   1   0   6 106135. 2407.21   1
   0  -1  -6 120910. 2778.75   1
  -1   0   7 183813. 5266.06   1
   1  -1  -7 264624. 5627.14   1
  -1   1  -7 225763. 5005.82   1
   0   1  -7 254448. 5893.42   1
  -1   0   7 223328. 5978.47   2
  -1   1   7 170925. 4710.35   1
   0  -1   7 218572. 5639.86   1
   1   0  -7 217285. 5547.42   1
   1  -1   7 239809. 5320.18   1
   1  -1  -8 77517.6 3212.07   1
   1  -1   8 96872.5 3527.95   1
  -1   1  -8 96529.6 3447.31   1
  -1   0   8 98692.8 4188.12   2
   1   0  -8 90503.7 3765.95   1
  -1   0  -8 93881.8 2736.67   1
   0   1  -8 109173. 4035.17   1
   1   0   8 104778. 3056.66   1
  -1   0   8 74130.9 3536.80   1
   0  -1  -8 68101.5 2462.05   1
   0   1   8 120336. 3385.78   1
   0  -1   8 93488.5 3854.17   1
  -1   1   8 64040.2 2844.88   2
  -1   1   8 92537.4 3661.35   1
  -1   0   9 487140. 9442.17   1
  -1   1   9 380958. 7801.34   1
   1  -1 -11 260791. 6886.07   1
  -1   1 -11 275119. 6910.71   1
  -1   0  11 356963. 8798.92   1
   1  -1  11 252723. 6838.96   1
  -1   1  11 334706. 7894.52   1
  -1   0  11 208066. 7111.30   2
   1   0 -11 313043. 7987.22   1
   0  -1  11 325668. 8358.53   1
   0  -1  12 125701. 5431.12   1
  -1   1  12 132924. 5206.46   1
   0   1  12 130816. 4617.59   1
  -1   0  12 114968. 5205.99   1
   1  -1  12 102665. 4565.77   1
   1   0 -12 95599.1 4662.39   1
  -1   1  12 69033.1 3746.42   2
   0   1 -12 151714. 5765.39   1
  -1   0  12 62336.6 4151.58   2
   1  -1 -12 147112. 5352.66   1
  -1   1 -12 135845. 5015.94   1
   1  -1  13 182038. 6543.56   1
   0   1 -13 204519. 7032.33   1
   0  -1  13 202144. 7324.11   1
  -1   0  13 219053. 7834.24   2
   1   0 -13 230764. 7517.78   1
  -1   1  13 289935. 8142.06   1
  -1   0  13 195776. 7030.08   1
   1  -1 -13 310627. 8278.24   1
   1   0 -14 489361. 11319.8   1
   0  -1  14 444376. 11094.6   1
   0  -1  15 28914.4 3907.54   2
  -2   1  15-98.5972 247.729   1
  -2   1  14 27666.9 2807.76   1
  -1   2 -14 26034.9 2644.64   1
  -2   1  13-40.6881 144.330   1
  -2   1  13 39.3447 267.750   2
   2  -1 -13-16.0973 378.448   1
   1  -2  13-159.639 82.9078   1
  -1   2 -13-117.200 305.813   1
  -1   2 -11 717.362 471.950   1
   1  -2  11 8.91486 313.143   1
  -2   1  11 112.129 370.808   2
  -2   1  11 293.276 356.474   1
   2  -1 -11-238.968 220.608   1
   1  -2  10 270475. 7395.03   1
   1   1  10 179374. 3454.36   1
  -1   2 -10 223315. 6524.55   1
   2  -1 -10 229520. 6860.28   1
  -2   1  10 203765. 6257.52   2
  -2   1  10 227416. 7002.61   1
  -1  -1  -9 76.4343 48.5071   1
  -2   1   9 553.607 403.435   1
  -1   2  -9 181.860 301.763   1
   1   1   9 85.4455 61.0426   1
   1  -2   9 340.954 304.964   1
  -2   1   9 190.673 84.6028   2
   2  -1  -9-6.91449 234.954   1
  -1   2  -7 23.0826 101.906   1
   2  -1  -7 79.6925 165.245   1
  -2   1   7-16.2510 170.002   2
  -2   1   7 214.165 206.878   1
   1  -2   7 288.734 267.656   1
   2  -1  -6 39478.0 2330.72   1
  -1   2  -6 38478.3 2289.52   1
  -2   1   6 30953.4 2001.17   2
   1  -2   6 31970.0 2222.92   1
  -2   1   6 37311.8 2355.27   1
  -2   1   5 52.0390 116.976   1
  -2   1   5 64.0732 250.540   2
  -1  -1  -5 172.327 178.194   2
   2  -1  -5-231.161 191.380   1
   1  -2   5 388.016 269.912   1
  -1   2  -5-72.2161 96.6450   1
  -1   2  -3-259.817 212.609   1
  -1  -1  -3 168.585 41.1280   2
   1  -2   3-454.319 287.093   1
   2  -1  -3 719.502 306.819   1
  -2   1   3 71.1535 205.168   2
  -2   1   3 273.490 148.038   1
  -1  -1  -1 140.345 123.250   2
   1  -2   1-29.6677 181.150   1
  -2   1   1 50.2152 157.890   1
  -2   1   1-131.392 204.530   2
  -1  -1  -1-253.044 142.688   1
   2  -1  -1 197.377 257.507   1
   1   1   1-187.299 125.510   1
   1   1  -1 116.930 23.1396   1
   1  -2  -1-116.789 94.2633   1
  -1   2   1-30.3033 141.680   1
   2  -1   1-56.0178 99.3810   1
  -2   1  -1 229.135 225.051   2
  -2   1  -1-212.732 239.560   1
  -1  -1   1 292.952 107.692   2
  -1  -1   1 225.717 120.195   1
  -1   2   3 80.8111 50.8247   2
  -1  -1   3-61.5035 208.284   2
  -2   1  -3 71.2192 122.995   2
  -1  -1   3 431.976 196.190   1
  -2   1  -3 172.979 93.4701   1
  -1   2   3 354.737 166.107   1
   2  -1   3-14.6606 50.4886   1
   1  -2  -3 160.691 59.0935   1
   1   1  -3-307.764 277.557   1
  -1  -1   5 168.292 86.1740   1
   1  -2  -5 80.2360 126.845   1
  -2   1  -5 60.6156 70.1655   1
  -1   2   5 180.329 43.6540   1
   2  -1   5 125.534 174.886   1
  -2   1  -5-160.498 117.632   2
  -1  -1   5-66.8288 265.005   2
   1   1  -5-260.004 300.075   1
   1   1  -6 3183.84 764.785   1
  -1   2   6 2532.21 508.180   1
   2  -1   6 4206.76 617.334   1
   1  -2  -6 3255.72 648.760   1
  -1  -1   6 3576.53 768.283   1
  -1   2   6 1892.66 264.289   2
  -1   2   7 84.5409 118.965   2
   1  -2  -7 33.7071 12.0709   1
   1   1  -7 263.309 255.649   1
  -2   1  -7 98.6849 117.099   1
  -1   2   7-54.2394 198.928   1
   2  -1   7 47.3798 100.988   1
  -1  -1   7 239.113 127.869   1
  -1  -1   9 643.377 340.925   1
   1   1  -9-350.624 481.468   1
  -1   2   9 29.8106 24.6453   2
  -1  -1   9-157.810 414.160   2
  -2   1  -9-133.279 197.283   1
   1  -2  -9-175.519 218.287   1
   2  -1   9 463.591 274.540   1
  -1   2   9 214.568 219.067   1
  -1  -1  10 120815. 5238.28   1
   1  -2 -10 118171. 4207.02   1
   2  -1  10 98658.9 3632.50   1
  -1  -1  10 118421. 5730.22   2
   1   1 -10 128929. 5228.14   1
  -2   1 -10 114103. 3811.72   1
  -1   2  10 90855.3 3878.63   1
  -1  -1  11 216.642 123.018   1
  -2   1 -11-16.3399 34.1401   1
  -1  -1  11 28.6903 278.881   2
  -1   2  11 332.623 254.975   1
   1  -2 -11 166.386 158.270   1
   2  -1  11 112.400 266.671   1
  -1  -1  13 85.2567 199.753   1
  -1  -1  13 61.5003 102.232   2
   1   1 -13-56.9745 366.477   1
  -1  -1  14 8324.36 1734.57   2
   1   1 -14 14103.1 1977.37   1
  -1  -1  14 12035.3 2012.67   1
   1   1 -15 176.913 221.437   1
  -1  -1  15 206.963 326.183   1
  -1  -1  15 52.2449 463.689   2
  -1  -1  16 108244. 6670.30   2
  -2   0  -1 221152. 4421.59   2
   0   2   1 162497. 3590.31   1
   0   2   7 196030. 3865.35   1
  -2   2   7 221991. 5910.35   1
  -2   2  -7 197501. 5332.76   1
   0   2  -7 279589. 6854.86   1
   2   0  -7 273991. 6903.49   1
  -2   0   7 192239. 5927.60   1
   0  -2   7 207065. 6133.29   1
   2  -2  -7 168373. 5116.59   1
  -2   2   7 195955. 4446.08   2
   2  -2   7 232940. 5895.35   1
  -2   0   7 194643. 5912.59   2
  -2   0  -8 7273.92 532.622   1
   0   2   8 7031.50 802.457   1
   2   0  -8 8455.04 1243.23   1
  -2   2   8 6209.50 993.741   1
   2  -2   8 10081.8 1300.38   1
  -2   0   8 7760.95 1229.22   2
   0   2  -8 7890.79 1209.16   1
   0  -2  -8 10811.9 918.600   1
  -2   0   8 9127.81 1328.16   1
   0  -2   8 8858.07 1272.18   1
   2  -2  -8 9021.74 1216.52   1
  -2   2  -8 9206.14 1205.44   1
   2   0   8 9386.62 657.560   1
  -2   2   8 8239.85 972.450   2
   0   2   9 79502.1 2748.67   1
  -2   2   9 128310. 4930.27   1
   0  -2   9 113034. 4915.90   1
  -2   0   9 110895. 4856.50   1
  -2   0  -9 96791.2 2131.03   1
   0  -2  -9 109544. 3118.50   1
   0   2  -9 99063.6 4499.11   1
  -2   2   9 103034. 3682.37   2
   2  -2   9 120523. 4600.18   1
  -2   0   9 98432.4 4566.91   2
   2   0  -9 61376.7 3598.74   1
  -2   2  -9 88441.6 3845.97   1
   2   0   9 105393. 2424.04   1
   2  -2  -9 103105. 4330.21   1
  -2   0  10 386637. 9529.39   1
   2   0 -10 486784. 10342.7   1
   0   2 -11 416863. 9873.03   1
   2  -2 -11 421122. 9522.52   1
  -2   0  11 417613. 10240.2   1
   0  -2  12 109735. 5367.53   1
   0   2 -12 136212. 5899.98   1
  -2   2 -12 134911. 5270.85   1
  -2   0  12 116936. 5586.41   2
   2   0 -12 144915. 6104.57   1
   2  -2  12 124335. 5175.35   1
   2  -2 -12 84982.7 4479.30   1
  -2   0  12 105824. 5337.52   1
  -2   2  13 205313. 7270.91   1
   2   0 -13 204089. 7473.46   1
   0  -2  13 216997. 7849.02   1
   2  -2  13 191476. 6627.75   1
   2  -2 -13 226954. 7567.24   1
  -2   0  13 164819. 6909.54   1
  -2   0  13 137032. 6391.06   2
   0   2 -13 189442. 7170.63   1
   2   0 -14 262092. 8846.45   1
  -2   0  14 318357. 10114.4   2
  -2   0  14 343592. 10371.2   1
   0   2 -14 323450. 9740.31   1
   0  -2  14 279449. 9387.92   1
   2   0 -15 10597.9 1745.04   1
  -2   0  15 7523.50 1654.97   2
  -2   0  15 7309.66 1529.72   1
   0  -2  15 7755.65 1639.36   1
   0   2 -15 5870.14 1311.55   1
   0  -2  16 3384.32 997.277   2
  -2   0  16 6013.82 1350.34   1
  -3   1  16 183582. 8245.92   1
   1  -3  15 62289.4 4611.73   1
  -3   2  15 58985.7 4420.72   1
  -3   1  15 46999.8 4066.23   1
   3  -1 -15 68921.7 4731.24   1
  -1   3 -15 77495.0 4960.31   1
  -3   1  14 270188. 9268.97   1
  -3   2  14 260443. 9022.35   1
   1  -3  14 231592. 8583.26   1
   3  -1 -14 310418. 9820.05   1
   3  -2 -14 192179. 7745.01   1
  -1   3 -14 231704. 8341.94   1
   2  -3  14 214618. 7979.93   1
  -3   1  13 32695.2 3156.62   1
  -2   3 -13 45527.1 3457.33   1
   2  -3  13 35795.0 3122.09   1
  -1   3 -13 42803.8 3467.53   1
  -3   1  13 30005.1 3003.81   2
   3  -1 -13 36159.7 3229.91   1
   1  -3  13 37333.0 3377.08   1
  -3   2  13 49536.8 3792.90   1
   3  -2 -13 53883.7 3920.39   1
   1  -3  12 2495.62 750.584   1
   3  -2 -12 2023.95 808.024   1
   3  -1 -12 1222.97 531.403   1
  -3   2  12 972.054 613.135   1
  -1   3 -12 1590.79 660.253   1
  -3   2  12 1440.14 431.674   2
   2  -3  12 1086.57 537.266   1
  -3   1  12 2032.54 731.529   1
  -2   3 -12 2221.49 765.688   1
  -3   1  12 1164.50 495.336   2
   1  -3  11 116535. 5431.97   1
  -3   1  11 102463. 5069.72   2
   3  -2 -11 86183.9 4669.15   1
  -3   2  11 104746. 4750.47   2
   3  -1 -11 122357. 5576.37   1
  -3   1  11 107391. 5338.87   1
  -1   3 -11 122366. 5492.70   1
   2  -3  11 99609.0 4944.29   1
  -3   2  11 82790.0 4627.38   1
  -2   3 -11 135378. 5567.94   1
  -3   1  10 386363. 9911.90   1
   1  -3  10 370534. 9538.43   1
  -3   1  10 323801. 8781.87   2
   3  -2 -10 339855. 8945.14   1
  -1   3 -10 365604. 9243.13   1
   2  -3  10 361716. 9193.88   1
   3  -2  -8 71132.3 3837.22   1
   3  -1  -8 55475.9 3340.88   1
  -2   3  -8 70702.5 3674.32   1
  -3   1   8 53084.5 3420.94   1
   1  -3   8 63543.6 3697.64   1
  -1   3  -8 62445.9 3599.54   1
  -3   2   8 47136.5 2889.94   2
  -3   2   8 70681.8 3837.23   1
  -3   1   8 58998.0 3450.33   2
   2  -3   8 63159.1 3576.70   1
  -2  -1  -8 62417.6 3004.27   2
   3  -2  -5 449925. 8694.50   1
  -3   2   3 65023.0 2789.05   2
   3  -2  -3 68770.1 3158.03   1
  -3   2   3 62070.1 3035.16   1
   3  -1  -3 69332.1 3103.07   1
  -3   1   3 66933.9 3070.19   2
   1  -3   3 73440.8 3291.14   1
  -1   3  -3 78314.3 3434.18   1
  -2  -1  -3 64939.0 1898.05   1
  -1  -2  -3 65704.3 2071.96   1
  -1  -2  -3 48918.5 1954.05   2
   2   1   3 61514.7 1898.46   1
   1   2   3 66581.5 2174.38   1
  -2  -1  -3 77208.4 2810.90   2
  -3   1   3 63485.2 2999.68   1
   2  -3   3 66133.5 3102.21   1
  -2   3  -3 59943.1 2901.16   1
  -3   1   1 275211. 5849.65   2
   3  -1  -1 257668. 5616.97   1
   1   2   0 454.283 199.831   1
  -3   2   0 1375.55 400.864   2
  -3   1   0 1024.59 152.481   2
   3  -1   0 1305.99 254.412   1
  -3   2   0 936.383 199.646   1
  -2  -1   0 1397.75 421.700   1
  -1  -2   0 1239.40 345.372   2
  -3   1   0 1829.61 487.207   1
   2  -3   0 1558.09 406.722   1
   2   1   0 1373.92 353.633   1
  -1   3   0 1398.57 356.766   1
  -2  -1   0 2686.91 502.842   2
  -2   3   0 1656.14 417.061   1
   3  -2   0 1475.29 455.347   1
  -1  -2   0 1836.24 466.212   1
  -2  -1   2 241793. 5644.74   1
  -3   1  -2 216268. 5368.75   2
  -1  -2   2 218138. 5727.27   2
  -2  -1   2 222013. 5677.77   2
  -3   2  -2 222753. 5003.08   1
   3  -1   2 241667. 4917.47   1
  -2   3   7 353632. 7669.02   1
  -1  -2   7 392235. 9005.86   1
  -1  -2   9 157182. 6032.80   1
   2   1  -9 141134. 5656.71   1
   3  -2   9 152938. 4933.89   1
  -3   2  -9 196597. 5386.12   1
  -2  -1   9 110381. 5246.35   1
  -3   1  -9 154328. 3794.28   1
  -2   3   9 113841. 2816.55   2
   1  -3  -9 175664. 5040.45   1
  -1  -2   9 175503. 6978.93   2
   3  -1   9 153660. 3967.59   1
   1   2  -9 160636. 5942.36   1
  -2  -1   9 110564. 5423.84   2
   2  -3  -9 160285. 5352.20   1
  -1   3   9 101231. 3872.17   1
  -2   3   9 129833. 4943.40   1
   2   1 -11 10102.4 1612.17   1
   2  -3 -11 11413.7 1557.09   1
  -1  -2  11 9972.10 1808.42   2
  -2  -1  11 10579.2 1755.40   2
  -1   3  11 10863.7 1363.52   1
  -2   3  11 6676.15 1248.64   1
  -3   2 -11 10494.3 1322.87   1
  -1  -2  11 8398.98 1533.64   1
   1   2 -11 12070.4 1761.57   1
  -2  -1  11 9365.98 1606.07   1
   3  -2  11 10143.8 1352.25   1
  -2  -1  12 3113.83 1050.47   1
   1   2 -12 4601.83 1118.74   1
   2   1 -12 4518.17 1125.74   1
  -1  -2  12 3686.90 1211.04   2
  -1  -2  12 3895.35 1121.02   1
  -2  -1  12 4762.61 1205.79   2
  -2   3  12 5053.08 1156.63   1
   2  -3 -12 2993.05 790.913   1
  -1  -2  13 32998.1 3465.91   2
   2   1 -13 28980.4 2870.71   1
  -2  -1  13 34911.6 3346.25   1
   1   2 -13 38800.6 3379.65   1
  -1  -2  13 34134.1 3274.67   1
  -2  -1  13 34897.2 3376.01   2
   1   2 -14 121467. 6248.32   1
  -1  -2  14 164636. 7506.82   1
  -1  -2  14 133986. 7045.46   2
  -2  -1  14 171626. 7512.05   1
   2   1 -14 172417. 7344.72   1
  -2  -1  14 121470. 6445.14   2
   2   1 -15 215176. 8589.84   1
  -2  -1  15 195977. 8750.08   2
  -1  -2  15 185179. 8635.22   2
  -2  -1  15 209865. 8561.52   1
  -1  -2  16 1168.34 613.584   1
  -1  -2  16 206.889 623.144   2
   2   1 -16 30.5405 276.057   1
  -2  -1  16 326.653 296.300   1
  -2  -1  16 13.8999 170.559   2
   1   2 -16 630.207 215.330   1
  -1  -2  17 126232. 7401.04   2
  -2  -1  17 204662. 8947.67   1
   0   3   1 2964.52 582.707   1
  -3   0   1 2692.74 608.121   2
  -3   0  -1 1990.48 490.010   2
   3   0  -1 1956.82 518.063   1
  -3   3   1 2108.50 502.921   1
   3  -3   1 1946.26 548.734   1
  -3   0  -1 2338.60 508.160   1
  -3   3   1 2547.72 497.685   2
   0   3  -1 1614.76 495.882   1
   0  -3   1 1693.73 405.980   1
   3  -3  -1 1928.07 527.732   1
  -3   3  -1 2261.89 566.320   2
   3   0   1 2097.07 435.713   1
   0  -3  -1 2178.57 509.830   1
  -3   3   2 62473.5 3015.10   1
   0  -3  -2 50133.0 2141.22   2
  -3   3  -2 62120.9 2926.08   1
   0  -3  -2 78638.1 2934.92   1
  -3   0   2 54121.4 2801.06   1
  -3   3   2 54817.8 2556.73   2
   0   3  -2 58128.6 3011.45   1
  -3   0  -2 51195.6 2214.03   1
   3   0  -2 56338.5 2807.18   1
   0   3   2 72264.9 2927.02   1
  -3   3  -2 59164.9 3044.89   2
   3  -3   2 51429.8 2730.96   1
   3  -3  -2 57819.9 2933.82   1
  -3   0   2 60178.7 3013.77   2
   3   0   2 59412.5 2359.63   1
   0  -3   2 56614.6 2937.83   1
  -3   0  -2 59624.1 2825.41   2
  -3   0  -3 34509.9 1704.43   1
  -3   0   3 46003.1 2670.10   2
   0  -3   3 46269.8 2669.04   1
   0  -3  -3 41597.3 1730.91   2
   0  -3  -3 72278.4 2727.29   1
   3  -3   3 50908.5 2709.33   1
  -3   3  -3 48464.4 2879.84   2
  -3   3   3 34264.3 2363.02   1
  -3   0  -3 29769.3 2085.29   2
  -3   3  -3 43943.8 2504.84   1
  -3   3   3 42941.6 2212.27   2
   3   0   3 42966.7 1921.43   1
   3  -3  -3 38065.0 2457.47   1
   3   0  -3 39690.7 2504.79   1
  -3   0   3 41171.4 2561.13   1
   0   3  -3 55186.6 2979.54   1
   0   3   3 33794.6 1902.12   1
   3   0  -5 25849.5 2164.71   1
   0   3  -5 23744.0 2116.74   1
  -3   0   5 19874.8 1950.02   2
   3  -3   5 24870.1 1993.03   1
   3  -3  -5 25663.1 2071.18   1
  -3   0  -5 22075.2 1855.81   2
   0  -3   5 20900.4 2041.64   1
  -3   0   5 26308.8 2193.41   1
   0   3   5 28601.3 1649.35   1
  -3   0  -5 27008.9 1229.71   1
  -3   3   5 21133.0 1596.92   2
   3   0   5 21911.8 1156.52   1
  -3   3   5 23805.7 2068.62   1
  -3   3  -5 21561.0 1876.19   1
   0  -3  -5 22351.0 1442.85   1
   0   3   6 2054.59 479.118   1
   0  -3   6 1381.51 526.096   1
  -3   0   6 1415.96 496.050   1
  -3   3   6 1502.03 482.248   2
  -3   0  -6 1806.74 527.299   2
  -3   0  -6 1821.99 279.603   1
  -3   3   6 1181.27 504.100   1
   3  -3   6 1656.82 554.154   1
   0   3  -6 1738.81 574.736   1
   0  -3  -6 2361.04 457.174   1
  -3   3  -6 2945.46 709.375   1
   3   0   6 1866.73 309.855   1
   3   0  -6 1648.22 563.070   1
   3  -3  -6 2334.27 704.173   1
  -3   0   6 1378.94 553.832   2
   0   3   7 18916.7 1332.60   1
  -3   3   7 16708.9 1809.73   1
  -3   3   7 19429.7 1593.18   2
   3   0  -7 22134.7 2140.80   1
   3  -3   7 21750.4 1997.20   1
  -3   3  -7 30014.2 2335.70   1
  -3   0   7 19211.9 2016.03   1
  -3   0   7 21336.9 2137.72   2
   0   3  -7 31342.4 2498.52   1
   3  -3  -7 20959.9 2022.28   1
   0  -3   7 23429.7 2201.55   1
  -3   0  -7 22686.7 1991.70   2
   0  -3  -7 18471.9 1299.60   1
   3  -3   9 16285.3 1787.18   1
   0   3  -9 18123.7 2047.98   1
  -3   3  -9 14609.1 1713.21   1
   0  -3  -9 16007.6 1196.95   1
  -3   3   9 13711.7 1365.08   2
  -3   0   9 15773.9 2005.33   2
   0  -3   9 12969.9 1828.42   1
   3  -3  -9 18205.8 2005.84   1
  -3   3   9 21961.9 2162.61   1
   0   3   9 18212.4 1270.02   1
  -3   0   9 10021.4 1571.46   1
   3   0  -9 13226.2 1728.15   1
   3  -3  10 1368.20 586.203   1
  -3   0  10 1231.16 519.644   1
   3  -3 -10 1982.69 670.307   1
   0   3 -10 1620.71 679.153   1
  -3   0  10 2002.12 674.147   2
  -3   3 -10 2947.03 764.857   1
  -3   3  10 2303.25 543.939   2
   0  -3  10 1689.71 743.503   1
  -3   3  10 2320.77 833.096   1
   3   0 -10 1308.19 491.055   1
  -3   3 -11 2185.48 698.459   1
   3   0 -11 1805.72 611.644   1
   3  -3 -11 1556.33 626.689   1
   0  -3  11 2037.45 833.258   1
   0   3 -11 1654.53 709.019   1
  -3   3  11 2397.75 827.775   1
  -3   0  11 1739.13 679.299   1
   3  -3  11 2578.65 748.511   1
  -3   0  11 1274.11 528.232   2
   0   3 -12 636092. 13594.2   1
   0  -3  12 658487. 13911.5   1
   3   0 -12 640048. 13719.2   1
   3  -3 -13 668.345 238.756   1
   0   3 -13 773.907 581.504   1
   3   0 -13 276.171 75.5845   1
  -3   3  13 267.813 328.716   1
  -3   0  13 658.001 434.389   1
   0  -3  13 339.200 159.314   1
  -3   0  13 120.000 307.240   2
  -3   0  14 694.861 568.514   2
   0   3 -14 446.806 375.978   1
   3   0 -14 785.276 220.225   1
   0  -3  14 706.003 515.471   1
  -3   3  14 582.956 489.438   1
  -3   0  14 1667.38 736.597   1
   0   3 -15 719.094 614.692   1
  -3   0  15 674.473 506.341   2
  -3   0  15 545.556 558.695   1
   0  -3  15 418.564 479.446   1
   3   0 -15 304.531 116.764   1
   0  -3  16 270190. 11030.1   2
  -3   0  16 390189. 12205.2   1
   0   3 -16 374236. 11741.5   1
   3   0 -16 521780. 13929.0   1
   0  -3  16 455408. 13234.4   1
  -3   0  17 462.925 179.902   1
   0  -3  17 292.053 662.077   2
   0  -3  18 44.8183 441.045   2
  -4   2  16 630446. 15652.3   1
   4  -2 -16 651934. 16060.7   1
   2  -4  15-9.18356 322.249   1
   4  -2 -15 271.542 476.105   1
  -4   2  15 281.138 216.676   1
   2  -4  14 66634.4 4653.11   1
  -2   4 -14 54942.2 4209.96   1
   4  -2 -14 62550.3 4650.14   1
   2  -4  13-71.9091 113.497   1
  -2   4 -13 122.638 337.394   1
   4  -2 -13 109.819 457.038   1
  -4   2  13 43.8004 241.904   1
  -2   4 -12 143465. 6382.17   1
  -4   2  12 143653. 6624.96   1
   4  -2 -12 129504. 6312.39   1
   2  -4  12 132690. 6265.22   1
  -4   2  12 130147. 6173.01   2
  -4   2  11-612.759 559.970   1
   4  -2 -11-122.479 261.945   1
  -2   4 -11 357.891 382.122   1
   2  -4  11-24.1749 131.636   1
  -4   2  11 154.887 409.482   2
  -4   2  10 248869. 7908.32   2
  -2   4 -10 267162. 8388.77   1
   2  -4  10 262450. 8373.58   1
  -2   4  -9 133.467 108.675   1
  -4   2   9 227.346 155.333   2
  -4   2   9 266.474 158.504   1
   2  -4   9-421.715 295.535   1
   4  -2  -9-27.4021 286.366   1
  -2  -2  -7-118.839 165.976   2
  -4   2   7-64.8773 53.7480   2
   4  -2  -7 140.097 178.181   1
  -4   2   7 74.5130 264.346   1
  -2   4  -7 197.340 277.330   1
   2  -4   6 12008.3 1621.46   1
  -2  -2  -6 10809.7 1115.01   2
  -4   2   6 11546.3 1545.91   1
   4  -2  -6 12152.5 1630.09   1
  -4   2   6 12518.4 1552.26   2
  -2   4  -6 10699.9 1490.23   1
  -4   2   5-56.0361 165.942   2
  -2  -2  -5 755.517 212.740   1
  -4   2   5-141.920 333.527   1
   2  -4   5 439.289 347.438   1
   2   2   5 479.197 150.976   1
  -2   4  -5 378.787 366.920   1
  -2  -2  -5 885.090 350.657   2
   4  -2  -5-295.286 306.788   1
  -2  -2  -3 449.093 309.676   2
   2   2   3 65.0378 137.013   1
  -2   4  -3-206.647 357.694   1
  -4   2   3 378.075 280.040   1
   2  -4   3 179.268 214.518   1
  -4   2   3 433.932 273.765   2
   4  -2  -3-201.208 110.974   1
  -2  -2  -3 109.856 105.783   1
  -2  -2  -1 64.2943 188.987   1
   2   2   1 91.4667 64.3474   1
  -4   2   1 78.6030 211.964   1
   4  -2  -1 41.7403 144.856   1
  -4   2   1 329.346 177.632   2
   2  -4  -1-9.80203 270.497   1
  -4   2  -1 105.139 222.635   2
   2   2  -1-5.14615 182.679   1
  -2   4   1-52.7487 275.536   1
  -4   2  -1-171.849 315.791   1
   4  -2   1 128.224 101.402   1
  -2  -2   1 217.914 327.654   2
  -2  -2   1-240.942 235.715   1
  -4   2  -3 62.4945 241.506   2
   4  -2   3 272.155 96.8807   1
  -2   4   3 232.804 253.663   1
   2   2  -3-49.3441 213.497   1
  -2  -2   3 732.324 453.492   2
  -2  -2   3 77.2451 202.857   1
   2  -4  -3 1470.48 520.767   1
  -4   2  -3 1094.91 411.495   1
  -2  -2   5 131.204 288.708   1
  -2   4   5 119.074 207.904   1
   4  -2   5 478.924 330.681   1
  -4   2  -5 153.020 104.932   2
  -4   2  -5 107.872 81.5243   1
   2   2  -5 48.9080 131.380   1
  -4   2  -6 3898.62 714.670   1
   2  -4  -6 4344.12 843.434   1
  -2  -2   6 2900.17 728.878   2
  -2   4   6 3731.69 841.107   1
  -2  -2   6 3413.64 919.904   1
   2   2  -6 3285.85 752.828   1
   4  -2   6 3671.84 681.638   1
  -4   2  -6 3686.29 965.431   2
   2  -4  -7 98.4657 20.3092   1
  -4   2  -7 391.095 184.289   1
   4  -2   7-31.2244 46.8761   1
  -2  -2   7 519.445 388.815   1
  -4   2  -7 186.655 67.6639   2
  -2   4   7-0.50839 180.521   1
   2   2  -7 13.6302 226.783   1
   2   2  -9-275.662 322.833   1
  -4   2  -9 66.3492 50.6660   1
  -2  -2   9 65.0702 359.555   1
   4  -2   9 42.6615 123.888   1
   2  -4  -9 13.1393 169.685   1
   2   2 -10 359227. 9905.53   1
  -2  -2  10 334668. 10102.0   2
  -2  -2  10 326007. 9604.14   1
  -2   4  11-26.3302 141.721   1
   2  -4 -11 225.202 277.513   1
   2   2 -11 585.800 466.472   1
  -2  -2  11 95.4517 183.827   1
   2   2 -12 108969. 5829.25   1
  -2  -2  12 127360. 6425.84   1
  -2  -2  13 312.236 371.578   2
   2   2 -13 31.7949 247.500   1
  -2  -2  13 205.447 350.727   1
  -2  -2  14 150435. 7577.66   2
   2   2 -14 127685. 6626.38   1
  -2  -2  14 145793. 7347.04   1
  -2  -2  15 384.973 463.550   2
   2   2 -15 394.493 459.462   1
  -2  -2  15 673.060 769.407   1
  -2  -2  16 520874. 14411.9   1
  -2  -2  16 577037. 15622.6   2
   2   2 -17 184.262 379.225   1
  -2  -2  17 435.823 516.207   2
  -2  -2  17 224.124 158.510   1
  -4   1  17 114649. 6994.75   1
   1  -4  16 73398.1 5471.60   1
  -1   4 -16 84214.6 5649.82   1
   4  -1 -16 86036.7 5772.32   1
  -1   4 -15 58558.5 4527.55   1
  -4   1  15 54750.8 4431.63   1
   4  -1 -15 56113.5 4473.55   1
   1  -4  15 51864.0 4404.73   1
  -4   3  15 41761.3 3973.16   1
   3  -4  14 505651. 12685.9   1
  -4   1  14 502461. 13297.4   1
   1  -4  14 521770. 13532.5   1
   4  -1 -14 496220. 13124.7   1
  -4   1  14 456878. 12852.4   2
  -1   4 -14 480583. 12689.0   1
   4  -3 -14 559477. 13727.0   1
  -4   3  14 580220. 14274.1   1
  -4   1  13 13951.4 2192.53   1
  -4   3  13 22731.7 2654.38   1
  -1   4 -13 15577.0 2215.87   1
   4  -1 -13 16057.2 2255.11   1
  -3   4 -13 14569.6 2091.22   1
   4  -3 -13 12672.7 2020.32   1
   3  -4  13 18958.0 2373.14   1
  -4   1  13 13439.0 2163.70   2
   1  -4  13 17137.9 2310.17   1
  -3   4 -12 14920.0 2035.30   1
  -4   1  12 8028.10 1552.72   1
   3  -4  12 12635.5 1958.51   1
  -4   3  12 12378.2 1914.49   1
  -1   4 -12 12504.7 1895.10   1
   1  -4  12 12707.6 1992.59   1
   4  -1 -12 13439.8 2026.12   1
  -4   1  12 13753.7 2136.82   2
  -4   3  11 252354. 8560.64   1
   4  -1 -11 281091. 8932.35   1
  -4   3  11 264900. 7741.00   2
  -4   1  11 280629. 9068.26   1
   3  -4  11 282944. 8883.67   1
   1  -4  11 274502. 8980.03   1
  -3   4 -11 298228. 9078.29   1
  -1   4 -11 221432. 7926.29   1
  -4   1  11 306631. 9562.90   2
   4  -3 -11 316517. 9457.55   1
   4  -3 -10 295424. 8852.11   1
   1  -4  10 215105. 7807.75   1
   3  -4  10 297558. 8700.33   1
  -3   4 -10 206311. 7364.95   1
  -4   1  10 213986. 7660.07   1
   4  -1 -10 223662. 7689.63   1
  -1   4 -10 276412. 8639.91   1
  -4   3  10 192315. 7307.84   1
  -4   1  10 230956. 8077.68   2
  -4   3  10 228216. 6915.46   2
   1  -4   9 771721. 14426.9   1
  -4   1   9 719153. 13740.0   1
  -3  -1  -8 17483.8 1772.32   2
  -4   1   8 15120.3 1994.66   2
   3  -4   8 18398.8 2084.95   1
  -4   1   8 13203.7 1743.57   1
  -4   3   8 15216.9 1700.47   2
   4  -1  -8 13394.5 1810.18   1
  -4   3   8 16108.7 1944.57   1
  -1   4  -8 16949.5 2048.45   1
   1  -4   8 15060.5 2026.55   1
  -3   4  -8 22119.6 2218.85   1
   4  -3  -8 13042.5 1792.95   1
  -4   3   7 421516. 9943.67   1
  -4   3   7 403574. 8516.72   2
   4  -1  -7 408319. 9663.04   1
   4  -3  -5 71768.3 3861.57   1
  -4   3   5 67187.0 3363.48   2
  -3  -1  -5 66476.6 3213.35   2
  -1  -3  -5 90155.0 2766.25   2
  -4   1   5 77735.4 3980.02   2
   3  -4   5 75607.7 3899.46   1
  -4   3   5 76259.5 3997.21   1
  -3   4  -5 70570.1 3757.58   1
  -4   1   5 67014.6 3737.54   1
   1   3   5 68734.4 2548.00   1
  -3  -1  -5 66991.4 1976.50   1
  -1   4  -5 85928.1 4268.20   1
   4  -1  -5 76107.5 3967.59   1
   3   1   5 82660.8 2264.14   1
  -1  -3  -5 71104.8 2530.74   1
   1  -4   5 75698.6 4037.98   1
   3  -4   4 468552. 9642.74   1
  -4   3   4 498742. 9999.13   1
  -4   1   3 123409. 4853.18   2
   3   1   3 107379. 3283.30   1
   3  -4   3 115134. 4642.67   1
  -4   1   3 117669. 4635.51   1
   4  -3  -3 138601. 5060.17   1
   1   3   3 129328. 3938.87   1
  -4   3   3 122494. 4816.27   1
  -1   4  -3 128668. 4940.07   1
   1  -4   3 117526. 4725.94   1
  -3  -1  -3 112767. 4151.65   2
  -1  -3  -3 93994.2 3311.00   1
  -1  -3  -3 112518. 3578.04   2
   4  -1  -3 113868. 4575.23   1
  -3   4  -3 111082. 4479.90   1
  -3  -1  -3 118184. 3414.49   1
  -4   3   3 115386. 4342.00   2
  -1  -3   0 138086. 4572.21   1
   1  -4   0 125113. 4492.09   1
   3   1   0 137212. 4421.40   1
  -4   1   0 142326. 4649.46   1
  -1   4   0 153158. 5094.80   1
  -4   3   0 138357. 4841.51   2
  -3   4   0 132436. 4717.07   1
  -1  -3   0 134988. 4480.41   2
   1   3   0 106327. 4055.88   1
   4  -1   0 152871. 4848.38   1
   4  -3   0 142086. 4952.76   1
  -3  -1   0 116889. 4468.94   2
  -4   1   0 110074. 4423.37   2
   3  -4   0 121552. 4578.04   1
  -4   3   0 144462. 4902.38   1
  -3   4   0 151256. 4892.55   2
  -3  -1   0 132066. 4377.12   1
  -1   4   4 34535.1 2278.89   1
  -3  -1   4 34420.1 2628.13   2
  -3   4   4 32190.7 2433.88   1
   3   1  -4 41247.0 2806.05   1
   4  -3   4 35139.8 2486.55   1
  -4   1  -4 44173.2 2812.58   2
   3  -4  -4 54927.9 3079.47   1
  -3  -1   4 34540.8 2626.58   1
   4  -1   4 38747.7 2243.77   1
  -3   4   4 34806.7 2063.03   2
   1  -4  -4 41613.7 2458.94   1
  -4   3  -4 44344.3 3001.59   2
  -4   1  -4 38724.2 2142.27   1
  -1  -3   4 39197.4 2823.73   1
  -4   3  -4 28158.9 2081.67   1
   1   3  -4 41111.0 2837.86   1
  -1  -3   4 36205.4 2881.05   2
   1   3  -8 481084. 10934.8   1
  -3  -1   8 475076. 11201.7   2
  -1  -3   8 410920. 10198.2   1
  -3  -1   8 433228. 10621.7   1
   4  -3   8 408804. 8888.06   1
  -1  -3   8 439970. 11471.4   2
   3   1  -8 415232. 10153.1   1
   1  -4  -9 27003.6 2007.24   1
   3   1  -9 25506.5 2580.31   1
   3  -4  -9 23006.2 2327.91   1
  -3  -1   9 30315.0 2877.44   1
  -3  -1   9 24501.2 2552.53   2
  -4   1  -9 24956.7 2462.29   2
   1   3  -9 26566.7 2551.45   1
  -1  -3   9 20384.1 2399.73   1
  -4   3  -9 22570.4 2094.34   1
  -1  -3   9 22758.1 2714.10   2
   4  -3   9 27093.3 2301.52   1
  -3   4   9 23490.8 2340.03   1
  -1   4   9 20411.9 1825.06   1
  -3  -1  10 778786. 15117.9   1
   3   1 -11 18420.6 2316.55   1
  -3  -1  11 17090.5 2301.19   2
   4  -3  11 20878.3 2134.49   1
  -4   3 -11 17731.8 1974.62   1
  -3  -1  11 24604.0 2752.12   1
   3  -4 -11 38286.3 3106.13   1
  -1  -3  11 33246.0 3363.26   2
  -1  -3  11 22769.5 2608.03   1
  -3   4  11 24212.5 2616.21   1
   1   3 -11 18885.4 2333.58   1
   3   1 -12 24857.9 2703.89   1
  -3  -1  12 21321.7 2823.63   2
  -3   4  12 29306.3 2867.38   1
   1   3 -12 24497.9 2772.00   1
  -3  -1  12 22427.3 2608.51   1
  -1  -3  12 26222.0 2917.37   1
  -1  -3  13 380096. 12280.3   2
  -3  -1  13 298646. 10170.3   1
  -3  -1  13 337573. 10959.4   2
   3   1 -13 349627. 10548.3   1
  -1  -3  13 384738. 11364.8   1
  -3   4  13 333868. 9940.31   1
  -3  -1  14 158235. 7718.51   2
   1   3 -14 158026. 7419.46   1
  -1  -3  14 166591. 7755.55   1
  -1  -3  14 177750. 8485.66   2
  -3  -1  14 160873. 7511.73   1
   3   1 -15 212397. 8916.37   1
   1   3 -15 233325. 9212.81   1
  -1  -3  15 211323. 8982.32   1
  -3  -1  15 209699. 9149.84   2
  -3  -1  15 211194. 8956.44   1
  -1  -3  16 4031.01 1361.07   1
  -3  -1  16 6284.76 1566.24   1
   1   3 -16 3386.47 977.814   1
   3   1 -16 3718.43 1142.42   1
  -3  -1  16 3544.20 1083.55   2
  -1  -3  16 4988.23 1478.64   2
  -1  -3  17 15044.3 2678.75   2
   1   3 -17 26871.2 3249.66   1
   3   1 -17 20258.5 2914.44   1
  -1  -3  17 32230.6 3704.41   1
  -3  -1  17 27371.5 3368.65   1
  -3  -1  18 164276. 8652.89   1
  -1  -3  18 129671. 8017.92   2
  -4   0   0 102131. 4420.64   2
   4   0   0 119311. 4410.43   1
  -4   4   0 115756. 4674.01   1
   0   4   0 96027.8 4101.88   1
   4  -4   0 116300. 4696.77   1
  -4   0   0 109589. 4153.77   1
  -4   4   0 117746. 4649.95   2
  -4   4   4 266339. 6619.41   2
  -4   0   4 279450. 7612.44   1
   4   0  -4 263277. 7411.86   1
   4  -4  -4 259600. 7367.99   1
  -4   0   4 285572. 7913.85   2
   0  -4   4 312539. 8213.53   1
   4   0   4 282473. 5854.78   1
   4  -4   4 264080. 7258.16   1
  -4   4   4 304548. 7977.22   1
   0   4   4 234651. 5993.97   1
  -4   4  -4 260392. 7131.36   1
   0   4  -4 261845. 7692.83   1
  -4   0  -4 265826. 7079.83   2
   4  -4   5 192082. 6301.45   1
   0   4  -5 189792. 6641.23   1
  -4   4  -5 209531. 6508.80   1
   4   0  -5 173488. 6124.03   1
  -4   0  -5 190744. 4336.12   1
  -4   0  -5 185161. 5924.72   2
  -4   4   5 117647. 5146.33   1
  -4   0   5 202883. 6854.69   2
   4   0   5 155551. 4037.17   1
   4  -4  -5 225335. 7039.68   1
   0   4   5 127771. 4405.29   1
   0  -4  -5 175196. 4900.72   1
  -4   4   5 206309. 5750.64   2
   0  -4   5 209208. 6871.22   1
  -4   0   5 197590. 6566.07   1
   4  -4  -6 112522. 5003.20   1
   0  -4  -6 115198. 3916.69   1
  -4   4  -6 101972. 4599.42   1
  -4   0   6 97318.6 4751.86   1
  -4   0   6 91161.6 4701.85   2
   0  -4   6 102386. 5046.77   1
  -4   4   6 115878. 5082.80   1
   4  -4   6 91657.8 4481.21   1
   4   0  -6 82782.2 4429.04   1
   0   4   6 85709.1 3468.01   1
  -4   0  -6 103766. 4590.65   2
   0   4  -6 109249. 5130.04   1
   0  -4  -6 84366.8 1783.38   2
   4   0   6 85305.7 2761.25   1
  -4   0  -6 96027.0 2785.76   1
  -4   4   6 84666.8 3646.28   2
  -4   0  -7 8588.79 1337.01   2
  -4   4  -7 5814.32 1102.69   1
   0   4  -7 7201.75 1353.31   1
   4   0  -7 8656.83 1433.35   1
  -4   4   7 7285.09 1070.17   2
   4  -4  -7 7066.29 1293.16   1
  -4   0   7 5807.14 1194.37   2
   4  -4   7 5851.33 1202.61   1
   0  -4   7 6379.86 1258.70   1
   0  -4  -7 6294.98 946.892   1
  -4   0   7 6854.04 1282.18   1
   0   4   7 10172.0 1159.22   1
   4   0   7 6964.10 681.056   1
  -4   4  -8 3686.81 947.501   1
  -4   0   8 4707.88 1128.15   1
  -4   4   8 4243.68 1074.33   1
   4   0  -8 4686.65 1131.75   1
   0  -4  -8 3978.17 735.785   1
  -4   4   8 3620.91 712.338   2
  -4   0   8 5265.61 1186.42   2
   4  -4  -8 3085.38 844.313   1
   0  -4   8 4411.76 1023.95   1
   0   4  -8 7862.54 1457.54   1
   4  -4   8 3832.09 924.162   1
   0   4   8 5085.47 834.350   1
  -4   0  -8 4791.25 1027.97   2
   0   4  -9 118374. 5595.21   1
   4  -4  -9 92454.0 4843.19   1
   4   0  -9 97719.2 5175.81   1
   4  -4   9 113266. 5166.73   1
  -4   0   9 113461. 5663.05   2
  -4   4  -9 107728. 5140.41   1
  -4   4   9 92433.3 4042.04   2
  -4   4   9 146627. 6142.48   1
  -4   0   9 96852.4 5149.41   1
   0  -4   9 89520.6 5112.35   1
  -4   0  -9 123069. 5413.10   2
  -4   0  10 778837. 15171.5   1
  -4   0  11 515437. 12762.0   2
   4  -4 -11 483270. 11707.6   1
   4   0 -11 509572. 12426.0   1
   0  -4  11 527621. 12730.7   1
  -4   0  11 507348. 12439.5   1
  -4   0  12 143699. 6917.07   2
  -4   4  12 123410. 6253.50   1
   0  -4  12 129940. 6519.23   1
  -4   0  12 153674. 7105.88   1
   4   0 -12 157785. 7077.77   1
   0   4 -12 160018. 7000.87   1
  -4   4 -12 133829. 6196.27   1
   4  -4  12 151345. 6572.68   1
   0   4 -13 275668. 9666.76   1
  -4   0  13 287934. 10304.8   2
  -4   4  13 324000. 10367.1   1
  -4   0  13 308753. 10343.5   1
   4   0 -13 339150. 10820.9   1
   4  -4 -13 361551. 10700.7   1
   0  -4  13 260260. 9503.09   1
   4   0 -14 523826. 13765.6   1
  -4   4  14 459036. 12742.5   1
   0  -4  14 503455. 13567.7   1
   0   4 -14 542876. 13709.3   1
  -4   0  14 418455. 12517.6   1
  -4   0  14 529296. 14370.5   2
   0  -4  15 55152.7 4553.33   1
   0  -4  15 39501.0 4168.63   2
   0   4 -15 46097.8 4199.92   1
  -4   0  15 45904.2 4248.49   1
   4   0 -15 48994.4 4237.69   1
  -4   0  15 55385.4 4838.50   2
   0  -4  16 3810.74 1405.12   2
   0   4 -16 3611.48 1208.97   1
   4   0 -16 3927.91 1269.47   1
  -4   0  16 3346.94 985.979   1
   0  -4  16 3454.36 1152.04   1
   0  -4  17 13619.4 2381.18   1
  -4   0  17 11327.8 2110.40   1
   0   4 -17 15893.0 2524.51   1
   4   0 -17 17689.1 2707.63   1
   0  -4  17 12737.7 2530.61   2
  -4   0  18 37622.6 4059.61   1
   0  -4  18 13041.1 2625.41   2
   0  -4  19 12850.8 2571.22   2
  -5   2  17 35162.8 3849.61   1
  -5   3  16 10092.0 2026.30   1
   2  -5  16 9229.74 2002.80   1
   5  -2 -16 9560.94 2037.64   1
  -5   2  16 10991.8 2187.32   1
   5  -3 -16 11794.8 2253.48   1
   2  -5  15 113699. 6581.23   1
   5  -3 -15 114663. 6658.43   1
  -5   2  15 100703. 6345.50   1
  -5   3  15 124327. 7145.52   1
  -2   5 -15 97554.8 6071.90   1
   5  -2 -15 122535. 6981.35   1
   3  -5  15 93532.7 5962.88   1
  -5   2  14 171058. 8019.76   1
  -3   5 -14 178470. 7883.89   1
  -5   3  14 198508. 8559.35   1
   5  -2 -14 161506. 7847.79   1
   3  -5  14 172638. 7833.44   1
  -2   5 -14 157847. 7616.54   1
   2  -5  14 184052. 8219.92   1
   5  -3 -14 158501. 7663.70   1
  -5   3  13 137154. 6920.42   1
   5  -3 -13 157919. 7467.46   1
  -2   5 -13 148607. 7134.40   1
   2  -5  13 131866. 6810.72   1
   5  -2 -13 138232. 7033.37   1
  -5   2  13 139930. 7184.84   2
  -3   5 -13 154183. 7243.91   1
   3  -5  13 146652. 7037.15   1
   5  -2 -12 40429.3 3758.45   1
  -5   2  12 89838.5 5535.81   1
  -3   5 -12 66259.8 4588.69   1
  -5   3  12 50822.3 4174.40   1
  -5   2  12 71761.8 5083.80   2
  -2   5 -12 69544.1 4743.03   1
   3  -5  12 71854.8 4859.69   1
   2  -5  12 63889.0 4645.39   1
   5  -3 -12 65389.9 4597.04   1
  -5   2  11 39067.1 3483.48   1
   2  -5  11 44892.2 3716.41   1
  -5   3  11 44807.0 3806.01   1
  -5   3  11 31452.5 3015.29   2
   5  -3 -11 39062.7 3465.37   1
  -3   5 -11 41237.6 3552.95   1
   3  -5  11 37297.2 3381.96   1
  -5   2  11 37450.6 3522.46   2
   5  -2 -11 42882.9 3718.82   1
  -5   3  10 533118. 12582.6   1
   5  -2 -10 483505. 11939.5   1
   2  -5  10 526822. 12632.3   1
  -3   5 -10 434634. 11213.2   1
  -2   5 -10 542978. 12792.7   1
   5  -3 -10 363577. 10559.0   1
  -5   3  10 526099. 11726.6   2
  -5   2  10 455699. 11695.9   1
   3  -5  10 535610. 12527.5   1
   5  -3  -9 95483.3 5234.51   1
   5  -2  -9 79750.4 4766.26   1
  -5   2   9 104669. 5500.86   2
  -5   3   9 90617.0 5107.22   1
  -3  -2  -9 84432.2 3952.48   2
  -3   5  -9 90342.5 5075.52   1
   2  -5   9 100608. 5365.82   1
  -5   3   9 100107. 4973.06   2
   3  -5   9 96555.5 5169.64   1
  -5   2   9 82230.7 4852.20   1
  -2   5  -9 101645. 5432.55   1
  -3   5  -8 64177.8 4174.56   1
  -2   5  -8 77146.3 4551.99   1
  -5   2   8 79854.4 4613.20   2
  -5   3   8 75027.2 4229.47   2
   5  -2  -8 52216.6 3753.22   1
   3  -5   8 76915.0 4576.77   1
   2  -5   8 64106.9 4199.41   1
  -3  -2  -8 74502.5 3650.68   2
   5  -3  -8 73466.9 4488.66   1
  -5   3   8 58039.0 3936.63   1
  -5   2   8 69300.0 4345.17   1
  -3   5  -7 477885. 11125.8   1
   2  -5   7 526556. 11779.3   1
  -5   3   7 544116. 11960.7   1
   3  -5   7 467094. 11010.8   1
  -5   3   7 471586. 10345.0   2
   5  -3  -7 466463. 10842.3   1
  -2   5  -7 431976. 10754.9   1
   3  -5   4 102865. 4889.70   1
  -3  -2  -4 94376.2 3226.95   1
  -5   2   4 97154.8 4709.61   1
  -3   5  -4 84444.3 4396.18   1
  -3  -2  -4 125140. 4628.99   2
  -5   3   4 92066.1 4408.58   2
  -5   3   4 97334.3 4817.64   1
  -2  -3  -4 115506. 3729.94   1
   2   3   4 108546. 3653.78   1
   3   2   4 103624. 3440.47   1
   5  -2  -4 108214. 5000.43   1
  -2   5  -4 88545.1 4538.86   1
  -2  -3  -4 74218.5 3371.03   2
  -5   2   4 87241.6 4349.56   2
   5  -3  -4 96240.4 4731.36   1
   2  -5   4 96737.1 4685.24   1
  -2   5  -1 305695. 7991.54   1
   2  -5   1 308295. 8069.58   1
  -3   5  -1 310588. 8167.52   1
  -5   2   1 342929. 8410.12   2
  -5   2   1 335684. 8209.76   1
  -5   3   1 339982. 8377.27   1
   2   3   1 343639. 7622.76   1
  -3  -2  -1 295677. 6916.45   1
   3   2   1 315501. 7132.31   1
   5  -2  -1 332550. 8161.00   1
  -3  -2  -1 296931. 7501.69   2
  -2  -3  -1 387903. 8208.17   2
   5  -3  -1 321717. 8035.81   1
  -5   3   1 347742. 8502.43   2
   2   3   0 48886.1 2963.36   1
  -3   5   0 45113.4 3028.46   1
   5  -2   0 51332.8 3184.31   1
   3  -5   0 46708.8 3083.66   1
  -5   2   0 52654.5 3228.94   1
  -2  -3   0 55185.2 3096.78   1
  -3  -2   0 55339.9 3314.12   2
  -5   2   0 57942.5 3454.99   2
  -2   5   0 46313.7 3018.96   1
  -2  -3   0 63019.5 3453.76   2
  -3  -2   0 48044.9 2888.53   1
   3   2   0 51228.3 3010.79   1
  -5   3   0 55040.1 3351.09   1
  -5   3   0 53386.1 3280.27   2
   2  -5   0 66776.1 3700.09   1
   5  -3   0 55702.3 3315.58   1
  -3   5   1 124141. 4984.17   1
   5  -2   1 176187. 5791.03   1
  -2  -3   1 164134. 5469.79   1
  -2  -3   1 163197. 5717.07   2
  -2   5   1 158967. 5653.46   1
   3  -5  -1 119987. 4878.32   1
  -3  -2   1 189157. 5946.62   1
  -3  -2   1 132111. 5294.52   2
  -5   3  -1 166693. 5636.08   1
   3   2  -1 140226. 5136.89   1
   2   3  -1 154790. 5430.94   1
   5  -3   1 147112. 5452.29   1
  -5   2  -1 151858. 5625.31   2
   2  -5  -1 112377. 4783.93   1
  -5   2  -1 166106. 5547.93   1
  -5   3  -1 148971. 5586.77   2
  -2  -3   3 310380. 8087.74   1
  -2  -3   3 309393. 8272.76   2
   2   3  -3 272640. 7619.94   1
   3  -5  -3 325248. 8161.16   1
  -2   5   3 298293. 7692.23   1
   5  -3   3 263901. 7196.53   1
   5  -2   3 318761. 7571.49   1
  -3  -2   3 282660. 7687.11   1
   3   2  -3 251532. 7387.68   1
  -5   3  -3 316938. 8414.01   2
  -3   5   3 212265. 6650.06   1
  -5   3  -3 303980. 7456.75   1
  -5   2  -3 280461. 6886.94   1
  -3  -2   3 285343. 8043.04   2
  -5   2  -3 361373. 8738.13   2
  -5   3  -4 279702. 7106.65   1
   5  -2   4 299680. 7205.37   1
  -5   2  -4 262442. 7757.01   2
  -3  -2   4 272611. 7856.27   1
   2   3  -4 247171. 7433.12   1
  -2  -3   4 244015. 7693.25   2
   3  -5  -4 239128. 7132.28   1
  -5   3  -4 297696. 8399.64   2
  -3   5   4 316169. 8041.59   1
   3   2  -4 254350. 7508.79   1
  -2  -3   4 250590. 7690.89   1
  -5   2  -4 256483. 6566.70   1
  -3  -2   4 293661. 8497.05   2
   2  -5  -4 292221. 7464.45   1
  -2   5   4 344235. 8240.95   1
   5  -3   4 233419. 6816.69   1
   5  -3   5 396289. 8700.43   1
  -5   2  -5 400537. 9760.75   2
   2   3  -5 431067. 9981.50   1
  -5   3  -5 394557. 9860.75   2
  -2  -3   5 375791. 9510.54   1
  -2   5   5 379771. 8625.73   1
  -3   5   5 373573. 8978.56   1
  -3  -2   5 403657. 9980.51   2
  -3  -2   5 379622. 9640.40   1
   5  -2   5 413647. 8547.81   1
  -2   5   7 295049. 7631.44   1
  -3   5   7 285226. 8118.11   1
  -2  -3   7 436606. 11073.6   2
  -5   2  -7 319575. 8980.20   2
  -5   3  -7 292619. 9039.68   2
  -3  -2   7 294268. 8908.42   1
   5  -2   7 340645. 7468.14   1
  -3  -2   7 292326. 8932.71   2
   3  -5  -7 396383. 9383.46   1
  -5   3  -7 277365. 7320.29   1
   5  -3   7 320371. 7988.42   1
   2   3  -7 339962. 9431.19   1
   3   2  -7 331076. 9199.68   1
  -2  -3   7 286750. 8615.62   1
   2   3  -8 76941.6 4538.25   1
  -2  -3   8 73476.4 4729.07   2
   5  -3   8 87825.7 4285.46   1
  -5   2  -8 82473.9 4757.01   2
   3  -5  -8 94159.5 4662.51   1
  -3   5   8 59729.6 3722.32   1
   5  -2   8 71750.4 3413.32   1
  -5   3  -8 90957.8 4202.48   1
  -3  -2   8 104181. 5498.66   2
  -2   5   8 66220.4 3704.53   1
  -5   3  -8 67904.6 4344.66   2
  -5   2  -8 89059.5 3719.64   1
   2  -5  -8 95723.1 4423.68   1
  -3  -2   8 71022.8 4471.87   1
  -2  -3   8 77969.1 4587.43   1
   3   2  -8 85795.1 4835.26   1
   3  -5  -9 422802. 10150.5   1
   2   3  -9 439353. 11176.2   1
  -3  -2   9 448457. 11671.0   2
   2  -5  -9 357939. 8753.47   1
  -5   2  -9 453828. 11400.1   2
  -3  -2   9 340716. 10119.6   1
   3   2  -9 445408. 11174.4   1
  -2  -3   9 390430. 10874.4   1
  -2  -3   9 419603. 11585.6   2
  -3   5  10 389707. 10109.6   1
   5  -3  10 306270. 8158.10   1
  -2   5  10 375440. 9102.88   1
   3  -5 -10 337960. 9257.68   1
  -3  -2  10 303945. 9988.31   2
   2   3 -10 280755. 9200.21   1
   3   2 -10 328788. 9946.62   1
  -3  -2  10 323577. 10113.2   1
  -2  -3  10 364036. 11106.2   2
   2  -5 -10 418656. 9663.34   1
  -2  -3  10 362399. 10678.3   1
  -3  -2  11 228514. 8779.61   1
   3   2 -11 212072. 8175.27   1
  -3  -2  11 212049. 8497.22   2
   2   3 -11 226226. 8538.99   1
  -2  -3  11 253761. 9550.45   2
  -2  -3  11 226660. 8581.90   1
   3  -5 -11 189869. 7035.06   1
  -2  -3  12 8712.56 1754.12   1
  -2  -3  12 8458.09 1767.90   2
  -3  -2  12 10041.9 1881.01   1
   3   2 -12 7774.27 1600.75   1
  -3  -2  12 12045.1 2052.86   2
   2   3 -12 6814.86 1463.68   1
  -3  -2  13 37597.8 3723.06   2
  -2  -3  13 32801.9 3619.01   2
   3   2 -13 43375.4 3851.83   1
  -2  -3  13 38093.5 3730.73   1
   2   3 -13 39329.9 3680.08   1
  -2  -3  14 284899. 10748.0   2
  -2  -3  14 239945. 9670.63   1
   3   2 -14 293210. 10238.3   1
  -3  -2  14 268360. 10334.3   2
   2   3 -14 289118. 10294.8   1
  -3  -2  14 249288. 9809.83   1
   2   3 -15 32741.0 3552.80   1
  -2  -3  15 36655.5 3901.46   2
  -3  -2  15 42512.9 4074.43   1
   3   2 -15 36371.3 3737.01   1
  -2  -3  15 32083.1 3673.85   1
  -3  -2  15 34728.8 3906.77   2
  -3  -2  16 43550.7 4490.51   2
   2   3 -16 40556.5 4001.85   1
  -3  -2  16 32149.0 3679.34   1
  -2  -3  16 44813.6 4384.11   1
   3   2 -16 47627.5 4369.53   1
  -2  -3  16 34797.2 3941.54   2
  -2  -3  17 48333.5 4672.11   2
   3   2 -17 55466.6 4805.39   1
  -3  -2  17 48028.5 4590.83   1
  -2  -3  17 45102.1 4507.70   1
   2   3 -17 60875.1 5151.63   1
  -3  -2  17 48965.9 4773.56   2
   2   3 -18 114377. 7082.74   1
   3   2 -18 103367. 6837.84   1
  -3  -2  18 91398.0 6497.50   1
  -2  -3  18 129279. 7886.49   2
  -2  -3  18 112469. 7162.77   1
   1  -5  19 646.212 734.993   2
  -5   1  18 14842.4 2571.43   1
   1  -5  18 3198.56 1268.35   2
  -5   1  17 763.818 684.327   1
   5  -1 -17 379.669 40.0343   1
   1  -5  17 72.7143 360.190   1
  -1   5 -16 226218. 9569.19   1
   1  -5  16 215891. 9419.26   1
   5  -1 -16 184924. 8800.03   1
  -5   1  16 188546. 8821.08   1
   5  -1 -15 550.544 366.022   1
  -5   1  15 728.507 512.699   1
  -1   5 -15 833.513 608.109   1
   5  -4 -15 438.775 456.762   1
   1  -5  15 1128.45 654.652   1
  -5   4  15 127.938 251.728   1
   5  -4 -14 10233.3 1999.74   1
   5  -1 -14 8670.17 1798.79   1
   1  -5  14 10593.3 1880.08   1
  -5   1  14 14007.8 2305.03   1
  -1   5 -14 12398.2 2197.93   1
  -5   1  14 12102.5 2272.22   2
  -5   4  14 13942.7 2265.43   1
  -4   5 -13-57.8442 141.956   1
   1  -5  13 754.020 677.606   1
  -5   1  13 636.876 602.634   1
  -5   4  13 1179.99 777.848   1
   5  -4 -13-92.9883 250.886   1
  -1   5 -13-115.222 563.836   1
  -5   1  13-521.425 467.357   2
   5  -1 -13 515.378 568.493   1
   4  -5  13 265.043 245.953   1
  -5   1  11 7860.59 1658.68   2
  -1   5 -11 6727.69 1445.20   1
  -4   5 -11 7065.56 1456.13   1
   5  -1 -11 7615.48 1507.73   1
  -5   1  11 7200.43 1513.18   1
   1  -5  11 6189.99 1401.05   1
   5  -4 -11 5082.68 1335.94   1
  -5   4  11 5973.71 1333.30   1
   4  -5  11 8159.62 1615.48   1
  -1   5 -10 16628.4 2200.87   1
  -4  -1 -10 13284.4 1843.18   2
  -5   1  10 14061.9 2061.51   1
  -5   4  10 19597.2 2427.57   1
   5  -4 -10 13601.2 2059.21   1
  -5   1  10 13693.6 2080.08   2
   1  -5  10 14747.7 2161.89   1
   4  -5  10 16080.9 2102.72   1
  -5   4  10 14192.6 1818.23   2
  -4   5 -10 16695.1 2186.88   1
   5  -1 -10 18559.3 2333.12   1
  -5   1   9 3933.41 1089.97   2
  -5   4   9 4126.82 1080.69   1
  -4  -1  -9 4484.83 1109.76   2
  -5   1   9 4682.54 1184.25   1
  -1   5  -9 3571.95 1049.60   1
   4  -5   9 4784.67 1083.40   1
  -4   5  -9 4948.95 1151.22   1
   5  -1  -9 3181.95 955.429   1
   1  -5   9 5158.79 1225.96   1
   5  -4  -9 4552.02 1178.75   1
  -5   4   9 4685.47 1056.97   2
  -5   1   8 468441. 11716.0   2
   5  -4  -8 555723. 12583.3   1
  -5   1   8 501592. 11650.0   1
  -1   5  -8 479788. 11768.0   1
   4  -5   8 439021. 10864.2   1
  -4   5  -8 481655. 11251.2   1
  -5   4   8 441568. 11248.4   1
   5  -1  -8 465771. 11325.1   1
   1  -5   8 416343. 10991.0   1
  -5   4   7 51101.8 3623.87   1
  -5   1   7 46593.6 3605.39   2
  -1   5  -7 38889.6 3297.88   1
  -4   5  -7 46600.6 3471.39   1
   5  -1  -7 47583.6 3525.68   1
   4  -5   7 44403.4 3355.25   1
   1   4   7 53397.8 2513.02   1
   1  -5   7 53336.6 3701.86   1
  -5   4   7 46629.4 3233.79   2
  -4  -1  -7 52280.2 3348.34   2
  -5   1   7 41625.8 3355.30   1
  -4  -1  -6 44764.7 3036.21   2
  -1  -4  -6 27765.7 1879.05   1
  -5   1   6 37115.6 3150.88   2
   5  -4  -6 40369.1 3152.34   1
   1   4   6 43053.6 2403.83   1
   1  -5   6 38946.8 3176.05   1
   4   1   6 35170.4 1712.58   1
  -1   5  -6 33665.5 2969.01   1
   5  -1  -6 33031.3 2860.39   1
  -5   4   6 39077.1 3198.35   1
  -4  -1  -6 31528.5 1575.76   1
  -5   4   6 39778.0 2941.18   2
  -4   5  -6 44856.7 3245.82   1
  -1  -4  -6 31996.7 1831.54   2
  -5   1   6 31964.9 2806.77   1
   4  -5   6 31601.8 2842.00   1
  -5   4   5 7789.07 1281.96   2
  -1   5  -5 11053.8 1649.04   1
   4   1   5 9587.70 1026.11   1
  -4  -1  -5 12460.1 1636.81   2
  -4  -1  -5 10183.3 1010.43   1
   1  -5   5 9461.31 1436.39   1
   4  -5   5 9179.01 1437.96   1
   5  -1  -5 9267.64 1518.70   1
  -5   1   5 10118.7 1570.06   2
  -1  -4  -5 8452.89 1055.80   1
  -1  -4  -5 10519.7 1101.19   2
  -5   4   5 8703.37 1486.86   1
  -5   1   5 9076.42 1486.76   1
   1   4   5 11477.4 1260.02   1
   5  -4  -5 8841.21 1471.82   1
  -4   5  -5 9835.18 1526.17   1
  -1  -4  -3 18895.6 1760.76   1
  -4   5  -3 14072.1 1751.48   1
  -5   1   3 16344.4 1898.66   1
   5  -4  -3 20896.8 2101.33   1
  -5   4   3 15717.6 1885.20   1
  -4  -1  -3 13782.8 1389.06   1
   5  -1  -3 14572.2 1716.72   1
  -5   1   3 18701.8 2083.04   2
  -5   4   3 16560.5 1781.24   2
  -4  -1  -3 13199.2 1582.11   2
   4  -5   3 12873.5 1673.85   1
   1  -5   3 13457.7 1810.80   1
   4   1   3 11653.8 1295.37   1
   1   4   3 15666.1 1620.10   1
  -1  -4  -3 16234.1 1493.99   2
  -1   5  -3 13229.3 1733.17   1
  -5   1   2 205230. 6627.76   1
  -5   4   2 222096. 7046.76   1
  -5   4   2 231043. 6860.65   2
  -4  -1  -2 225647. 5923.72   1
   4  -5   2 213913. 6767.17   1
  -4   5  -2 199421. 6456.08   1
  -5   1   2 192490. 6631.68   2
  -1   5  -2 186190. 6454.48   1
   4   1   2 192116. 5572.67   1
  -1  -4  -2 272755. 6842.85   1
   1  -5   2 216528. 6923.88   1
   5  -4  -2 184037. 6495.73   1
   1   4   2 229877. 6487.99   1
  -4  -1  -2 190345. 6211.36   2
  -1  -4  -2 199562. 5716.67   2
   5  -1  -2 189974. 6276.52   1
  -5   1   1 20832.6 2085.79   2
  -5   4   1 21853.8 2171.83   1
   4   1   1 21512.6 1964.91   1
   4  -5   1 20815.9 2114.40   1
   1   4   1 19450.2 1966.53   1
   5  -1  -1 22508.4 2144.07   1
  -4  -1  -1 21036.9 1853.59   1
  -1   5  -1 21819.2 2195.63   1
  -4   5  -1 21778.9 2128.99   1
  -4  -1  -1 22185.1 2139.56   2
   1  -5   1 21446.2 2109.00   1
  -5   1   1 18108.9 1929.52   1
  -5   4   1 20739.7 2142.09   2
   5  -4  -1 24596.9 2338.20   1
  -1  -4  -1 25897.0 2141.35   1
   5  -4   1 1157.29 454.736   1
  -4  -1   1 172.886 413.541   2
  -4  -1   1 730.315 313.126   1
  -1   5   1 489.692 410.591   1
  -5   4  -1 64.6324 153.271   1
   5  -1   1 138.126 77.2657   1
  -1  -4   1 599.123 464.551   2
   4  -5  -1 460.600 384.920   1
  -5   1  -1 291.343 449.806   1
  -4   5   1 521.966 363.649   1
  -1  -4   1 1502.58 591.835   1
  -4   5   1 419.205 228.381   2
  -5   1  -1-26.4995 326.015   2
   4   1  -1 104.430 218.513   1
  -5   4  -1 31.1946 285.851   2
   1   4  -1 349.074 246.896   1
   1  -5  -1 298.922 344.868   1
  -5   4  -2 86368.5 4449.24   2
  -5   1  -2 93965.4 4520.71   2
  -1  -4   2 89529.1 4402.34   1
  -4   5   2 93634.9 4523.37   1
   5  -4   2 94600.0 4517.88   1
  -4  -1   2 102463. 4765.07   2
  -4  -1   2 83824.8 4169.89   1
   1   4  -2 85157.8 4344.58   1
   1  -5  -2 79973.0 3918.33   1
  -5   1  -2 94071.2 4098.51   1
  -1   5   2 95172.1 4406.33   1
   4  -5  -2 105615. 4870.01   1
  -5   4  -2 69974.1 3797.72   1
  -4   5   2 98680.6 4330.41   2
   5  -1   2 72135.2 3607.56   1
  -1  -4   2 83591.0 4377.42   2
   4   1  -2 89649.9 4306.69   1
   4   1  -3 5150.82 1126.35   1
   4  -5  -3 3188.94 911.385   1
  -4   5   3 4778.94 1026.51   1
  -4  -1   3 4913.30 1105.98   2
   5  -1   3 3977.15 880.788   1
  -4   5   3 4656.64 960.580   2
   5  -4   3 5108.67 1066.08   1
  -5   4  -3 3374.84 822.857   2
  -5   4  -3 3452.07 790.680   1
  -1  -4   3 5303.52 1171.52   2
  -1  -4   3 6170.85 1151.02   1
  -4  -1   3 4695.92 1027.38   1
  -5   1  -3 5925.78 956.689   1
  -5   1  -3 4814.25 1013.25   2
  -1   5   3 5274.53 997.094   1
   1   4  -3 4904.90 1119.52   1
   1  -5  -3 3316.46 795.089   1
  -1  -4   5 43820.5 3528.69   2
   1  -5  -5 40888.7 2765.28   1
  -4  -1   5 50462.0 3608.08   2
   5  -4   5 48463.8 3245.07   1
  -1   5   5 71191.0 3654.35   1
  -5   4  -5 59694.4 3537.57   1
  -1  -4   5 60147.2 3823.69   1
  -5   1  -5 46566.9 3254.47   2
  -5   1  -5 52755.8 2786.37   1
  -5   4  -5 63946.4 4172.91   2
  -4   5   5 47243.6 2790.50   2
  -4  -1   5 58599.6 3715.56   1
   4  -5  -5 50582.5 3445.65   1
   4   1  -5 45689.3 3374.17   1
   1  -5  -5 28156.0 1654.35   2
  -4   5   5 48855.0 3411.72   1
   1   4  -5 53675.0 3581.73   1
   5  -1   5 57258.6 3045.35   1
   4  -5  -6 31268.5 2788.58   1
  -1  -4   6 38718.7 3063.87   1
  -4  -1   6 39083.3 3196.30   1
   5  -4   6 43328.1 3142.23   1
  -5   4  -6 43258.4 3068.11   1
   1  -5  -6 61702.2 3369.82   1
   5  -1   6 42957.9 2532.34   1
   1   4  -6 38227.5 3051.49   1
  -5   1  -6 52574.4 3488.40   2
   4   1  -6 41555.0 3216.26   1
  -1  -4   6 50721.4 3936.81   2
  -1   5   6 47308.5 2970.05   1
  -4   5   6 42336.2 2677.61   2
  -4  -1   6 41324.3 3349.85   2
  -5   4  -6 52296.6 3679.59   2
  -5   1  -6 45055.0 2445.78   1
  -5   4  -7 7402.26 1243.19   1
   5  -4   7 6347.87 1209.74   1
  -4   5   7 7894.62 1049.15   2
  -1  -4   7 10222.6 1832.31   2
  -5   1  -7 6663.68 873.473   1
  -5   1  -7 9457.45 1539.64   2
   4  -5  -7 5131.22 1176.02   1
  -4  -1   7 6824.43 1397.40   2
  -4  -1   7 6092.77 1348.55   1
  -1  -4   7 8127.40 1482.91   1
  -4   5   7 8228.26 1414.67   1
  -1   5   7 10952.7 1430.73   1
   1  -5  -7 7136.15 1213.98   1
   5  -1   7 8746.06 1067.96   1
   4   1  -7 6709.85 1327.05   1
   1   4  -7 6642.65 1321.09   1
  -4  -1   8 486896. 11930.7   2
   1  -5  -8 485681. 9455.68   1
   4  -5  -8 307037. 9147.12   1
  -1  -4   8 529267. 13241.3   2
   4   1  -8 463693. 11362.0   1
  -1  -4   8 380221. 10478.2   1
   1   4  -8 416264. 10612.9   1
  -4  -1   8 451119. 11291.9   1
  -5   4  -8 433098. 10076.6   1
  -1  -4   9 13353.0 1968.80   1
  -5   4  -9 14123.6 1871.81   1
  -1  -4   9 10517.4 1946.88   2
   4   1  -9 14263.5 2055.58   1
   1   4  -9 12197.3 1946.29   1
  -4   5   9 12271.1 1867.20   1
  -4  -1   9 15355.6 2113.40   1
   4  -5  -9 15088.3 1966.48   1
  -5   1  -9 14726.0 2052.52   2
  -1   5   9 18101.5 1854.66   1
   5  -4   9 16766.4 2094.43   1
  -4  -1   9 12508.7 2037.17   2
  -1  -4  10 7486.76 1564.65   1
   5  -4  10 9746.20 1573.25   1
  -5   4 -10 8084.61 1436.46   1
  -4   5  10 8138.88 1471.73   1
   1   4 -10 8661.54 1641.31   1
  -4  -1  10 8245.74 1531.73   2
  -5   1 -10 6972.37 1498.31   2
  -4  -1  10 8178.17 1535.76   1
   4   1 -10 6576.27 1358.88   1
  -1  -4  10 7131.28 1608.99   2
   4  -5 -10 6264.15 1393.57   1
  -1  -4  11 1604.62 805.617   1
  -4  -1  11 976.263 336.053   1
   1   4 -11 1767.45 626.232   1
   5  -4  11 1674.95 653.694   1
   4   1 -11 2147.04 897.224   1
  -5   4 -11 1779.51 759.634   1
   4  -5 -11 2117.12 829.075   1
  -4  -1  11 1078.64 472.506   2
  -1  -4  11 1544.69 896.595   2
  -4   5  11 2097.80 763.893   1
   4   1 -13 428.952 132.264   1
  -4  -1  13-442.647 508.286   2
   1   4 -13-37.2572 224.486   1
  -4  -1  13 310.881 480.549   1
  -1  -4  13 362.079 567.962   1
  -1  -4  13 907.022 585.365   2
  -4   5  13 185.777 284.015   1
   4   1 -14 6780.44 1505.16   1
  -4  -1  14 5554.20 1447.75   2
  -4  -1  14 5074.79 1392.79   1
  -1  -4  14 5093.70 1519.00   2
   1   4 -14 4202.75 1219.39   1
  -1  -4  14 6034.44 1602.98   1
  -4  -1  15 1127.79 909.256   1
  -1  -4  15 1244.79 634.555   1
  -4  -1  15 434.386 626.190   2
  -1  -4  15 1035.35 659.663   2
   4   1 -15 708.946 469.115   1
  -4  -1  16 123028. 7428.17   2
  -4  -1  16 131516. 7395.59   1
  -1  -4  16 132097. 7561.77   1
   4   1 -16 121961. 7192.15   1
   1   4 -16 146930. 7697.78   1
  -1  -4  16 142319. 8109.13   2
  -1  -4  17 1398.21 831.177   2
   4   1 -17 1050.87 356.303   1
  -4  -1  17 1468.63 913.438   1
  -1  -4  17 725.121 403.362   1
   1   4 -17 974.448 447.094   1
   4   1 -18 2661.68 977.742   1
  -4  -1  18 2093.07 957.070   1
  -1  -4  18 2428.74 1044.01   1
   1   4 -18 2535.63 1109.47   1
  -1  -4  18 1856.98 834.337   2
  -1  -4  19 925.463 425.844   2
   0  -5   0 317932. 8803.59   2
  -5   5   0 347879. 8976.36   2
   0   5   0 269472. 7907.34   1
  -5   5   0 360150. 9008.30   1
  -5   0   0 302577. 8446.11   2
   0  -5   0 279522. 7859.44   1
   5  -5   0 337079. 8927.53   1
   5   0   0 324560. 8128.31   1
  -5   0   3 545732. 11423.1   1
   0   5  -3 527270. 11471.6   1
   5   0  -3 576674. 11596.5   1
   5  -5   3 534937. 11242.5   1
   5  -5  -3 563299. 11831.3   1
   0  -5  -4 23401.9 1790.98   2
  -5   5   4 22740.0 2201.66   2
  -5   0   4 21136.1 2411.83   2
   5  -5  -4 27824.0 2662.52   1
   0   5  -4 25588.9 2535.75   1
  -5   0  -4 23349.8 1960.31   1
  -5   5  -4 24725.0 2356.13   1
   5   0   4 23247.8 1934.97   1
   5   0  -4 21485.6 2316.94   1
   0  -5  -4 19658.9 1904.35   1
  -5   5   4 21906.3 2310.20   1
   0   5   4 24925.1 2209.07   1
   0  -5   4 27118.7 2555.04   1
  -5   0  -4 26689.3 2528.83   2
  -5   0   4 24702.8 2473.75   1
   5  -5   4 21125.4 2239.47   1
  -5   0   5 31635.5 2852.24   1
  -5   5   5 33436.4 2803.84   2
  -5   0  -5 28567.6 2059.75   1
  -5   0   5 27396.6 2772.26   2
   5   0  -5 32472.1 2764.84   1
  -5   5  -5 26276.3 2591.36   1
   0   5  -5 28198.3 2688.38   1
   0  -5   5 32013.8 2886.80   1
  -5   5   5 34460.1 2916.76   1
   5  -5  -5 33833.4 2907.94   1
   0  -5  -5 41363.3 2767.78   1
   5   0   5 32867.6 2189.31   1
   5  -5   5 33456.1 2838.30   1
   0   5   5 38717.0 2716.92   1
  -5   0  -5 36648.5 2950.20   2
   0  -5  -5 23795.9 1646.26   2
  -5   0   6 3974.11 999.357   1
   5   0  -6 3674.42 889.651   1
  -5   0  -6 4670.06 1091.73   2
  -5   5   6 2507.20 838.966   1
   0  -5  -6 2423.75 656.284   1
   0  -5   6 4602.75 1181.51   1
  -5   0  -6 2584.69 573.819   1
   5   0   6 3042.05 647.906   1
   0   5  -6 2999.33 948.041   1
  -5   5   6 3601.81 906.416   2
   0   5   6 3183.01 802.892   1
   5  -5   6 3183.09 828.184   1
  -5   5  -6 2070.49 616.315   1
   5  -5  -6 3358.39 1066.22   1
  -5   0   6 3029.21 943.743   2
   5   0  -7 985.839 644.175   1
   5  -5   7 3117.38 972.781   1
   0   5   7 3332.27 791.243   1
  -5   0   7 2032.72 798.657   1
   5  -5  -7 2759.78 847.293   1
  -5   5   7 1711.93 650.725   1
  -5   5  -7 1769.91 613.827   1
   0  -5  -7 2189.96 627.621   1
  -5   0  -7 1396.93 500.595   2
   0   5  -7 2325.33 724.431   1
  -5   5   7 1818.47 611.901   2
   0  -5   7 2102.96 883.179   1
  -5   0   7 2127.11 756.652   2
  -5   5  -8 6073.12 1391.27   1
  -5   0  -8 8276.17 1490.48   2
   0   5  -8 4693.01 1179.63   1
  -5   0   8 5849.29 1300.78   1
   5  -5  -8 6973.15 1414.68   1
  -5   0   8 6757.06 1380.43   2
   0  -5   8 6751.99 1420.43   1
  -5   5   8 6058.06 1177.37   2
  -5   5   8 5550.52 1214.91   1
   5  -5   8 6663.20 1312.50   1
   5   0  -8 6525.19 1400.98   1
   5  -5  -9 125803. 6154.08   1
   5  -5   9 147202. 6410.37   1
   0   5  -9 152669. 6732.17   1
   0  -5   9 165838. 7203.14   1
   5   0  -9 161509. 7009.80   1
  -5   0  -9 169110. 6848.92   2
  -5   0   9 163084. 7267.57   2
  -5   0   9 138443. 6518.24   1
  -5   5  -9 125303. 6092.26   1
  -5   5   9 171862. 7267.98   1
  -5   5  10 611835. 14108.8   1
   5  -5 -10 645944. 14351.6   1
   0  -5  10 717620. 15096.9   1
   0   5 -10 772871. 15575.9   1
  -5   5  11 374569. 11285.5   1
  -5   0  11 350451. 10839.9   1
  -5   5 -11 406930. 11150.5   1
  -5   0 -11 460327. 12093.3   2
   0   5 -11 434025. 11929.7   1
   5   0 -11 349896. 10756.7   1
   0  -5  11 392276. 11507.5   1
   5  -5 -11 500487. 12723.7   1
   5  -5  11 380306. 11042.5   1
  -5   0  11 425957. 12398.0   2
  -5   0  12 152624. 7413.11   1
  -5   5 -12 160733. 7172.74   1
  -5   5  12 166484. 7646.34   1
  -5   0  12 143914. 7475.95   2
   0  -5  12 140327. 6948.73   1
   5   0 -12 154561. 7260.09   1
   5  -5 -12 120997. 6472.65   1
   5  -5  12 157538. 7122.27   1
   0   5 -12 131325. 6752.24   1
   5  -5 -13 240182. 9401.59   1
  -5   5  13 206326. 8752.06   1
  -5   0  13 174218. 8181.17   1
   5   0 -13 233524. 9230.58   1
   0  -5  13 217910. 9049.69   1
   0   5 -13 198427. 8515.45   1
  -5   0  13 232422. 9738.15   2
  -5   0  14 492005. 13600.6   1
   0  -5  14 456511. 13290.6   1
   0   5 -14 504844. 13942.4   1
   0  -5  14 420754. 13783.3   2
  -5   0  14 454850. 13832.6   2
  -5   0  15 44557.3 4648.77   2
   0  -5  15 42957.7 4146.05   1
  -5   0  15 52188.2 4578.76   1
   0   5 -15 44048.5 4208.78   1
   0  -5  15 55123.6 5059.01   2
   0  -5  16 3893.77 1277.35   1
  -5   0  16 4320.92 1382.88   1
  -5   0  16 3704.57 1409.39   2
   0  -5  16 3535.74 1248.73   2
   5   0 -16 4251.92 1353.66   1
   0   5 -16 4312.53 1400.71   1
   0  -5  17 12398.2 2374.77   1
   0  -5  17 9809.66 2163.51   2
  -5   0  17 15891.4 2630.90   1
   0   5 -17 12361.9 2315.76   1
   5   0 -17 8935.03 1976.77   1
   0  -5  18 8285.27 2052.40   2
   5   0 -18 13443.6 2487.35   1
   0  -5  18 12182.8 2378.79   1
  -5   0  18 17347.2 2847.39   1
   0  -5  19 2912.77 1123.79   2
  -6   3  17 210.657 358.245   1
  -6   3  16 177558. 8859.48   1
   6  -3 -16 122993. 7386.08   1
  -6   3  15 202.136 258.143   1
   3  -6  15 389.806 492.828   1
   6  -3 -15-489.621 517.140   1
  -3   6 -15-92.7878 223.381   1
  -3   6 -14 141150. 7400.06   1
   3  -6  14 149073. 7726.65   1
   6  -3 -14 146809. 7676.21   1
  -6   3  13 295.071 418.753   1
   3  -6  13 259.619 432.813   1
   6  -3 -13 258.706 559.759   1
  -3   6 -13 695.595 626.930   1
   3  -6  12 392138. 11936.2   1
  -6   3  12 398336. 11703.1   2
   6  -3 -12 413428. 12371.3   1
  -6   3  11 1.87511 424.641   2
  -6   3  11 444.148 447.397   1
  -3   6 -11-339.207 559.850   1
   6  -3 -11-63.7057 234.933   1
   3  -6  11 410.979 353.319   1
  -6   3  10 529388. 13275.9   1
   6  -3 -10 478263. 12602.5   1
   3  -6  10 452703. 12396.7   1
  -6   3  10 505255. 12449.1   2
  -3   6 -10 555168. 13493.9   1
   6  -3  -9-58.1821 137.918   1
  -6   3   9 339.250 514.807   1
  -3   6  -9 236.695 497.714   1
  -6   3   9-282.817 247.099   2
  -3   6  -7 258.867 397.469   1
  -6   3   7 3.96174 173.050   2
   6  -3  -7-12.4358 107.067   1
  -3  -3  -7 236.860 238.940   2
   3  -6   7 559.329 427.646   1
  -6   3   6 149003. 6420.14   2
  -6   3   6 154844. 6817.56   1
   3  -6   6 154848. 6540.20   1
  -3   6  -6 130174. 6031.61   1
   6  -3  -6 136858. 6235.41   1
  -3  -3  -5 372.788 274.803   1
  -6   3   5-434.007 506.009   2
  -6   3   5-418.290 545.056   1
   6  -3  -5 1071.41 512.407   1
   3   3   5 137.635 220.834   1
  -3   6  -5-286.391 553.862   1
   3  -6   5-46.7604 309.909   1
  -3  -3  -5 377.401 405.845   2
   3   3   3 42.8639 242.453   1
  -3   6  -3-786.714 530.440   1
  -3  -3  -3 184.691 316.704   2
  -6   3   3-528.551 478.327   1
  -3  -3  -3 330.057 279.553   1
   6  -3  -3 610.843 545.158   1
  -6   3   3 473.135 573.351   2
   3  -6   3 542.638 327.644   1
   3  -6   2 548588. 11856.7   1
  -3   6  -2 497809. 11204.3   1
  -3  -3  -2 581194. 11265.0   2
  -6   3   2 510876. 11281.6   2
  -6   3   2 450448. 10629.2   1
   6  -3  -2 505112. 11415.9   1
   3  -6   1-355.479 352.236   1
   6  -3  -1 146.799 268.496   1
  -3   6  -1-301.471 407.101   1
  -6   3   1-253.802 294.075   1
  -3  -3  -1 20.1438 309.150   1
  -6   3   1 128.835 265.785   2
   3   3   1-88.8158 307.968   1
  -3  -3  -1 396.231 357.873   2
   6  -3   0 226718. 7184.60   1
  -3  -3   0 249275. 7634.60   2
  -3   6   0 263846. 8010.31   1
   3   3   0 237072. 7095.22   1
  -6   3   0 242690. 7727.44   2
  -6   3   0 260658. 7810.37   1
  -3  -3   0 202377. 6576.02   1
   3  -6   0 294422. 8568.76   1
   6  -3   1 267.312 171.326   1
   3  -6  -1 1479.96 598.304   1
   3   3  -1 60.5818 209.371   1
  -3  -3   1 443.141 544.908   1
  -6   3  -1 54.1620 372.712   1
  -6   3  -1 312.753 357.001   2
  -3  -3   1 282.473 473.695   2
  -3   6   1-444.927 430.758   1
  -6   3  -2 361586. 9506.54   2
  -6   3  -2 350289. 8888.78   1
  -3   6   2 318359. 8866.94   1
  -3  -3   2 367830. 9551.04   2
  -3  -3   2 346610. 9071.79   1
   6  -3   2 397473. 9614.57   1
   3   3  -2 349342. 9000.04   1
  -3  -3   3-604.311 204.640   2
   6  -3   3 97.3558 225.474   1
   3   3  -3 463.198 338.263   1
   3  -6  -3 42.9944 387.213   1
  -3   6   3 320.786 413.301   1
  -3  -3   3-2.14103 154.224   1
  -6   3  -3 35.8143 191.265   2
  -6   3  -5-251.650 244.989   1
  -6   3  -5-390.627 459.280   2
   3  -6  -5 0.68437 254.011   1
  -3  -3   5-25.1534 143.677   2
  -3  -3   5 374.868 432.905   1
   3   3  -5 586.284 372.592   1
  -3   6   5 17.7419 74.7766   1
   6  -3   5 513.245 397.605   1
   6  -3   6 164568. 5967.62   1
  -3   6   6 182295. 6569.82   1
  -6   3  -6 164050. 6861.52   2
   3   3  -6 153030. 6566.39   1
  -6   3  -6 169239. 5926.13   1
  -3  -3   6 149894. 6663.73   2
   3  -6  -6 163968. 6310.27   1
  -3  -3   7 243.137 475.580   1
   3  -6  -7 198.281 151.353   1
  -6   3  -7 413.103 297.360   1
   6  -3   7 364.315 218.717   1
  -6   3  -7 130.371 385.915   2
   3   3  -7-215.579 492.760   1
  -3   6   7 163.378 354.801   1
  -3  -3   7 504.513 629.394   2
  -3   6   9 351.772 300.530   1
  -6   3  -9 263.581 416.836   2
  -3  -3   9-218.915 162.192   1
   3   3  -9 476.380 752.815   1
   3  -6  -9-222.884 346.740   1
  -3  -3   9 752.080 573.260   2
  -3  -3  10 771529. 16422.3   2
  -3  -3  10 747427. 15958.1   1
   3   3 -10 769616. 15773.2   1
  -3  -3  11 866.993 783.914   2
   3   3 -11 157.932 365.559   1
  -3  -3  11-120.243 464.669   1
  -3  -3  12 314395. 10834.3   1
   3   3 -12 306797. 10330.7   1
  -3  -3  12 317798. 10922.6   2
   3   3 -13 321.890 138.106   1
  -3  -3  13-34.5567 294.328   1
  -3  -3  13 701.909 486.997   2
  -3  -3  14 219758. 9308.06   1
   3   3 -14 238488. 9755.19   1
  -3  -3  14 232755. 9817.07   2
  -3  -3  15 498.369 547.839   1
  -3  -3  15 241.307 175.727   2
   3   3 -15 73.1521 103.891   1
  -3  -3  16 277507. 11306.7   2
  -3  -3  16 289889. 11154.4   1
   3   3 -17 458.999 694.335   1
  -3  -3  17-231.028 490.155   1
  -3  -3  17-206.633 685.636   2
  -3  -3  18 2820.17 1149.20   2
  -3  -3  18 2797.98 1171.65   1
   3   3 -18 4085.69 1393.18   1
  -3  -3  19 350.750 431.704   1
  -6   2  18 59814.3 5384.02   1
  -6   2  17 50779.1 4774.17   1
   6  -2 -17 47573.6 4741.69   1
  -6   2  16 876.799 790.912   1
  -2   6 -16 1210.26 897.404   1
  -6   4  16 734.019 702.874   1
   2  -6  16 84.1589 387.572   1
   6  -2 -16 907.310 732.232   1
   6  -2 -15 65608.2 5194.92   1
  -2   6 -15 55109.7 4764.26   1
  -6   2  15 60684.5 5111.29   1
   6  -4 -15 61973.4 5129.00   1
  -6   4  15 49052.3 4675.85   1
   2  -6  15 70283.8 5428.25   1
   4  -6  14 163161. 7983.53   1
  -4   6 -14 164924. 8106.86   1
  -6   4  14 205046. 9270.46   1
  -2   6 -14 150494. 7658.97   1
   6  -2 -14 188854. 8692.72   1
   2  -6  14 192576. 8690.50   1
  -6   2  14 145325. 7633.97   1
   6  -2 -13 66926.9 5095.22   1
  -6   4  13 99864.2 6137.22   1
   4  -6  13 73092.9 5161.49   1
   2  -6  13 80156.6 5470.11   1
  -4   6 -13 71178.4 5205.74   1
  -6   2  13 63208.3 5298.70   2
   6  -4 -13 96710.4 6233.05   1
  -2   6 -13 78276.4 5400.64   1
  -6   2  13 74370.6 5311.73   1
  -2   6 -12 37574.3 3692.29   1
  -6   4  12 38435.4 3709.33   1
  -6   2  12 28018.3 3263.31   1
   6  -2 -12 38997.9 3799.85   1
   2  -6  12 39368.4 3751.87   1
   4  -6  12 40305.7 3759.04   1
  -4   6 -12 43505.4 3960.71   1
   6  -4 -12 43824.8 4040.54   1
  -6   2  12 38338.4 3834.35   2
   4  -6  11 119545. 6489.00   1
   6  -4 -11 169988. 7733.53   1
  -2   6 -11 137691. 6937.61   1
  -6   4  11 118082. 6496.95   1
   6  -2 -11 141224. 7015.83   1
  -6   2  11 141291. 6997.64   1
   2  -6  11 128061. 6650.52   1
  -4   6 -11 117776. 6367.03   1
  -6   2  11 155601. 7468.14   2
  -6   4  10 545440. 13569.9   1
   4  -6  10 515358. 13005.8   1
  -6   2  10 559409. 13826.7   2
  -6   2  10 576507. 13844.9   1
   2  -6  10 509113. 13129.5   1
  -6   4  10 584868. 13008.4   2
  -2   6 -10 574705. 13956.2   1
  -6   4   9 74334.8 4918.94   1
   6  -4  -9 89208.3 5458.02   1
   2  -6   9 57523.0 4380.93   1
  -2   6  -9 60568.2 4394.82   1
   6  -2  -9 81611.4 5045.69   1
  -6   2   9 68690.6 4746.43   2
   4  -6   9 70395.1 4767.49   1
  -4   6  -9 87182.4 5259.42   1
  -6   2   9 67835.4 4640.38   1
  -6   4   9 74536.0 4604.13   2
  -6   2   8 230445. 8379.52   1
  -6   2   8 239981. 8608.37   2
  -2   6  -8 252628. 8688.55   1
  -6   4   8 235684. 8542.68   1
  -4   6  -8 267396. 9052.32   1
   2  -6   8 244890. 8660.27   1
   4  -6   8 233481. 8356.68   1
   6  -2  -8 253111. 8767.88   1
  -6   4   8 240383. 8246.01   2
  -4  -2  -8 214507. 7084.52   2
  -6   4   7 62034.3 4108.43   2
  -2   6  -7 66627.3 4414.98   1
   6  -4  -7 60289.2 4280.34   1
  -6   4   7 68503.0 4477.04   1
  -6   2   7 63011.6 4361.29   1
   6  -2  -7 76550.6 4767.21   1
  -4  -2  -7 75056.7 4088.51   2
  -4   6  -7 78683.6 4778.25   1
   4  -6   7 73032.4 4640.55   1
  -6   2   7 73546.4 4668.71   2
   2  -6   7 68195.6 4471.01   1
  -2   6  -6 695560. 14161.5   1
   2  -6   6 708713. 14293.2   1
   6  -4  -6 552656. 12653.5   1
  -4   6  -6 623916. 13386.0   1
  -6   4   6 788067. 15061.9   1
  -6   4   4 922.461 528.588   1
   4  -6   4 726.341 518.563   1
  -4   6  -4 444.289 101.259   1
  -4  -2  -4 466.670 248.437   2
  -6   2   4 650.943 180.458   2
   6  -2  -4 1127.79 507.324   1
  -4  -2  -4 932.842 350.592   1
   6  -4  -4 863.426 502.381   1
  -6   2   4 1044.45 553.080   1
   2   4   4 2435.14 644.778   1
  -2   6  -4 852.552 522.046   1
   4   2   4 1247.38 505.195   1
  -2  -4  -4 673.673 377.454   1
  -2  -4  -4 727.170 413.475   2
  -6   4   4 851.274 369.147   2
   2  -6   4 1164.86 567.821   1
  -4   6  -1 40097.1 3159.74   1
   6  -4  -1 42522.2 3230.33   1
   4  -6   1 42192.4 3268.55   1
   6  -2  -1 42152.7 3137.66   1
  -4  -2  -1 47796.8 3031.87   1
  -2  -4  -1 37469.0 2769.50   1
  -6   4   1 42016.9 3237.51   2
  -6   4   1 36720.9 3006.88   1
   4   2   1 48088.0 3079.89   1
  -4  -2  -1 32176.2 2798.33   2
   2   4   1 45303.3 3040.25   1
   2  -6   1 54982.9 3716.69   1
  -6   2   1 41386.0 3244.55   2
  -6   2   1 40928.8 3152.49   1
  -2   6  -1 43526.9 3300.81   1
  -2  -4  -1 41351.9 2928.28   2
  -4  -2   0 2247.61 600.758   2
  -6   2   0 3284.10 945.862   2
  -2  -4   0 2611.41 742.813   2
   4  -6   0 3575.40 972.089   1
   2  -6   0 2601.76 869.350   1
  -6   4   0 3006.05 832.317   1
  -2   6   0 6843.77 1228.47   1
  -6   2   0 3219.19 892.204   1
   4   2   0 2777.06 699.320   1
  -4  -2   0 3786.56 828.240   1
   6  -2   0 3615.30 966.717   1
  -4   6   0 3054.20 739.700   1
   2   4   0 3971.30 930.727   1
  -2  -4   0 2564.92 733.133   1
  -6   4   0 2693.66 807.088   2
   6  -4   0 2825.81 824.461   1
   6  -4   1 86351.3 4558.60   1
  -4  -2   1 77842.3 4267.49   1
  -6   4  -1 84640.8 4725.44   2
  -2  -4   1 88737.7 4392.17   1
  -4   6   1 68642.9 4059.19   1
   2  -6  -1 97145.7 4755.40   1
   4   2  -1 81075.4 4310.14   1
  -6   4  -1 87242.4 4578.04   1
  -6   2  -1 85803.9 4674.80   2
  -4  -2   1 97049.1 4931.95   2
  -2   6   1 78847.4 4369.83   1
   2   4  -1 73474.8 4098.30   1
  -2  -4   1 83521.9 4389.98   2
   6  -2   1 74163.3 4315.30   1
  -6   2  -1 79336.1 4278.06   1
  -2  -4   3 434382. 10692.6   2
   6  -2   3 481836. 10211.2   1
  -4  -2   3 441552. 10647.3   1
  -6   4  -3 459038. 11211.9   2
   4   2  -3 439094. 10473.1   1
  -6   2  -3 460369. 10743.2   2
   2   4  -3 400426. 10139.1   1
  -2  -4   3 426703. 10224.3   1
  -4   6   3 452878. 10551.6   1
   6  -4   3 458575. 10534.3   1
  -4  -2   3 430562. 10980.4   2
  -6   4  -4 702581. 13870.7   2
   4  -6  -4 426055. 10553.7   1
  -6   2  -5 264194. 8432.64   2
  -6   4  -5 253582. 7592.62   1
  -4  -2   5 242166. 8334.25   1
  -2  -4   5 249925. 8464.36   2
   2   4  -5 238182. 8020.89   1
  -4   6   5 189804. 6963.36   1
  -4  -2   5 208328. 7764.89   2
  -6   2  -5 215953. 6592.37   1
  -2  -4   5 227268. 7764.02   1
   2  -6  -5 203127. 6915.18   1
   6  -2   5 268185. 7454.07   1
  -6   4  -5 188094. 7401.29   2
   4  -6  -5 132204. 5924.83   1
   4   2  -5 214002. 7550.78   1
   6  -4   5 201310. 6969.85   1
  -2   6   5 234108. 7513.77   1
  -6   2  -6 758832. 14712.7   2
  -6   2  -7 286526. 7207.40   1
  -4  -2   7 254542. 8867.38   1
   2   4  -7 230814. 8216.79   1
  -6   4  -7 271717. 9148.13   2
  -6   2  -7 243215. 8599.06   2
  -2  -4   7 253119. 8673.97   1
  -6   4  -7 266441. 8134.50   1
  -4   6   7 271652. 8652.17   1
   4   2  -7 288593. 9128.79   1
   6  -2   7 308091. 7758.84   1
   2  -6  -7 314294. 8658.25   1
   6  -4   7 291600. 8514.28   1
   4  -6  -7 331360. 9542.71   1
  -4  -2   7 292392. 9427.17   2
  -2  -4   7 303519. 9843.78   2
  -6   2  -8 22018.3 2586.62   2
   2   4  -8 19550.3 2489.65   1
   6  -4   8 22439.8 2436.96   1
  -4  -2   8 22048.9 2646.01   1
  -2  -4   8 18576.7 2431.58   1
  -2   6   8 21237.0 2301.45   1
  -2  -4   8 21030.9 2604.03   2
   4   2  -8 24826.8 2791.09   1
  -6   4  -8 22461.1 2616.03   2
  -4  -2   8 15948.1 2199.18   2
   2  -6  -8 17889.5 2076.61   1
  -6   4  -8 17269.2 2069.16   1
  -4   6   8 18343.1 2291.80   1
  -4  -2   9 379231. 11310.1   2
  -2  -4   9 441359. 12300.5   2
  -6   4  -9 304098. 8892.99   1
  -2   6   9 444691. 10704.6   1
  -6   2  -9 300505. 9837.81   2
  -2  -4   9 341974. 10413.8   1
   6  -4   9 393232. 10230.5   1
  -4  -2   9 347499. 10731.6   1
   4   2  -9 286375. 9622.17   1
  -4   6   9 361278. 10289.8   1
   2  -6  -9 295871. 8581.40   1
   4  -6  -9 310526. 9593.62   1
   2   4  -9 322305. 10125.3   1
  -4   6  10 287089. 9293.47   1
  -6   2 -10 339936. 10788.8   2
  -2  -4  10 331289. 10563.2   1
   6  -4  10 371343. 10028.8   1
  -2  -4  10 406635. 12134.7   2
   4   2 -10 329294. 10411.1   1
   2   4 -10 348725. 10448.3   1
   4  -6 -10 371888. 10700.8   1
  -4  -2  10 370067. 11228.6   1
  -4  -2  10 402974. 11732.1   2
   4  -6 -11 157755. 7130.24   1
   4   2 -11 134045. 6690.37   1
  -4  -2  11 158044. 7410.66   1
  -2  -4  11 147493. 7188.17   1
   2   4 -11 134107. 6769.98   1
  -4  -2  11 123796. 6744.02   2
  -2  -4  11 154210. 7722.96   2
  -4  -2  12 43739.4 3997.42   2
  -2  -4  12 35140.9 3617.21   2
   2   4 -12 38067.3 3635.52   1
  -2  -4  12 34161.5 3542.74   1
  -4   6  12 25303.2 2903.03   1
   4   2 -12 34407.3 3459.54   1
  -4  -2  12 29691.7 3285.31   1
   2   4 -13 50851.4 4257.29   1
  -4  -2  13 63561.5 4865.03   1
  -2  -4  13 70224.2 5144.10   1
   4   2 -13 57203.9 4665.17   1
  -2  -4  13 73194.7 5481.79   2
  -4  -2  13 54274.5 4651.48   2
   4   2 -14 220923. 9168.10   1
  -2  -4  14 221073. 9466.44   1
  -4  -2  14 195058. 8703.96   1
  -2  -4  14 194493. 9189.27   2
   2   4 -14 216709. 9162.53   1
  -4  -2  14 208339. 9297.55   2
  -4  -2  15 21291.5 3005.90   1
  -2  -4  15 20268.6 2908.58   1
   4   2 -15 20827.0 2924.69   1
   2   4 -15 28101.7 3369.26   1
  -2  -4  15 22721.6 3105.08   2
  -4  -2  15 21921.4 3174.55   2
  -4  -2  16 53212.3 4964.73   2
  -4  -2  16 57124.3 4860.87   1
  -2  -4  16 70039.6 5584.05   1
   4   2 -16 67357.0 5393.51   1
  -2  -4  16 67300.4 5530.93   2
   2   4 -16 66918.1 5364.55   1
  -4  -2  17 9975.74 2123.37   1
  -2  -4  17 15535.6 2590.28   1
   4   2 -17 14305.2 2506.73   1
   2   4 -17 7971.00 1935.04   1
  -4  -2  17 14104.9 2636.83   2
  -2  -4  17 12617.9 2402.55   2
   4   2 -18 106146. 7054.70   1
  -2  -4  18 58233.0 5305.35   2
  -4  -2  18 72895.9 5767.09   1
  -2  -4  18 83559.6 6317.43   1
   2   4 -18 93875.3 6529.15   1
  -4  -2  18 88474.8 6827.17   2
   4   2 -19 51365.4 5030.75   1
  -4  -2  19 53629.3 5010.60   1
  -2  -4  19 67166.7 5690.82   1
   1  -6  19 4769.25 1820.79   2
   1  -6  18 25137.1 3554.67   2
   6  -1 -18 32032.3 3983.39   1
   1  -6  17 36580.1 4406.55   2
   6  -1 -17 42865.2 4416.38   1
   1  -6  17 42366.8 4403.70   1
  -1   6 -17 32036.6 3809.09   1
   1  -6  16 23181.5 3158.38   1
  -6   1  16 24531.1 3301.96   1
  -1   6 -16 25800.3 3310.15   1
   6  -1 -16 16659.0 2662.08   1
   6  -5 -15 58459.1 4953.40   1
  -6   5  15 40480.8 4226.07   1
   6  -1 -15 45067.0 4308.24   1
   1  -6  15 46193.3 4419.49   1
  -6   1  15 62694.9 5170.16   1
  -1   6 -15 53932.5 4687.37   1
  -6   5  14 268585. 10668.7   1
   1  -6  14 243040. 9925.46   1
   6  -5 -14 237167. 9850.46   1
   6  -1 -14 256100. 10073.1   1
  -1   6 -14 254467. 10053.8   1
  -6   1  14 277163. 11448.8   2
  -6   1  14 297743. 10951.3   1
  -1   6 -13 52169.6 4443.93   1
   1  -6  13 60322.9 4812.67   1
  -5   6 -13 62390.3 4887.93   1
  -6   1  13 64878.2 5030.76   1
  -6   5  13 67030.2 5170.00   1
   5  -6  13 65026.1 4958.68   1
  -6   1  13 67047.6 5370.82   2
   6  -1 -13 56456.6 4590.55   1
   6  -5 -13 68063.8 5096.28   1
  -1   6 -12 34035.4 3482.91   1
  -6   1  12 29233.2 3307.76   1
   6  -1 -12 40105.5 3834.71   1
   6  -5 -12 40199.1 3849.74   1
  -6   1  12 39827.1 3969.38   2
  -5   6 -12 38442.5 3770.13   1
   1  -6  12 34542.9 3605.82   1
  -6   5  12 44908.9 4063.99   1
   5  -6  12 34373.3 3580.71   1
  -1   6 -11 154306. 7274.34   1
  -6   1  11 160565. 7502.38   1
   1  -6  11 159941. 7575.79   1
   6  -5 -11 168783. 7685.12   1
   6  -1 -11 149579. 7138.26   1
  -5   6 -11 152579. 7286.91   1
  -6   1  11 164063. 8030.31   2
   5  -6  11 171200. 7723.26   1
  -6   5  11 163949. 7686.46   1
  -6   1  10 422339. 11902.3   1
  -1   6 -10 448157. 12375.5   1
  -6   1  10 509195. 13853.4   2
   1  -6  10 519439. 13523.1   1
  -5   6 -10 404736. 11771.7   1
   6  -1 -10 558316. 13547.4   1
   5  -6  10 433236. 12010.1   1
  -6   5  10 505329. 13390.3   1
   6  -5 -10 588184. 14026.8   1
   6  -1  -9 313174. 9994.75   1
  -6   5   9 305508. 10264.4   1
  -1   6  -9 529534. 13353.4   1
  -6   1   9 451305. 12043.0   1
  -6   1   9 439195. 12628.2   2
   1  -6   9 425631. 11878.3   1
  -5  -1  -9 404841. 10813.5   2
  -5   6  -9 473892. 12212.0   1
   5  -6   9 415828. 11448.2   1
   6  -5  -9 399708. 11407.9   1
  -6   5   9 416872. 10632.1   2
  -6   5   8 50087.1 4009.45   1
  -5  -1  -8 50655.6 3736.49   2
  -1   6  -8 50833.3 3983.97   1
  -6   5   8 50688.0 3679.65   2
   6  -1  -8 45604.6 3737.39   1
   5  -6   8 42369.8 3623.89   1
   1  -6   8 46513.9 3798.36   1
  -5   6  -8 42783.7 3652.10   1
  -6   1   8 47753.9 4060.80   2
   6  -5  -8 41752.1 3592.45   1
  -6   1   8 51466.6 4043.04   1
  -6   5   7 126676. 6310.08   1
  -1   6  -7 130238. 6427.99   1
  -6   1   7 125413. 6136.54   1
   5  -6   7 135837. 6371.62   1
  -6   5   7 134931. 5862.53   2
   6  -1  -7 120400. 6004.06   1
  -6   1   7 127581. 6387.95   2
   1  -6   7 136292. 6449.85   1
  -5  -1  -7 142037. 5974.65   2
   6  -5  -7 136009. 6405.46   1
  -5   6  -7 144275. 6530.12   1
  -1   6  -6 367116. 10388.3   1
   6  -1  -6 340139. 9738.84   1
  -6   5   6 342839. 10114.1   1
   1   5   6 337910. 8052.42   1
  -6   5   6 323994. 9056.29   2
  -6   1   6 306502. 9310.22   1
  -6   1   6 339004. 10193.9   2
  -5  -1  -6 298044. 8825.39   2
   6  -5  -6 340061. 10193.2   1
   5  -6   6 303165. 9392.27   1
  -1  -5  -6 371438. 8161.53   1
  -5   6  -6 332053. 9592.75   1
   1  -6   6 298632. 9555.55   1
  -5   6  -5 4479.93 1095.15   1
  -1  -5  -5 3679.49 768.824   2
   5  -6   5 4536.25 1104.05   1
  -1   6  -5 4227.63 1202.26   1
  -5  -1  -5 4358.45 824.228   1
   6  -5  -5 3729.86 971.293   1
   5   1   5 5248.35 948.855   1
  -6   5   5 3929.86 1051.97   1
  -5  -1  -5 5057.31 1198.04   2
   6  -1  -5 3371.70 1040.97   1
   1  -6   5 3794.30 993.127   1
  -6   1   5 4305.81 1049.79   1
  -6   5   5 3292.02 894.388   2
   1   5   5 4628.22 952.126   1
  -1  -5  -5 4906.48 948.162   1
  -6   1   5 4156.30 964.144   2
  -6   1   4 28756.7 2899.88   2
  -5   6  -4 28475.9 2697.25   1
  -5  -1  -4 21051.7 1897.12   1
  -6   1   4 23312.1 2494.41   1
  -1  -5  -4 17170.6 1891.55   1
   5   1   4 23418.3 2026.66   1
   5  -6   4 25267.4 2627.30   1
   1  -6   4 26841.3 2674.82   1
  -1   6  -4 23596.7 2608.75   1
  -1  -5  -4 27518.7 2262.78   2
   6  -5  -4 26331.4 2674.79   1
  -6   5   4 24483.5 2553.69   2
   6  -1  -4 24655.7 2524.59   1
  -6   5   4 25207.2 2562.15   1
   1   5   4 19611.4 2101.26   1
  -5  -1  -4 31409.0 2733.58   2
  -5  -1  -3 230947. 7663.76   2
  -6   5   3 301722. 8918.64   2
  -5  -1  -3 258130. 7014.77   1
  -5   6  -3 283676. 8734.93   1
   5  -6   3 264180. 8327.60   1
  -1  -5  -3 223657. 6651.27   2
   5   1   3 303928. 7589.95   1
  -6   5   3 258174. 8394.63   1
   6  -1  -3 282963. 8493.12   1
   1   5   3 143692. 5760.82   1
  -1  -5  -3 283677. 7802.47   1
  -1   6  -3 263535. 8479.25   1
   1  -6   3 211761. 7587.76   1
  -6   1   3 252397. 8239.49   2
   6  -5  -3 271720. 8724.04   1
  -6   1   3 261201. 8304.02   1
  -6   1   2 678973. 13315.9   2
  -6   5   2 745809. 14028.4   2
  -6   5   1 998095. 16334.2   2
   6  -5   0 453864. 10921.6   1
  -6   5   0 426385. 10397.0   1
  -6   1   0 474135. 10586.0   1
  -5   6   0 395465. 9859.66   1
   6  -1   0 410040. 9941.22   1
   5  -6   0 388406. 9966.79   1
   5   1   0 421295. 9837.46   1
  -1  -5   0 399719. 9911.60   1
   1  -6   0 486815. 11015.6   1
  -6   5   0 442986. 10890.1   2
  -5  -1   0 471722. 10987.0   2
  -5  -1   0 416741. 9655.97   1
  -6   1   0 428785. 10791.3   2
  -6   1  -1 261478. 8265.22   2
  -6   5  -1 279978. 8741.95   2
  -5   6   1 234877. 7735.87   1
  -1  -5   1 232079. 7689.41   1
  -6   5  -1 244696. 7839.66   1
   5  -6  -1 266207. 8406.70   1
   5   1  -1 262010. 7956.98   1
  -1   6   1 269535. 8219.43   1
   6  -5   1 255737. 8203.64   1
  -1  -5   1 265163. 8128.69   2
  -5   6   1 311682. 8815.13   2
   1   5  -1 303787. 8804.52   1
  -5  -1   1 285739. 8866.53   2
  -5  -1   1 264364. 7835.68   1
  -6   1  -1 260559. 7641.27   1
   6  -1   1 288465. 8199.13   1
  -6   5  -3 47995.3 3693.60   2
  -1  -5   3 55166.1 3933.12   2
   6  -1   3 51898.4 3396.45   1
   1   5  -3 52736.3 3764.04   1
  -5   6   3 50095.7 3602.07   1
  -5  -1   3 51346.2 3655.45   1
  -6   1  -3 55899.6 3509.67   1
   6  -5   3 53425.7 3766.86   1
  -5   6   3 53522.8 3607.09   2
  -1  -5   3 65950.4 4143.78   1
   5   1  -3 52159.4 3662.87   1
  -6   1  -3 57818.7 3934.72   2
   1  -6  -3 56686.3 3447.23   2
  -6   5  -3 58711.2 3755.85   1
  -5  -1   3 48242.3 3736.99   2
  -1   6   3 60017.3 3859.41   1
   5  -6  -3 67630.2 4312.32   1
  -1   6   4 2780.53 741.805   1
   1   5  -4 2021.07 778.653   1
  -1  -5   4 2919.86 922.846   1
   6  -5   4 1882.67 716.657   1
   5  -6  -4 2958.79 926.279   1
   1  -6  -4 1269.20 491.570   2
   5   1  -4 1615.19 520.794   1
  -6   1  -4 2260.10 639.028   1
  -1  -5   4 1456.33 566.692   2
  -5   6   4 2334.63 823.221   1
   6  -1   4 2450.15 732.006   1
  -5  -1   4 2053.87 806.923   1
  -6   5  -4 1809.41 798.758   2
  -5  -1   4 2148.53 762.684   2
  -6   5  -4 2470.85 905.764   1
  -5   6   4 1737.55 607.627   2
  -6   1  -4 1841.85 610.871   2
   1  -6  -4 2309.93 639.057   1
   5  -6  -5 394659. 10549.3   1
  -6   1  -5 383757. 9988.90   2
  -1  -5   5 264310. 9210.57   2
   1   5  -5 342503. 9893.50   1
  -5   6   5 319190. 8449.76   2
   6  -5   5 386330. 10110.3   1
  -5  -1   5 347884. 9843.82   1
   5   1  -5 360267. 9959.60   1
  -5   6   5 350196. 9893.76   1
  -6   1  -5 357705. 8213.62   1
   1  -6  -5 379183. 9475.03   1
  -6   5  -5 356909. 9476.01   1
  -1  -5   5 288720. 9147.55   1
  -1   6   5 260895. 8148.72   1
  -5  -1   5 366025. 10491.3   2
  -6   5  -5 404300. 10869.2   2
  -1  -5   6 134437. 6646.14   2
  -5   6   6 101697. 4704.48   2
   6  -5   6 94630.6 5098.17   1
  -5   6   6 86122.3 4899.49   1
   5  -6  -6 76185.1 4710.24   1
  -6   1  -6 80265.6 4774.03   2
  -5  -1   6 76180.5 4725.14   1
   1  -6  -6 60752.1 3804.66   1
  -1  -5   6 96506.2 5308.99   1
  -6   5  -6 86382.9 4833.89   1
   5   1  -6 80213.7 4662.78   1
  -1   6   6 89998.9 4614.42   1
  -5  -1   6 70086.3 4728.68   2
  -6   5  -6 94765.1 5341.18   2
   6  -1   6 87816.6 4088.39   1
   1   5  -6 90626.2 5138.75   1
  -6   1  -6 77469.3 3750.72   1
   5  -6  -7 250835. 8604.82   1
  -5   6   7 298875. 7969.37   2
  -6   5  -7 287454. 8920.64   1
   1   5  -7 289366. 9207.89   1
  -1  -5   7 225513. 8974.68   2
  -1   6   7 223591. 7286.13   1
  -5  -1   7 276302. 9039.50   1
  -5   6   7 182430. 7395.58   1
  -1  -5   7 299601. 9511.97   1
   5   1  -7 300319. 9418.99   1
  -5  -1   7 236724. 8804.21   2
   6  -5   7 257542. 8506.56   1
   1  -6  -7 229176. 7568.48   1
  -6   1  -7 281028. 9094.53   2
  -6   5  -8 69632.1 4362.92   1
  -1  -5   8 78827.3 5434.16   2
  -1   6   8 97107.8 4834.14   1
   5   1  -8 61102.4 4374.68   1
   5  -6  -8 96090.4 5333.78   1
  -5  -1   8 83479.4 5355.75   2
  -5  -1   8 75384.7 4858.35   1
  -6   1  -8 78687.9 4887.56   2
  -1  -5   8 64007.8 4427.39   1
   6  -5   8 76953.7 4800.95   1
   1   5  -8 76080.0 4771.08   1
  -5   6   8 78175.8 4954.17   1
  -6   5  -9 70854.9 4551.31   1
  -5  -1   9 67779.8 4827.76   2
  -5  -1   9 68169.0 4713.38   1
   5   1  -9 66698.5 4697.05   1
  -1  -5   9 52803.5 4209.48   1
   5  -6  -9 65141.8 4506.59   1
  -6   1  -9 72764.6 4775.58   2
   1   5  -9 71178.8 4728.79   1
   6  -5   9 73927.4 4676.14   1
  -1  -5   9 73266.0 5273.09   2
   1   5 -10 555344. 13609.8   1
  -1  -5  10 797314. 17793.6   2
  -5  -1  10 688430. 15370.4   1
  -1  -5  10 686964. 15402.8   1
   6  -5  10 657057. 14152.7   1
  -5  -1  10 560202. 14663.1   2
  -5  -1  11 65873.8 5100.89   2
  -5  -1  11 85253.2 5518.46   1
   1   5 -11 87136.0 5508.51   1
  -6   1 -11 84151.8 5517.99   2
  -1  -5  11 88335.6 5537.07   1
   5   1 -11 77941.9 5265.45   1
  -1  -5  11 70536.9 5432.15   2
   6  -5  11 89651.3 5325.93   1
   5  -6 -11 109691. 6139.49   1
  -5   6  11 84524.9 5439.45   1
   5  -6 -12 57282.7 4620.80   1
  -1  -5  12 74447.5 5570.80   2
  -5   6  12 76782.2 5284.30   1
  -5  -1  12 70860.0 5339.77   2
  -1  -5  12 65907.4 4951.63   1
  -5  -1  12 77003.8 5319.23   1
   1   5 -12 57547.1 4580.23   1
   5   1 -12 80571.4 5440.00   1
   1   5 -13 133288. 7081.46   1
  -1  -5  13 133600. 7516.80   2
  -5  -1  13 142925. 7357.93   1
  -1  -5  13 134398. 7231.71   1
  -5  -1  13 122619. 7358.41   2
  -5  -1  14 177774. 8402.24   1
   1   5 -14 176942. 8312.49   1
  -1  -5  14 204893. 9146.20   1
  -5  -1  14 184423. 9223.82   2
   5   1 -14 208311. 9072.92   1
  -1  -5  14 186991. 9048.77   2
  -1  -5  15 78648.5 5851.68   2
  -5  -1  15 80420.9 5779.42   1
   1   5 -15 84632.2 5980.44   1
  -1  -5  15 75411.5 5616.85   1
   5   1 -15 72968.7 5499.24   1
  -5  -1  15 91268.5 6495.91   2
  -5  -1  16 6835.79 1801.13   2
  -1  -5  16 7465.24 1904.92   2
  -5  -1  16 4272.73 1352.59   1
  -1  -5  16 4170.25 1283.46   1
   5   1 -16 6528.78 1671.69   1
   1   5 -16 4941.13 1454.97   1
  -5  -1  17 13891.8 2707.30   2
   1   5 -17 11845.4 2261.34   1
   5   1 -17 13691.4 2470.83   1
  -1  -5  17 13860.5 2558.68   1
  -1  -5  17 12569.3 2424.17   2
  -5  -1  17 13291.7 2399.77   1
  -1  -5  18 69555.7 5897.62   2
  -5  -1  18 70173.0 5663.99   1
  -1  -5  18 68460.6 5769.43   1
   5   1 -18 86563.4 6297.31   1
   1   5 -18 65766.1 5582.25   1
  -5  -1  19 5325.99 1674.02   1
  -1  -5  19 3161.72 1330.47   2
   6   0   1 6875.36 1242.39   1
   0  -6   1 4457.29 1177.60   2
  -6   0  -1 5784.13 1165.14   1
   0  -6  -1 5275.38 1187.66   2
   6  -6  -1 4283.25 1116.11   1
   0   6  -1 3976.80 1124.54   1
   0  -6  -1 5173.90 1095.22   1
   6  -6   1 5410.42 1139.36   1
   0   6   1 8174.49 1487.73   1
  -6   6  -1 6977.82 1405.06   1
   0  -6   1 6017.97 1242.56   1
  -6   0   1 4790.52 1096.41   1
  -6   6   1 6964.13 1396.83   2
  -6   0   1 4835.13 1144.59   2
  -6   6  -1 6467.85 1315.07   2
   6   0  -1 3962.25 1038.44   1
  -6   6   1 6636.76 1372.99   1
  -6   0  -1 6799.17 1317.52   2
   0  -6  -2 696.127 454.560   2
  -6   6   2 736.346 241.540   1
  -6   0  -2 788.925 426.885   1
   0   6   2 611.231 532.710   1
   0  -6   2 1156.15 714.160   1
   6  -6  -2 287.354 460.507   1
  -6   0   2 1105.81 544.791   1
   6  -6   2 1156.26 580.040   1
  -6   6  -2 859.761 424.901   1
   6   0  -2 578.632 500.699   1
   0  -6   2 2470.00 955.772   2
   0  -6  -2 1181.49 545.466   1
  -6   0  -2 580.108 221.276   2
  -6   6  -2 1669.45 739.845   2
  -6   0   2 1068.06 496.688   2
   0   6  -2 795.170 518.119   1
  -6   6   2 900.546 414.889   2
   6   0   2 1462.90 555.433   1
   0  -6  -3 10769.2 1580.70   1
  -6   0   3 13116.6 1904.78   1
   6  -6  -3 12098.0 1757.16   1
   6   0   3 15688.7 1911.90   1
   0  -6   3 11571.7 1814.22   1
  -6   6  -3 16701.8 2100.41   1
   6   0  -3 15550.1 2087.11   1
   0   6   3 10595.2 1613.40   1
  -6   6  -3 17609.9 2328.64   2
  -6   6   3 11765.3 1749.66   1
  -6   0  -3 18626.6 2024.23   1
  -6   6   3 12126.3 1734.70   2
   0   6  -3 10551.0 1765.32   1
  -6   0   3 13871.2 1942.40   2
   6  -6   3 14233.9 1980.53   1
  -6   0  -3 13081.7 1954.41   2
   0  -6  -3 10299.0 1504.80   2
   6  -6  -4 517324. 12246.7   1
   6  -6   4 436517. 11130.9   1
  -6   0   4 483157. 11797.2   1
  -6   6  -4 553096. 12538.4   1
  -6   0  -4 437204. 11217.5   2
   6   0  -4 453267. 11368.4   1
   0   6   4 512685. 11391.1   1
   0  -6   4 554782. 12790.5   1
  -6   0   4 455203. 11918.2   2
  -6   6   4 526277. 12499.0   1
   0   6  -4 453284. 11786.3   1
   6   0  -5 3337.28 979.381   1
  -6   0  -5 4258.48 856.053   1
   0  -6   5 6265.50 1392.54   1
   0   6   5 5861.66 1210.20   1
  -6   0   5 4362.58 1106.15   1
   6   0   5 4496.95 913.113   1
  -6   6   5 5215.65 1199.26   2
  -6   6   5 3789.49 1053.12   1
   6  -6   5 5000.63 1187.28   1
  -6   0   5 4343.80 1183.09   2
  -6   6  -5 6196.35 1300.43   1
   6  -6  -5 4469.30 1154.76   1
  -6   0  -5 6150.56 1358.90   2
   0  -6  -5 5040.09 1117.75   1
   0   6  -5 3210.32 906.661   1
  -6   6   6 13909.1 2053.09   1
  -6   6  -6 18573.4 2270.29   1
   0   6  -6 15175.9 2196.36   1
   6  -6  -6 13960.1 2109.05   1
  -6   0   6 15479.8 2213.78   2
   6  -6   6 16347.3 2236.53   1
   6   0  -6 16365.6 2111.47   1
   0  -6   6 15568.4 2234.32   1
  -6   6   6 14690.2 2014.91   2
   0  -6  -6 13647.9 1771.97   1
  -6   0  -6 17946.5 2169.37   2
  -6   0   6 14857.0 2143.42   1
   0   6   6 17630.7 2039.09   1
   6  -6   7 8096.60 1631.59   1
  -6   6  -7 8840.17 1639.43   1
   0  -6   7 7133.79 1521.91   1
   6  -6  -7 9326.71 1714.45   1
  -6   0   7 7735.06 1463.25   1
   6   0  -7 9292.23 1618.34   1
   0   6  -7 5009.36 1214.45   1
  -6   6   7 7332.90 1488.64   1
  -6   6   7 7954.25 1468.68   2
  -6   0  -7 7460.43 1511.33   2
  -6   0   7 6376.63 1564.59   2
  -6   0   8 778145. 16413.4   2
   0   6  -8 731152. 15530.7   1
   6   0  -8 753831. 15472.3   1
   0  -6   8 753894. 15974.4   1
   0   6  -9 5405.91 1439.00   1
  -6   0   9 4202.46 1087.61   2
  -6   6  -9 5798.89 1446.13   1
  -6   0  -9 5932.27 1469.50   2
  -6   6   9 7223.96 1517.28   1
   6   0  -9 6532.20 1337.27   1
   6  -6  -9 6899.92 1555.31   1
  -6   0   9 6001.57 1409.90   1
   0  -6   9 4306.74 1195.94   1
   6  -6   9 6482.81 1438.74   1
   6  -6 -10 260.595 190.745   1
  -6   6 -10 1755.66 811.574   1
  -6   0  10 1212.16 560.812   1
  -6   0 -10 903.640 410.025   2
  -6   6  10 695.194 559.951   1
   0   6 -10 1150.04 593.610   1
   0  -6  10 3289.38 889.382   1
   6   0 -10 1072.10 653.530   1
  -6   0  10 1166.96 743.158   2
   6  -6  10 1563.35 813.704   1
  -6   6  11 1081.68 556.101   1
   0   6 -11 1395.07 651.884   1
   6  -6 -11 2381.76 1079.09   1
   6  -6  11 1761.75 728.436   1
  -6   0  11 1094.44 530.480   1
  -6   6 -11 1524.55 773.658   1
   0  -6  11 1218.92 621.914   1
   6   0 -11 460.646 319.246   1
  -6   0  11 671.087 496.401   2
   6  -6 -12 535183. 14710.1   1
   0  -6  12 544730. 14479.4   1
  -6   6  12 669496. 16085.0   1
   6  -6  12 572496. 14693.0   1
  -6   0  12 528135. 14212.4   1
  -6   0  12 552035. 15223.5   2
   6   0 -12 654517. 15496.2   1
   0  -6  12 504477. 15023.4   2
   0   6 -12 587434. 14848.2   1
   0  -6  13-752.050 690.215   2
   6  -6 -13 157.337 142.751   1
  -6   0  13 161.213 234.316   1
   6   0 -13 42.3285 369.568   1
   0   6 -13-1110.07 867.833   1
   0  -6  13 2.25901 411.028   1
  -6   0  13 26.7968 406.558   2
  -6   6  13 164.431 317.799   1
   0  -6  14 1282.56 1007.49   2
  -6   0  14 772.634 508.905   2
  -6   6  14 468.007 124.257   1
   6   0 -14 989.549 590.476   1
   6  -6 -14 1028.01 814.787   1
  -6   0  14 416.567 391.026   1
   0   6 -14 572.500 542.388   1
   0  -6  14 744.653 501.971   1
   0  -6  15 223.414 375.671   2
  -6   0  15 998.042 625.788   2
   0  -6  15 694.837 303.698   1
   6   0 -15-413.744 586.757   1
  -6   0  15 431.915 301.114   1
   0   6 -15-867.372 719.720   1
   0   6 -16 169154. 8712.45   1
  -6   0  16 210928. 9508.09   1
  -6   0  16 167421. 9166.78   2
   6   0 -16 213205. 9543.84   1
   0  -6  16 188603. 9144.08   1
   0  -6  16 155515. 8860.36   2
   0  -6  17 632.252 713.887   2
   0   6 -17 1297.47 624.411   1
  -6   0  17 895.897 650.297   1
   6   0 -17 513.227 477.419   1
   0  -6  17 639.063 638.783   1
  -6   0  18 619.104 605.774   1
   6   0 -18 161.201 186.710   1
   0   6 -18 37.3564 131.302   1
   0  -6  18 415.478 476.817   1
   0  -6  18 1241.52 884.433   2
  -7   3  18 132516. 8209.05   1
  -7   4  17 35939.7 4212.83   1
  -7   3  17 36212.6 4164.62   1
   7  -3 -17 37260.2 4322.80   1
  -7   4  16 494.072 498.919   1
  -7   3  16 53.0696 334.003   1
   7  -4 -16-309.483 660.546   1
  -3   7 -16-105.605 386.893   1
   7  -3 -16-23.7851 278.322   1
   3  -7  16 577.037 659.696   1
  -3   7 -15 85175.0 6023.38   1
  -4   7 -15 80780.8 6009.97   1
  -7   4  15 82195.0 6201.08   1
  -7   3  15 77177.9 5882.32   1
   3  -7  15 71711.9 5591.61   1
   4  -7  15 79442.5 5936.28   1
   7  -4 -15 65508.8 5490.22   1
   7  -3 -15 61390.0 5269.43   1
  -7   4  14 57768.3 4941.79   1
   7  -3 -14 64669.3 5153.87   1
  -7   3  14 52021.7 4732.44   1
   3  -7  14 55900.4 4863.16   1
   4  -7  14 51797.1 4692.68   1
  -4   7 -14 48401.2 4540.56   1
   7  -4 -14 39599.6 4198.87   1
  -3   7 -14 61268.5 4988.36   1
   7  -4 -13 154542. 8000.25   1
  -7   4  13 133481. 7459.67   1
   3  -7  13 134257. 7434.74   1
   4  -7  13 131043. 7273.60   1
  -7   3  13 134960. 7407.44   1
  -3   7 -13 141173. 7683.42   1
  -4   7 -13 133098. 7415.95   1
   7  -3 -12 17746.3 2579.89   1
  -7   4  12 12586.6 2238.21   1
  -7   3  12 12439.3 2161.55   1
   7  -4 -12 12516.8 2262.20   1
  -4   7 -12 14904.0 2383.91   1
   3  -7  12 10906.1 2142.12   1
   4  -7  12 13724.2 2344.83   1
  -7   3  12 16754.7 2526.55   2
  -3   7 -12 12874.7 2152.61   1
  -3   7 -11 35270.3 3656.78   1
   7  -4 -11 35762.8 3721.03   1
   7  -3 -11 38083.7 3842.36   1
  -4   7 -11 37852.5 3772.38   1
  -7   3  11 33545.8 3602.89   1
   3  -7  11 32992.0 3564.02   1
  -7   4  11 31624.1 3402.48   2
   4  -7  11 43819.2 4034.60   1
  -7   4  11 38287.4 3756.08   1
  -7   3  11 36651.1 3655.01   2
  -7   4  10 307928. 10647.1   1
  -7   3  10 364305. 11461.3   1
   7  -3 -10 421795. 12374.9   1
  -3   7 -10 333362. 10971.8   1
   3  -7  10 381191. 11875.7   1
   4  -7  10 380126. 11721.5   1
   7  -4 -10 348241. 11345.5   1
  -7   4  10 425670. 11983.0   2
  -7   3  10 375796. 11515.3   2
  -4   7 -10 365389. 11522.7   1
  -4   7  -9 7735.95 1627.60   1
  -3   7  -9 5187.31 1326.14   1
   4  -7   9 7667.16 1711.52   1
  -7   3   9 7187.39 1604.52   1
  -7   4   9 5536.53 1433.20   2
   7  -4  -9 6405.64 1526.88   1
   7  -3  -9 8654.58 1762.66   1
   3  -7   9 6886.79 1624.17   1
  -7   3   9 6139.02 1526.29   2
  -7   4   9 6889.30 1529.83   1
  -7   3   8 309452. 10187.0   1
   7  -4  -8 284543. 9981.10   1
   7  -3  -8 357608. 10930.5   1
  -7   3   8 339696. 10693.2   2
  -3   7  -8 305202. 10204.0   1
  -4   7  -8 335476. 10682.3   1
  -7   4   8 333931. 10405.3   2
   3  -7   8 269873. 9573.87   1
   4  -7   8 306090. 10196.0   1
  -7   4   8 294601. 9980.40   1
  -4  -3  -7 223178. 7453.64   2
  -3   7  -7 229378. 8626.53   1
  -7   4   7 242959. 8902.97   1
   7  -3  -7 218280. 8442.11   1
  -4   7  -7 217960. 8334.60   1
   7  -4  -7 212477. 8475.57   1
   3  -7   7 236622. 8876.79   1
   4  -7   7 230042. 8556.60   1
  -7   3   7 230272. 8660.11   1
  -7   3   7 213328. 8376.78   2
  -7   4   7 224623. 8431.13   2
   7  -4  -6 999999. 18283.3   1
   4  -7   5 539410. 13015.0   1
  -7   4   5 572657. 13378.4   1
  -3   7  -5 582717. 13352.5   1
   3  -7   5 564568. 13171.8   1
  -4   7  -5 657999. 14295.1   1
  -7   3   5 629761. 13975.3   1
   7  -4  -5 658199. 14446.8   1
  -7   3   4 11966.2 1908.21   2
   3  -7   4 12218.5 1818.08   1
  -4  -3  -4 19134.2 2143.21   2
  -7   4   4 12433.0 1862.85   1
  -3   7  -4 15198.9 2124.34   1
  -3  -4  -4 15935.4 1750.96   1
   7  -4  -4 11992.2 1737.34   1
   7  -3  -4 12053.2 1820.01   1
   4   3   4 13214.0 1594.88   1
   3   4   4 11699.5 1588.26   1
   4  -7   4 13250.3 1996.09   1
  -7   4   4 11059.3 1809.44   2
  -4  -3  -4 15283.5 1665.31   1
  -4   7  -4 13416.6 2031.00   1
  -7   3   4 10770.2 1795.23   1
  -3  -4  -4 10231.7 1552.96   2
   7  -4  -3 368063. 10278.9   1
  -7   3   3 354296. 10180.6   1
   7  -3  -3 346162. 10074.1   1
  -4  -3  -3 262581. 8363.42   2
  -3   7  -3 340541. 10281.3   1
  -4  -3  -3 382726. 8959.85   1
   4  -7   3 350098. 10240.6   1
   4   3   3 350748. 8723.06   1
  -7   3   3 381963. 10513.2   2
  -3  -4  -3 320267. 8970.72   2
  -7   4   3 352191. 10036.7   2
  -4   7  -3 320100. 9761.73   1
   3  -7   3 286864. 9150.80   1
  -7   4   3 374090. 10418.8   1
  -3  -4  -2 319996. 8915.10   2
   3   4   2 311888. 8493.89   1
  -7   3   2 280014. 9127.51   2
  -7   3   2 286045. 8964.41   1
   7  -4  -2 257211. 8591.81   1
  -7   4   2 292525. 9178.98   1
   7  -3  -2 268124. 8869.78   1
  -4  -3  -2 247850. 8218.08   2
  -4  -3  -2 256101. 7705.98   1
  -3  -4  -2 215805. 7046.47   1
   4   3   2 286489. 8175.61   1
  -4   7  -2 217887. 7851.50   1
  -7   4   2 259916. 8645.35   2
   3  -7   2 252264. 8541.06   1
   4  -7   2 251939. 8730.08   1
  -3   7  -2 285027. 9189.67   1
  -3  -4  -1 177695. 6483.09   1
   7  -3  -1 161865. 6813.04   1
  -4  -3  -1 162507. 6320.48   1
   4  -7   1 156373. 6771.04   1
  -7   3   1 141020. 6380.17   2
   3  -7   1 149677. 6538.19   1
  -7   3   1 148532. 6392.70   1
  -4  -3  -1 180966. 7024.25   2
  -4   7  -1 164080. 6863.00   1
   4   3   1 149307. 6018.54   1
  -7   4   1 162998. 6738.61   1
  -7   4   1 144762. 6399.29   2
   3   4   1 145891. 5985.72   1
  -3   7  -1 158575. 6746.91   1
   7  -4  -1 164211. 6805.99   1
  -3  -4  -1 188833. 7000.60   2
  -4  -3   0 18915.5 2152.14   1
  -7   3   0 23663.6 2537.06   1
   7  -3   0 25655.5 2647.61   1
   7  -4   0 20159.0 2392.50   1
  -7   4   0 24452.5 2546.39   1
  -4   7   0 27289.3 2726.24   1
  -3  -4   0 26003.8 2589.08   2
  -3  -4   0 23816.4 2373.26   1
  -7   3   0 20618.0 2386.35   2
   4  -7   0 27825.5 2694.45   1
   3  -7   0 18239.7 2268.17   1
  -4  -3   0 20142.3 2357.84   2
   4   3   0 22411.3 2346.81   1
   3   4   0 21021.7 2375.13   1
  -3   7   0 24287.1 2520.09   1
  -7   4   0 20679.0 2444.22   2
  -4   7   1 98479.1 5223.56   1
  -7   4  -1 103010. 5502.89   2
  -7   4  -1 95724.1 5122.58   1
  -4  -3   1 105296. 5224.50   1
  -7   3  -1 95606.7 5002.58   1
   7  -4   1 90464.2 5024.66   1
  -3  -4   1 95785.4 4945.11   1
   4   3  -1 97949.0 5054.79   1
  -7   3  -1 103120. 5389.14   2
   7  -3   1 92874.5 4981.02   1
  -3   7   1 103881. 5371.96   1
   3   4  -1 86984.0 4804.05   1
  -4  -3   1 99566.7 5194.94   2
   4  -7  -1 109527. 5568.86   1
  -3  -4   1 109713. 5461.12   2
  -3  -4   2 694256. 14007.5   2
  -3   7   2 584964. 12823.8   1
  -7   3  -2 562146. 12004.6   1
  -4  -3   2 591167. 12703.7   1
  -4   7   2 578399. 12790.2   1
  -3  -4   2 583075. 12627.6   1
  -7   4  -2 529507. 12552.0   2
   3  -7  -2 534301. 12250.1   1
   4  -7  -2 460543. 11494.7   1
   4   3  -3 93705.4 5076.42   1
  -7   3  -3 116293. 5488.24   1
   3   4  -3 92607.6 5067.09   1
   7  -3   3 123794. 5790.32   1
  -4  -3   3 88808.4 4996.04   1
  -3  -4   3 101623. 5347.10   1
  -7   3  -3 98181.2 5437.86   2
   4  -7  -3 133860. 6056.49   1
  -4   7   3 104433. 5460.42   1
   3  -7  -3 87214.6 4969.86   1
  -7   4  -3 103969. 5196.73   1
  -7   4  -3 109443. 5752.67   2
  -3   7   3 86599.9 4939.75   1
   7  -4   3 105894. 5362.23   1
  -4  -3   3 98222.3 5429.47   2
  -3  -4   3 101643. 5472.73   2
  -3  -4   4 445498. 11777.9   2
  -3   7   4 481157. 11729.8   1
  -3  -4   4 517362. 12203.4   1
  -7   4  -4 565870. 13357.2   2
  -4  -3   4 530935. 12504.0   1
  -7   3  -4 478413. 12053.5   2
  -4   7   4 406466. 10777.9   1
   7  -3   4 516530. 11630.6   1
   3   4  -4 510393. 12143.3   1
  -4  -3   4 579962. 13320.8   2
   4   3  -4 477040. 11671.2   1
  -3   7   5 134877. 6286.56   1
  -3  -4   5 239268. 8719.98   2
  -4  -3   5 210710. 8154.15   2
   3  -7  -5 235472. 8064.38   1
  -4  -3   5 199983. 7844.81   1
  -7   3  -5 181929. 7578.40   2
  -7   4  -5 217424. 8336.87   2
  -3  -4   5 174775. 7311.60   1
  -7   3  -5 185119. 6809.04   1
   3   4  -5 168327. 7055.02   1
   7  -3   5 193304. 7107.66   1
  -4   7   5 227427. 8077.36   1
   4   3  -5 187665. 7447.99   1
   4  -7  -5 203256. 7697.57   1
  -7   4  -5 210683. 7376.83   1
   7  -4   5 239437. 8128.91   1
  -4  -3   7 321158. 10389.1   2
  -3  -4   7 332683. 10611.9   2
   4   3  -7 253708. 8958.63   1
  -7   3  -7 233129. 8824.10   2
  -4   7   7 217401. 7995.33   1
  -7   4  -7 308850. 10262.1   2
  -3   7   7 248273. 8562.69   1
  -4  -3   7 317003. 10222.7   1
   7  -4   7 281691. 8769.56   1
  -3  -4   7 285002. 9700.66   1
  -7   3  -7 323297. 8672.23   1
   3   4  -7 305351. 9852.80   1
  -7   4  -7 323381. 9310.84   1
   7  -3   7 286948. 8484.02   1
   4  -7  -7 297310. 9491.08   1
   3  -7  -8 4170.35 1147.90   1
   7  -4   8 3867.60 1027.48   1
  -4   7   8 4020.92 1134.32   1
   4   3  -8 2754.37 1010.21   1
   3   4  -8 4535.81 1273.68   1
  -7   4  -8 2884.07 866.963   1
  -4  -3   8 4487.21 1304.65   2
  -4  -3   8 2525.41 870.454   1
   4  -7  -8 3591.61 996.475   1
  -3  -4   8 4269.32 1346.43   1
  -3  -4   8 3591.27 1163.53   2
  -7   3  -8 3327.89 1108.07   2
  -3   7   8 3643.90 1070.98   1
  -7   3  -9 293917. 10218.9   2
  -4  -3   9 299796. 10568.0   2
  -7   4  -9 305029. 10354.1   2
  -4  -3   9 296753. 10303.0   1
  -3  -4   9 279580. 9961.61   1
  -3  -4   9 260657. 9770.05   2
   4   3  -9 269434. 9520.68   1
   3   4  -9 316670. 10483.1   1
   3  -7  -9 233390. 8366.78   1
  -4   7   9 350435. 10419.0   1
   4  -7  -9 250544. 9013.57   1
  -3   7   9 273508. 9095.74   1
  -4  -3  10 83822.8 5639.76   2
  -7   3 -10 87762.4 5616.37   2
   3   4 -10 96011.0 5791.09   1
  -3  -4  10 83806.0 5557.58   1
  -3  -4  10 114518. 6629.38   2
  -4  -3  10 100538. 6114.42   1
   4   3 -10 102253. 6032.34   1
  -4   7  10 95784.9 5596.62   1
   4  -7 -10 116057. 6182.81   1
  -4  -3  11 146964. 7618.08   2
  -3  -4  11 160390. 7945.88   2
   4   3 -11 158151. 7572.68   1
   3   4 -11 153338. 7506.13   1
  -4  -3  11 153226. 7679.92   1
  -3  -4  12 13145.1 2333.92   2
  -3  -4  12 16467.6 2501.20   1
   4   3 -12 19523.8 2672.27   1
   3   4 -12 17192.1 2584.57   1
  -4  -3  12 15520.1 2417.51   1
  -4  -3  12 16473.9 2623.93   2
   3   4 -13 10385.8 1976.91   1
  -4  -3  13 7770.36 1738.14   1
  -3  -4  13 11756.5 2106.18   1
   4   3 -13 11027.7 2083.44   1
  -3  -4  13 9288.26 2047.23   2
  -4  -3  13 11199.9 2175.66   2
  -3  -4  14 181138. 8951.68   2
  -4  -3  14 173965. 8528.57   1
   4   3 -14 166267. 8132.16   1
   3   4 -14 183513. 8739.47   1
  -4  -3  14 198800. 9339.02   2
  -4  -3  15 7041.46 1740.63   2
  -3  -4  15 6770.50 1830.71   2
   3   4 -15 6527.88 1696.81   1
  -4  -3  15 7414.61 1837.68   1
  -3  -4  15 6809.35 1835.18   1
   4   3 -15 5930.19 1561.71   1
  -3  -4  16 59973.5 5339.95   2
  -4  -3  16 68477.7 5520.30   1
  -3  -4  16 49790.7 4778.01   1
   4   3 -16 59963.3 5102.64   1
   3   4 -16 73411.7 5657.80   1
  -4  -3  16 68361.0 5753.24   2
   3   4 -17 69034.1 5553.52   1
  -3  -4  17 56869.5 5174.41   1
  -4  -3  17 60657.1 5258.47   1
  -3  -4  17 57169.7 5248.25   2
  -4  -3  17 57470.4 5382.04   2
  -4  -3  18 126163. 7636.53   1
  -3  -4  18 146247. 8356.91   1
   4   3 -18 129377. 7822.42   1
   3   4 -18 130748. 7751.62   1
  -4  -3  18 117041. 7772.42   2
  -7   2  18 3142.19 1140.83   1
   7  -2 -18 4856.70 1561.72   1
  -2   7 -17 1130.66 727.855   1
  -7   2  17 1290.00 638.837   1
   2  -7  17 1350.44 730.198   1
   7  -2 -17 1011.37 774.454   1
  -7   5  16 277826. 11460.9   1
  -7   2  16 196217. 9384.95   1
   7  -2 -16 284128. 11445.3   1
   2  -7  16 216210. 9785.05   1
  -2   7 -16 224991. 10098.9   1
  -2   7 -15 1648.03 828.024   1
  -7   5  15 866.610 702.576   1
  -7   2  15 3079.43 1191.10   1
   7  -5 -15 2018.95 959.001   1
   2  -7  15 1081.88 648.590   1
   7  -2 -15 3481.95 1034.34   1
  -7   5  14 189.719 529.180   1
  -7   2  14 246.174 527.567   1
   7  -5 -14 711.206 830.188   1
  -2   7 -14 306.028 550.948   1
  -5   7 -14 837.576 561.471   1
   7  -2 -14 55.0994 264.598   1
   2  -7  14-258.076 512.486   1
   5  -7  14 830.320 666.982   1
  -5   7 -13 160.843 190.583   1
  -2   7 -13 300.463 185.216   1
  -7   2  13 479.148 457.799   2
  -7   5  13 79.6587 120.900   1
  -7   2  13-243.124 260.204   1
   7  -5 -13 1075.98 680.512   1
   5  -7  13 385.255 525.458   1
   2  -7  13 31.0435 391.727   1
   7  -2 -13 326.164 526.330   1
  -2   7 -12 235974. 9651.06   1
   7  -5 -12 254835. 10008.6   1
   2  -7  12 220805. 9377.77   1
  -7   2  12 224460. 9633.46   2
  -5   7 -12 238752. 9782.80   1
  -7   2  12 222358. 9243.11   1
   5  -7  12 219692. 9317.85   1
  -7   5  12 233212. 9730.96   1
  -7   2  11 118.296 206.790   2
  -7   2  11 1784.60 763.871   1
  -5   7 -11 1231.85 675.605   1
  -7   5  11 1229.49 631.392   1
   7  -5 -11 2023.64 932.384   1
   7  -2 -11 1520.99 781.553   1
   2  -7  11 2368.84 928.292   1
   5  -7  11 1508.14 776.435   1
  -2   7 -11 4260.06 1296.07   1
  -7   5  10 11874.3 2124.27   1
  -7   2  10 12319.7 2183.89   2
   7  -5 -10 15787.5 2290.58   1
   7  -2 -10 10555.0 1978.91   1
  -7   2  10 11651.5 2081.56   1
  -2   7 -10 11457.3 2009.95   1
  -5   7 -10 10889.4 2028.98   1
   5  -7  10 13452.6 2196.44   1
   2  -7  10 11955.8 2128.84   1
  -7   2   9 4311.25 1350.23   2
  -2   7  -9 7134.00 1619.65   1
  -7   5   9 4925.51 1282.80   1
   7  -2  -9 4604.61 1242.18   1
   7  -5  -9 5283.20 1361.33   1
  -5   7  -9 5333.31 1318.94   1
  -7   2   9 5003.91 1197.56   1
   5  -7   9 4959.01 1257.07   1
   2  -7   9 5606.28 1384.86   1
  -7   5   9 5274.83 1341.06   2
   7  -5  -7 17646.1 2376.38   1
   5  -7   7 20220.5 2540.29   1
  -7   2   7 15907.0 2281.30   1
  -2   7  -7 18917.8 2464.50   1
   2  -7   7 17777.5 2285.09   1
   7  -2  -7 11763.3 1972.76   1
  -7   5   7 18306.6 2516.08   1
  -7   5   7 17547.8 2294.90   2
  -5  -2  -7 18545.1 2264.60   2
  -7   2   7 15260.1 2263.58   2
  -5   7  -7 19735.4 2495.91   1
  -5   7  -6 2380.69 866.922   1
  -2   7  -6 1525.48 757.062   1
  -7   2   6 1653.70 769.267   1
   7  -5  -6 1436.30 622.491   1
  -7   2   6 722.695 312.517   2
   2  -7   6 510.481 88.0964   1
   7  -2  -6 1823.27 822.317   1
   5  -7   6 1724.80 685.639   1
  -7   5   6 1041.12 710.657   1
  -7   5   6 1490.15 527.695   2
  -5  -2  -6 1425.05 745.318   2
   2  -7   5 11761.3 1860.30   1
  -7   5   5 14979.3 2178.66   1
   5  -7   5 10923.7 1789.49   1
  -7   5   5 10740.7 1871.57   2
  -7   2   5 11272.1 1872.22   1
   7  -2  -5 11949.3 1935.85   1
  -2   7  -5 12782.6 1976.52   1
  -7   2   5 10323.3 1755.60   2
  -5   7  -5 11458.3 1782.02   1
  -5  -2  -5 8991.48 1478.09   2
   7  -5  -5 12442.0 2009.58   1
   2   5   5 13301.6 1699.16   1
  -5   7  -4 779655. 15197.8   1
  -7   2   4 806837. 15588.0   1
  -7   2   4 829359. 15889.1   2
  -7   2   3 6835.08 1428.09   2
  -5   7  -3 6694.55 1413.27   1
  -5  -2  -3 8021.49 1345.28   1
  -7   2   3 4918.41 1208.16   1
   7  -5  -3 6836.44 1465.99   1
  -7   5   3 5452.32 1288.96   1
   5  -7   3 7662.32 1570.52   1
  -2   7  -3 6494.77 1348.04   1
   7  -2  -3 10125.6 1747.31   1
   2   5   3 6567.96 1195.56   1
  -2  -5  -3 6381.22 1179.99   1
  -7   5   3 6349.12 1427.75   2
   5   2   3 5999.41 1180.76   1
  -5  -2  -3 5300.59 1112.91   2
   2  -7   3 6406.54 1360.45   1
  -2  -5  -3 5929.64 1250.51   2
  -7   5   2 887.671 479.757   2
   5  -7   2 1292.34 756.585   1
  -7   5   2 364.092 126.980   1
   7  -5  -2 817.449 670.923   1
  -7   2   2 192.164 166.266   1
  -2  -5  -2 1051.23 430.133   2
  -5  -2  -2 1279.40 517.405   1
  -5   7  -2 547.620 528.054   1
   5   2   2 424.224 415.552   1
  -2   7  -2 427.309 260.030   1
   2   5   2 581.361 264.952   1
  -2  -5  -2 994.545 528.521   1
   2  -7   2 729.122 399.142   1
  -7   2   2 1369.12 703.984   2
  -5  -2  -2 663.757 488.671   2
  -2  -5  -1 2224.65 751.353   2
  -5  -2  -1 2227.95 732.829   2
  -7   5   1 1987.34 844.791   1
  -7   5   1 2351.95 1032.86   2
  -7   2   1 2320.94 769.546   1
   7  -5  -1 1455.21 687.013   1
   2  -7   1 1963.97 756.251   1
  -5   7  -1 980.157 532.256   1
  -5  -2  -1 1435.69 569.676   1
   7  -2  -1 1900.31 800.208   1
   2   5   1 1786.49 653.298   1
  -7   2   1 1159.15 552.911   2
  -2  -5  -1 893.228 426.774   1
   5  -7   1 1098.92 455.257   1
  -2   7  -1 1786.20 748.475   1
   5   2   1 1146.96 376.864   1
  -2   7   1 388.075 240.376   1
  -5  -2   1-707.071 707.278   2
   5   2  -1 221.758 79.9522   1
  -5   7   1 577.410 359.761   1
   7  -5   1-91.2295 64.8458   1
  -7   2  -1-175.511 236.515   1
  -7   5  -1 162.620 153.938   1
  -5  -2   1-92.0769 459.476   1
   7  -2   1 249.771 301.573   1
   2   5  -1-222.633 290.715   1
  -2  -5   1 255.839 46.6780   1
   5  -7  -1-677.537 602.337   1
  -7   5  -1 194.756 247.104   2
  -2  -5   1-95.6712 129.679   2
  -7   2  -1 178.953 173.181   2
   2  -7  -1 53.7410 256.259   1
  -7   5  -2 1545.70 732.157   1
  -2  -5   2 2825.77 950.096   2
  -7   5  -2 1780.38 791.413   2
  -2   7   2 2182.49 716.681   1
   5   2  -2 1310.07 585.844   1
  -7   2  -2 1731.97 606.787   1
   7  -2   2 1957.35 675.214   1
   5  -7  -2 1934.79 739.195   1
  -5  -2   2 1166.14 617.360   1
  -2  -5   2 1390.66 577.117   1
   7  -5   2 954.692 661.428   1
   2   5  -2 1027.16 465.282   1
   2  -7  -2 1883.65 769.131   1
  -5  -2   2 2442.67 807.957   2
  -5   7   2 1392.45 741.725   1
  -7   2  -2 2177.62 751.010   2
   2   5  -3 3315.28 963.196   1
   5   2  -3 2429.65 800.544   1
  -2  -5   3 3022.80 985.681   2
   5  -7  -3 2570.84 831.296   1
   7  -5   3 3237.13 1037.38   1
  -2   7   3 2383.79 730.745   1
  -5  -2   3 4336.93 983.474   2
   7  -2   3 3704.01 975.649   1
  -5  -2   3 3177.52 976.452   1
  -5   7   3 2035.28 788.300   1
  -2  -5   3 2334.17 735.700   1
   2  -7  -3 2596.31 706.324   1
  -7   5  -3 1893.39 813.844   2
  -7   5  -3 3712.26 1085.84   1
  -7   2  -3 3232.70 1027.60   2
  -7   2  -3 3994.85 987.920   1
   2   5  -4 947990. 16988.8   1
  -7   2  -5 28663.5 2956.62   2
   7  -5   5 23236.3 2657.37   1
  -5  -2   5 24785.4 2742.49   1
  -2  -5   5 29552.5 3096.32   2
  -2  -5   5 27663.1 2947.46   1
   5  -7  -5 18745.0 2422.83   1
  -7   5  -5 25286.1 2829.79   2
   5   2  -5 25332.5 2758.49   1
   2   5  -5 25923.3 2779.75   1
  -5  -2   5 26904.2 2913.89   2
  -5   7   5 29244.3 2905.67   1
  -7   5  -5 29872.3 2788.70   1
  -2   7   5 24974.4 2638.60   1
   7  -2   5 27790.9 2616.40   1
  -2  -5   6 31308.2 3278.10   2
   2  -7  -6 36993.4 3203.57   1
  -5  -2   6 31532.7 3162.74   1
  -7   2  -6 29222.1 3090.90   2
  -2  -5   6 37796.1 3483.60   1
  -7   2  -6 30663.3 2676.41   1
  -7   5  -6 32055.3 2995.48   1
   5   2  -6 27220.4 2919.70   1
  -7   5  -6 34014.7 3341.43   2
  -5   7   6 27299.6 2872.03   1
   7  -2   6 34517.8 2879.53   1
   7  -5   6 36207.4 3278.33   1
   5  -7  -6 38182.4 3428.64   1
   2   5  -6 34734.3 3313.31   1
  -2   7   6 30203.4 2936.84   1
  -5  -2   6 34867.7 3393.06   2
   5   2  -7 1196.44 416.145   1
  -5  -2   7 2200.19 879.312   2
   7  -5   7 1902.97 725.677   1
   5  -7  -7 1720.32 668.830   1
  -7   2  -7 1325.18 674.178   2
  -5   7   7 2467.60 890.158   1
  -7   5  -7 2297.97 783.956   1
   2   5  -7 1274.52 575.728   1
  -7   5  -7 3106.08 1128.98   2
  -5  -2   7 2843.10 847.958   1
  -2  -5   7 2051.55 803.045   1
  -2   7   7 2452.75 781.049   1
   2  -7  -7 1577.11 731.666   1
  -2  -5   7 1904.65 668.156   2
  -2  -5   8 797729. 17207.3   2
   5   2  -9 8596.64 1602.54   1
  -7   2  -9 8969.57 1873.84   2
   2   5  -9 8186.02 1564.17   1
  -5  -2   9 9595.63 1742.15   1
  -5   7   9 9037.53 1646.22   1
  -7   5  -9 7685.87 1546.14   1
  -2  -5   9 7819.29 1638.78   1
  -2  -5   9 8764.21 1823.69   2
  -5  -2   9 10044.8 1904.26   2
   5  -7  -9 11584.0 2066.58   1
   7  -5   9 7635.94 1560.49   1
  -2  -5  10 31658.4 3581.98   2
   2   5 -10 24911.3 2984.46   1
  -2  -5  10 24996.2 2971.81   1
  -5   7  10 33050.0 3407.70   1
  -5  -2  10 30391.7 3269.00   1
   5  -7 -10 19578.5 2697.96   1
  -7   2 -10 31934.4 3444.92   2
   5   2 -10 24494.7 2972.63   1
  -5  -2  10 29362.8 3472.17   2
  -2  -5  11 1399.51 713.445   2
   5   2 -11 913.761 558.402   1
   5  -7 -11 542.693 700.256   1
  -5   7  11 1090.55 733.573   1
   2   5 -11-119.363 163.071   1
  -5  -2  11 978.065 714.064   1
  -2  -5  11 192.514 450.796   1
  -5  -2  11 488.902 415.099   2
  -7   2 -11 375.038 339.237   2
  -2  -5  12 200586. 9121.67   2
  -5   7  12 238049. 9468.10   1
  -2  -5  12 199777. 8876.28   1
   5   2 -12 158022. 7883.73   1
   2   5 -12 194126. 8616.83   1
  -5  -2  12 196930. 8604.48   1
  -5  -2  12 218305. 9707.60   2
   5   2 -13 343.632 158.055   1
  -5  -2  13 521.712 255.639   2
  -5  -2  13 142.530 193.122   1
  -2  -5  13 389.997 475.859   1
  -2  -5  13 423.033 303.214   2
   2   5 -13 674.070 611.262   1
  -5  -2  14 1106.58 933.300   2
  -2  -5  14 1343.07 718.516   2
   2   5 -14 1678.19 758.045   1
  -5  -2  14 1744.35 720.951   1
  -2  -5  14 1082.49 571.310   1
   5   2 -14 2268.08 914.415   1
   2   5 -15 1377.11 628.347   1
  -5  -2  15 1867.66 1025.06   2
  -5  -2  15 2306.96 1086.21   1
  -2  -5  15 1525.49 987.799   2
  -2  -5  15 1824.53 735.030   1
   5   2 -15 2684.96 972.154   1
   2   5 -16 257910. 10648.5   1
  -5  -2  16 269402. 10871.8   1
  -5  -2  16 283090. 11974.6   2
  -5  -2  17 4287.26 1532.98   2
  -2  -5  17 3746.71 1296.39   2
  -5  -2  17 6405.83 1685.79   1
  -2  -5  17 5194.92 1610.21   1
   2   5 -17 4224.60 1374.20   1
   5   2 -17 4913.31 1458.56   1
   2   5 -18-298.703 490.710   1
  -2  -5  18-117.751 465.787   1
  -5  -2  18 238.792 126.047   1
   5   2 -18 361.158 585.236   1
  -5  -2  18-151.506 397.327   2
  -2  -5  18-456.334 533.583   2
  -1   7 -17 8945.76 2081.38   1
   1  -7  17 6904.76 1899.64   2
  -7   1  17 8268.47 1973.51   1
   1  -7  17 8080.93 1940.30   1
   7  -1 -17 7780.03 1910.64   1
   1  -7  16 40725.4 4315.11   1
   7  -1 -16 35889.0 4105.14   1
  -1   7 -16 33189.2 3878.23   1
  -7   1  15 23411.0 3502.45   2
   1  -7  15 24495.5 3392.61   2
  -7   1  15 21226.5 3035.64   1
   7  -1 -15 23094.4 3195.60   1
   1  -7  15 19598.0 2867.20   1
  -7   6  15 24747.7 3318.54   1
  -1   7 -15 26863.1 3408.95   1
  -7   1  14 127760. 7375.44   1
   1  -7  14 98192.1 6500.65   1
   7  -6 -14 96421.2 6627.24   1
  -7   6  14 115441. 7186.35   1
  -7   1  14 120649. 7526.92   2
  -1   7 -14 114994. 6898.41   1
   7  -6 -13 64851.4 5333.55   1
  -7   6  13 36125.5 4023.13   1
  -7   1  13 54921.0 4741.53   1
  -7   1  13 40132.2 4530.40   2
   7  -1 -13 62568.9 5039.77   1
   1  -7  13 51297.3 4586.62   1
   6  -7  13 50887.6 4555.16   1
  -1   7 -13 51164.6 4580.66   1
   7  -6 -12 16378.7 2644.19   1
  -7   1  12 19551.4 2735.26   1
  -7   6  12 19949.4 2829.66   1
   7  -1 -12 18101.8 2586.01   1
  -6   7 -12 20365.5 2813.20   1
   1  -7  12 17026.6 2586.13   1
   6  -7  12 18013.2 2676.11   1
  -7   1  12 17813.9 2776.98   2
  -1   7 -12 18499.7 2618.42   1
  -1   7 -11 93170.3 5909.38   1
   7  -6 -11 101864. 6418.38   1
  -7   1  11 92032.2 5957.03   1
  -7   6  11 97100.9 6145.31   1
   7  -1 -11 97549.8 6109.50   1
   1  -7  11 100091. 6117.17   1
  -6   7 -11 88244.5 5814.30   1
   6  -7  11 96866.4 6149.83   1
  -7   1  11 86227.6 6048.33   2
  -1   7 -10 297090. 10422.5   1
  -7   6  10 315596. 10926.3   1
  -7   1  10 269149. 10046.3   1
   1  -7  10 276029. 10225.5   1
   7  -6 -10 286573. 10488.6   1
  -6   7 -10 312445. 10796.5   1
   6  -7  10 321514. 10938.2   1
   7  -1 -10 305341. 10341.7   1
  -7   1  10 315839. 11241.1   2
   7  -6  -9 198653. 8552.91   1
  -7   6   9 197043. 8374.53   1
  -7   1   9 183945. 8020.91   1
   7  -1  -9 167627. 7625.85   1
   1  -7   9 196708. 8415.88   1
  -7   1   9 197914. 8699.09   2
  -6   7  -9 201274. 8568.50   1
   6  -7   9 188103. 8161.45   1
  -1   7  -9 175204. 8042.45   1
  -6  -1  -9 180160. 7816.18   2
  -7   1   8 158.740 360.038   2
  -1   7  -8 738.704 497.978   1
   1  -7   8 955.149 749.814   1
  -7   6   8 392.277 471.378   1
   7  -6  -8-455.660 662.863   1
  -7   1   8 614.575 373.221   1
   6  -7   8 523.737 519.245   1
  -7   6   8 319.958 525.593   2
  -6   7  -8 155.630 386.838   1
  -6  -1  -8 86.1007 333.493   2
  -6   7  -7 404868. 11664.6   1
  -7   6   7 434934. 12229.4   1
  -1   7  -7 461174. 12557.0   1
  -7   1   7 459127. 12461.0   1
   7  -1  -7 462533. 12205.4   1
  -6  -1  -7 510062. 12497.0   2
   1  -7   7 475047. 12599.3   1
  -7   6   7 501863. 12507.8   2
   6  -7   7 435105. 12165.1   1
   7  -6  -7 415077. 11960.2   1
  -7   1   7 484314. 13039.4   2
  -6   7  -6 628804. 14182.0   1
  -7   6   6 517781. 13093.4   1
  -7   1   6 582114. 13778.4   1
  -1   7  -6 598543. 14270.8   1
  -6  -1  -6 567169. 13283.1   2
   7  -6  -6 542525. 13787.9   1
   7  -1  -6 547158. 13134.2   1
   1  -7   6 552833. 13555.7   1
   6  -7   6 522716. 13311.2   1
  -7   1   6 637522. 14599.4   2
   7  -6  -5 192008. 8010.90   1
  -6  -1  -5 245482. 8692.66   2
  -6   7  -5 253035. 8905.82   1
  -7   6   5 287858. 9446.08   2
   1   6   5 219056. 7639.62   1
  -7   1   5 225885. 8524.15   1
  -1   7  -5 227728. 8682.54   1
  -7   6   5 203987. 8214.25   1
   7  -1  -5 244210. 8716.17   1
  -1  -6  -5 215085. 7497.96   1
   1  -7   5 303687. 10018.7   1
   6  -7   5 264227. 9226.76   1
  -7   1   5 276126. 9509.77   2
  -6  -1  -4 221698. 7008.39   1
  -7   1   4 188433. 7791.31   2
  -7   6   4 232138. 8469.45   1
  -6  -1  -4 224462. 8172.90   2
   1   6   4 240668. 8001.27   1
  -6   7  -4 247451. 8739.41   1
  -7   1   4 207272. 8009.33   1
   6   1   4 246378. 7601.58   1
   7  -6  -4 252005. 8895.12   1
  -1   7  -4 199347. 8066.04   1
   7  -1  -4 214220. 8077.17   1
  -1  -6  -4 189142. 7112.93   1
   1  -7   4 215510. 8317.64   1
  -7   6   4 210927. 8106.24   2
   6  -7   4 243907. 8792.40   1
  -7   1   3 1022.30 430.478   2
  -7   6   3 2046.29 934.266   1
  -6  -1  -3 842.447 408.923   2
   6   1   3 1081.92 408.090   1
   7  -1  -3 1994.28 805.903   1
  -1   7  -3 849.248 699.274   1
  -7   6   3 1125.06 401.154   2
   6  -7   3 1413.49 684.230   1
   7  -6  -3 2280.08 955.276   1
  -6  -1  -3 1105.14 474.630   1
  -7   1   3 1091.10 578.074   1
  -6   7  -3 1229.44 545.492   1
   1   6   3 1038.10 482.123   1
  -1  -6  -3 1211.76 690.267   1
   1  -7   3 714.902 427.370   1
  -1  -6  -3 1430.87 586.954   2
   7  -6  -2 725965. 14851.0   1
   6  -7   2 764945. 15180.4   1
  -7   6   2 780261. 15372.3   1
  -7   6   1 22481.3 2537.17   2
   7  -6  -1 19850.1 2498.33   1
  -1  -6  -1 18687.5 2268.26   2
   1   6   1 19098.6 2326.60   1
  -6  -1  -1 20803.7 2267.03   1
   7  -1  -1 20243.0 2492.18   1
   6   1   1 17134.5 2126.48   1
  -1   7  -1 21697.0 2593.11   1
  -1  -6  -1 15465.2 2127.25   1
  -6   7  -1 17716.9 2262.66   1
  -7   6   1 18882.3 2352.77   1
   1  -7   1 21403.8 2479.94   1
  -7   1   1 18274.4 2259.46   2
  -7   1   1 17185.0 2159.40   1
   6  -7   1 16503.0 2254.88   1
  -6  -1  -1 17468.6 2290.60   2
  -6  -1   0 72264.8 4550.96   2
  -7   1   0 54029.9 3868.60   1
  -6  -1   0 56117.6 3786.43   1
   7  -1   0 60824.8 4171.90   1
   7  -6   0 57625.2 4223.73   1
   6   1   0 53839.4 3846.42   1
  -1   7   0 56709.4 4098.28   1
  -1  -6   0 45340.0 3606.27   1
   1  -7   0 59911.2 4218.49   1
   1   6   0 63997.4 4379.62   1
  -1  -6   0 64290.7 4249.90   2
  -6   7   0 50365.3 3789.25   1
  -7   6   0 46797.0 3895.47   2
  -7   1   0 58505.6 4208.12   2
  -7   6   0 56395.0 4088.80   1
   6  -7   0 59291.3 4248.77   1
  -1  -6   1 454696. 11497.8   2
  -6   7   1 495293. 11985.5   1
   6  -7  -1 566181. 13022.8   1
  -7   1  -1 549828. 12283.7   1
  -7   6  -1 529032. 12472.3   1
   7  -1   1 446868. 11127.5   1
  -6  -1   1 465606. 11432.1   1
  -1   7   1 409198. 11158.2   1
  -1  -6   1 493754. 12091.9   1
   1  -7  -1 510941. 12392.0   1
   1   6  -1 437071. 11579.2   1
  -7   6  -1 566565. 13515.0   2
  -7   1  -1 599866. 13435.7   2
  -6  -1   1 527012. 12665.4   2
   7  -6   1 508452. 12555.5   1
  -6   7   2 226315. 8238.86   1
   6  -7  -2 283207. 9509.88   1
  -7   6  -2 254382. 8527.50   1
  -1  -6   2 291314. 9375.94   2
   1  -7  -2 295582. 9072.62   2
  -6   7   2 279293. 8939.01   2
  -7   1  -2 262146. 8423.10   1
   7  -1   2 279053. 8668.00   1
  -6  -1   2 257828. 8731.90   1
   6   1  -2 232590. 8232.69   1
  -1  -6   2 214675. 7952.11   1
  -1   7   2 273328. 8989.81   1
   1   6  -2 244864. 8659.57   1
  -7   6  -2 253885. 9152.17   2
   1  -7  -2 312664. 9488.88   1
   7  -6   2 252234. 8855.90   1
  -7   1  -2 246303. 8717.74   2
  -6  -1   2 236083. 8667.53   2
  -7   6  -3 524617. 13200.8   2
  -6   7   3 538095. 12670.9   1
   6  -7  -3 661796. 14541.9   1
   1   6  -3 480499. 12246.7   1
  -7   1  -3 500903. 12473.4   2
  -6  -1   3 507986. 12963.4   2
   7  -1   3 403778. 10745.8   1
  -6   7   3 543393. 12440.2   2
   6   1  -3 548267. 12713.8   1
  -7   6  -3 489422. 11825.4   1
  -1  -6   3 705226. 14742.3   1
  -1   7   3 529480. 12406.1   1
   1  -7  -3 532747. 12256.4   1
  -6  -1   3 524460. 12461.1   1
   7  -6   3 607518. 13510.4   1
  -1  -6   3 486814. 12450.8   2
   7  -1   4 17459.9 2082.53   1
  -6   7   4 15386.0 2175.82   1
  -6  -1   4 16256.2 2232.77   1
   1  -7  -4 8151.78 1480.37   1
  -7   1  -4 16390.4 2297.78   2
  -1  -6   4 17507.9 2402.55   2
  -1  -6   4 15422.8 2173.21   1
  -6   7   4 16297.4 2261.53   2
  -1   7   4 17820.4 2268.60   1
  -7   6  -4 17009.4 2182.37   1
   1   6  -4 15913.1 2247.17   1
  -7   6  -4 17106.9 2424.21   2
   6  -7  -4 22673.4 2720.56   1
  -6  -1   4 19232.8 2503.90   2
   6   1  -4 16831.8 2186.07   1
  -7   1  -4 15079.0 1985.01   1
   7  -6   4 14255.8 2079.39   1
  -1  -6   5 275997. 9936.91   2
   7  -1   5 238539. 7759.51   1
  -6  -1   5 209021. 8107.09   1
  -7   6  -5 220699. 8233.64   1
   6   1  -5 214811. 8191.99   1
  -1  -6   5 258147. 9004.06   1
  -1   7   5 212007. 7867.43   1
  -6   7   5 172127. 6910.52   2
  -6  -1   5 230997. 8783.19   2
   1  -7  -5 294755. 9133.30   1
   1   6  -5 209110. 8232.33   1
  -7   6  -5 249224. 9181.21   2
  -6   7   5 206693. 8145.20   1
  -7   1  -5 222783. 7234.57   1
   7  -6   5 243949. 8682.23   1
  -7   1  -5 246669. 8677.65   2
   6  -7  -5 170429. 7428.87   1
  -6  -1   6 828664. 17147.2   2
   6   1  -6 855680. 16584.3   1
  -6  -1   6 855939. 16724.5   1
   6  -7  -7 213758. 8633.33   1
  -7   6  -7 186586. 7740.74   1
  -6  -1   7 192384. 7991.66   1
  -1  -6   7 178725. 7813.58   1
   6   1  -7 176253. 7645.87   1
  -6   7   7 185263. 7904.36   1
  -6  -1   7 184535. 8164.80   2
  -1   7   7 214280. 7874.05   1
  -7   1  -7 167279. 7542.84   2
   7  -6   7 191533. 8042.35   1
  -1  -6   7 195540. 8740.05   2
   1   6  -7 165945. 7366.07   1
  -7   6  -8 189423. 7894.74   1
  -1  -6   8 183694. 8431.05   2
   1   6  -8 176464. 7874.82   1
  -6  -1   8 156610. 7350.21   1
  -1  -6   8 179600. 7859.05   1
   6   1  -8 170933. 7616.57   1
  -6   7   8 153430. 7323.15   1
   7  -6   8 184644. 7984.14   1
  -7   1  -8 195512. 8345.42   2
   6  -7  -8 181836. 8058.50   1
  -6  -1   8 171873. 7904.15   2
   6  -7  -9 80625.1 5356.00   1
  -6   7   9 104237. 6104.81   1
  -6  -1   9 96555.0 5718.39   1
  -1  -6   9 108458. 6150.58   1
   6   1  -9 86678.3 5465.97   1
   7  -6   9 101441. 5931.14   1
  -7   1  -9 104311. 6213.90   2
  -7   6  -9 84340.7 5377.42   1
  -1  -6   9 112395. 6796.34   2
  -6  -1   9 97962.9 6077.96   2
   1   6  -9 85648.3 5440.08   1
   6  -7 -10 264198. 10011.8   1
   1   6 -10 254741. 9577.92   1
  -6  -1  10 244946. 9508.22   1
  -7   1 -10 220563. 9218.78   2
   6   1 -10 253834. 9654.05   1
  -1  -6  10 269379. 9996.70   1
  -6   7  10 338805. 11287.5   1
   7  -6  10 250663. 9483.47   1
  -1  -6  10 321669. 11473.1   2
  -7   6 -10 235311. 9186.90   1
  -6  -1  10 232037. 9722.32   2
   6  -7 -11 32132.2 3524.37   1
  -1  -6  11 28628.4 3535.63   2
  -7   1 -11 27586.6 3516.84   2
  -6  -1  11 21241.4 2926.34   1
  -1  -6  11 28590.0 3284.02   1
   6   1 -11 27816.9 3255.28   1
  -6   7  11 25876.2 3197.38   1
   1   6 -11 28901.1 3313.28   1
  -6  -1  11 30911.5 3593.35   2
   6  -7 -12 31927.9 3564.43   1
  -1  -6  12 30480.8 3534.40   2
  -6   7  12 30723.8 3548.57   1
  -6  -1  12 30122.1 3439.56   1
  -1  -6  12 29396.3 3409.89   1
   6   1 -12 31033.6 3367.78   1
   1   6 -12 24642.5 3023.68   1
  -6  -1  12 35895.3 3952.14   2
  -1  -6  13 27541.4 3444.55   2
  -6   7  13 17350.1 2767.92   1
  -6  -1  13 26064.3 3300.12   1
  -1  -6  13 19950.7 2851.40   1
   6   1 -13 18916.5 2679.27   1
   1   6 -13 18848.6 2687.36   1
  -6  -1  13 21135.6 3100.64   2
  -6  -1  14 87871.6 6132.71   1
  -1  -6  14 120678. 7279.22   1
   6   1 -14 139538. 7481.73   1
  -1  -6  14 104133. 6850.82   2
  -6  -1  14 126293. 7724.56   2
   1   6 -14 117245. 6907.58   1
  -6  -1  15 59385.3 5069.54   1
  -1  -6  15 58793.0 5219.97   2
  -1  -6  15 77591.2 5713.76   1
   6   1 -15 57650.8 4848.17   1
   1   6 -15 65109.3 5265.87   1
  -6  -1  15 62412.8 5423.15   2
  -6  -1  16 1448.24 883.328   2
  -1  -6  16 1856.72 694.412   2
   1   6 -16 1624.38 852.145   1
  -6  -1  16 1153.89 859.502   1
  -1  -6  16 1310.42 838.313   1
   6   1 -16 1703.25 754.891   1
   1   6 -17 75724.0 5967.83   1
  -1  -6  17 55651.1 5292.18   2
  -6  -1  17 69643.6 5666.58   1
  -1  -6  17 81466.7 6187.34   1
  -6  -1  17 69332.6 6035.58   2
   0  -7   0 2817.64 892.929   1
   0  -7   0 3566.95 1145.88   2
   0   7   0 2239.56 754.776   1
  -7   0   0 2530.85 905.771   2
   7  -7   0 2088.24 880.422   1
  -7   7   0 1168.56 308.131   1
  -7   0   0 2191.07 780.228   1
   7   0   0 2340.42 827.532   1
  -7   7   0 2377.85 968.163   2
   0   7  -1 878.872 533.450   1
   0  -7  -1 885.267 596.402   2
  -7   7  -1 182.138 130.624   1
   0   7   1 794.083 595.166   1
   0  -7   1 430.707 521.791   2
   7  -7   1 1135.59 515.902   1
   7  -7  -1 258.074 266.579   1
  -7   0  -1 1192.18 561.502   2
  -7   7   1 2306.89 979.832   2
  -7   0  -1 1296.03 659.113   1
  -7   7  -1 1644.23 810.393   2
  -7   0   1 678.484 398.242   1
  -7   7   1 955.379 566.198   1
   7   0   1 1413.59 689.426   1
   0  -7  -1 943.024 532.200   1
   7   0  -1 900.335 567.893   1
   0  -7   1 633.907 549.365   1
  -7   0   1 345.754 155.000   2
   0   7   2 321206. 9975.80   1
  -7   0  -2 382608. 10321.5   1
  -7   7   2 349203. 10539.1   1
   0   7  -2 322672. 10362.9   1
  -7   0   2 330575. 10144.3   1
   0  -7  -2 372158. 9958.14   2
  -7   7   2 375533. 11037.1   2
   7   0  -2 361637. 10510.6   1
  -7   7  -2 389193. 11537.0   2
   0  -7   2 316497. 10099.4   1
   0  -7  -2 322153. 9878.29   1
  -7   7  -2 360184. 10572.8   1
  -7   0   2 330619. 10498.2   2
  -7   0  -2 397044. 11282.5   2
   7  -7   2 350975. 10644.7   1
   7  -7  -2 361023. 10867.9   1
  -7   7   3 524458. 12973.5   1
   7  -7   3 508231. 12814.4   1
  -7   0  -3 478890. 11426.7   1
   0   7  -3 421882. 12006.1   1
  -7   0  -3 500339. 12782.8   2
   0   7   3 510284. 12441.3   1
   7   0  -3 448904. 11764.1   1
  -7   7  -3 498927. 12526.4   1
   0  -7   3 456482. 12132.4   1
  -7   0   3 366586. 11131.7   2
  -7   0   3 461888. 12120.0   1
  -7   7   3 478318. 12487.8   2
   0  -7   3 489199. 13291.0   2
   7  -7  -3 551494. 13400.3   1
   0  -7   4 200279. 8640.58   2
   7   0   4 187488. 7141.45   1
  -7   0   4 184306. 7907.14   2
   0   7   4 246818. 8735.37   1
  -7   7  -4 175868. 7505.84   1
   7   0  -4 150337. 6992.10   1
  -7   0   4 175211. 7502.14   1
  -7   7   4 200046. 8105.98   1
   0  -7   4 163408. 7475.03   1
   0  -7  -4 191594. 7469.40   1
   0   7  -4 218276. 8566.02   1
   7  -7  -4 153887. 7212.61   1
  -7   7   4 191498. 7831.51   2
  -7   0  -4 217785. 8426.03   2
   7  -7   4 172032. 7523.85   1
   7  -7  -5 337333. 10795.8   1
  -7   7  -5 338664. 10642.6   1
  -7   0   5 297210. 9914.08   1
   0   7   5 386411. 10743.6   1
   7   0  -5 327680. 10303.5   1
  -7   0   5 378884. 11532.1   2
   0  -7   5 331322. 10657.4   1
   0  -7  -5 335725. 9905.59   1
  -7   7   5 352395. 10919.6   1
  -7   0  -5 315308. 10257.3   2
  -7   7   5 305334. 9860.86   2
   7  -7   5 331423. 10523.0   1
   0  -7   5 363560. 11922.7   2
   0   7  -5 313668. 10364.7   1
   0  -7   6 474349. 13651.0   2
   0   7  -6 451152. 12762.8   1
  -7   7  -6 432223. 12136.5   1
  -7   0   6 445277. 12252.4   1
  -7   0   6 531750. 13941.6   2
   0  -7   6 523257. 13492.2   1
   7   0  -6 501446. 12950.1   1
  -7   7   6 520965. 12977.3   2
   7  -7  -6 550746. 13907.4   1
  -7   7   6 472073. 12802.3   1
   7  -7   6 469540. 12808.7   1
  -7   0  -6 480193. 12608.0   2
   7  -7  -7 92083.1 5617.72   1
  -7   7  -7 86477.6 5385.47   1
   0   7  -7 96160.1 5865.45   1
   0  -7   7 105208. 6630.79   2
  -7   0   7 85586.1 5409.84   1
   7  -7   7 81304.7 5467.42   1
   7   0  -7 88722.0 5547.10   1
   0  -7   7 97160.7 5946.18   1
  -7   0  -7 84625.8 5447.23   2
  -7   0   7 87776.7 5741.61   2
  -7   7   7 93371.6 5823.69   1
  -7   0  -8 35920.8 3635.61   2
   7  -7   8 28275.3 3206.80   1
   7  -7  -8 33037.3 3463.50   1
   0   7  -8 30248.9 3323.66   1
  -7   7   8 28904.5 3309.94   1
   0  -7   8 28324.2 3474.92   2
  -7   0   8 29230.8 3437.11   2
  -7   0   8 29925.5 3220.55   1
   7   0  -8 30761.5 3318.42   1
   0  -7   8 30782.3 3333.20   1
  -7   7  -8 30201.9 3305.53   1
   0   7  -9 143729. 7307.09   1
   7  -7   9 151378. 7490.57   1
   0  -7   9 146377. 7873.57   2
  -7   7   9 160358. 7775.79   1
  -7   0   9 151832. 7366.76   1
  -7   7  -9 150036. 7494.47   1
   7   0  -9 134843. 6993.45   1
   0  -7   9 144529. 7332.08   1
  -7   0  -9 128998. 7088.08   2
  -7   0   9 153104. 7762.35   2
   0   7 -10 258216. 9828.68   1
   7  -7 -10 262219. 10249.1   1
  -7   0 -10 224305. 9426.74   2
  -7   0  10 243195. 9547.68   1
   7   0 -10 193864. 8561.17   1
   0  -7  10 213571. 9081.88   1
   7  -7  10 218774. 9102.72   1
   0  -7  10 241207. 10302.9   2
  -7   7 -10 260696. 10077.7   1
  -7   0  10 224389. 9744.17   2
   0  -7  11 51162.8 4745.71   2
   7  -7  11 46193.3 4288.75   1
  -7   0  11 51049.3 4318.85   1
   7  -7 -11 55243.3 4790.27   1
   7   0 -11 45017.3 4043.20   1
  -7   7 -11 46990.4 4315.45   1
   0  -7  11 42682.2 4111.84   1
  -7   0  11 48247.8 4578.66   2
   0   7 -11 44420.5 4173.57   1
  -7   0  12 9767.76 2162.89   2
   7  -7 -12 11431.4 2185.41   1
  -7   0  12 7702.01 1772.02   1
   0  -7  12 15870.8 2568.93   2
   0   7 -12 11865.2 2177.73   1
   7   0 -12 8220.98 1859.13   1
   0  -7  12 11630.9 2178.20   1
   7  -7 -13 13676.7 2488.13   1
   0  -7  13 28418.8 3658.25   2
   0   7 -13 19183.6 2709.35   1
  -7   0  13 19926.5 2857.98   1
   7   0 -13 24616.1 3135.53   1
   0  -7  13 20264.8 2905.35   1
  -7   0  13 17304.7 2965.94   2
   0  -7  14 147065. 8522.21   2
  -7   0  14 146013. 7823.86   1
  -7   0  14 127252. 7848.23   2
   7   0 -14 137665. 7590.73   1
   0  -7  14 117888. 7217.63   1
   0   7 -14 111022. 6872.07   1
   0  -7  15 54489.2 5273.61   2
  -7   0  15 42440.5 4264.71   1
   7   0 -15 44549.8 4363.03   1
   0  -7  15 39937.8 4249.61   1
   0   7 -15 41468.0 4303.21   1
  -7   0  15 34860.5 4174.74   2
  -7   0  16 12001.5 2556.56   2
   0  -7  16 11198.7 2248.38   2
   0   7 -16 12896.6 2334.27   1
   7   0 -16 18161.0 2804.06   1
   0  -7  16 16010.9 2716.78   1
  -7   0  16 15603.0 2769.42   1
   0  -7  17 27838.6 3617.52   1
   0   7 -17 26815.3 3601.09   1
  -8   4  17 245.047 629.080   1
   8  -4 -17-65.7033 263.270   1
   8  -4 -16 214266. 10557.5   1
   4  -8  16 215025. 10154.4   1
   8  -4 -15 297.751 542.308   1
  -8   4  15-31.9497 250.320   1
   4  -8  15-17.2743 403.910   1
  -4   8 -15-1.32483 486.338   1
   4  -8  14 9016.01 1975.53   1
  -8   4  14 7611.89 1876.79   1
   8  -4 -14 8839.04 2035.92   1
  -4   8 -14 8566.72 2017.52   1
   4  -8  13-1.23596 71.3824   1
   8  -4 -13-104.046 135.447   1
  -8   4  12 313855. 11459.4   1
   8  -4 -12 315596. 11609.7   1
   4  -8  11 41.3460 154.140   1
  -4   8 -11 1.13870 320.163   1
  -8   4  11 409.477 573.972   1
   8  -4 -11 116.925 481.787   1
  -8   4  11 506.721 478.094   2
  -4   8 -10 1255.68 389.187   1
  -8   4  10 1643.22 883.635   1
   8  -4 -10 1847.62 840.139   1
   4  -8  10 2496.46 1091.12   1
  -8   4  10 1406.72 822.761   2
   4  -8   9-434.930 525.873   1
  -4   8  -9 311.833 267.907   1
   8  -4  -9 71.1334 542.234   1
  -8   4   9-219.955 564.946   1
  -8   4   9 33.8666 420.899   2
  -4   8  -8 591113. 14647.7   1
  -8   4   8 600686. 14827.9   1
   8  -4  -8 631618. 15414.7   1
  -8   4   8 654383. 15684.5   2
   4  -8   8 620675. 15092.2   1
   8  -4  -7 466.192 385.053   1
  -4   8  -7-253.416 520.452   1
  -8   4   7 112.904 208.744   1
   4  -8   7-43.9897 37.3680   1
  -8   4   7 139.757 169.111   2
  -8   4   6 35279.7 3423.52   1
   8  -4  -6 37873.0 3758.81   1
  -4   8  -6 33438.9 3416.87   1
   4  -8   6 31575.8 3351.19   1
  -8   4   6 33803.4 3495.04   2
   4  -8   5 312.899 488.080   1
  -8   4   5-112.810 223.963   1
   8  -4  -5-420.290 326.440   1
  -4   8  -5 87.9861 224.065   1
  -8   4   5 255.441 446.502   2
  -4  -4  -5-159.038 220.253   2
   4  -8   4 768220. 15795.1   1
  -8   4   4 679879. 15135.9   1
   8  -4  -4 696078. 15232.5   1
  -8   4   4 738741. 15810.8   2
  -4   8  -4 714382. 15615.5   1
  -4  -4  -3-3.42616 289.300   2
   4   4   3 211.928 369.887   1
  -8   4   3-125.900 348.648   1
  -4   8  -3-215.723 218.437   1
   8  -4  -3-334.136 500.155   1
  -4  -4  -3 589.572 290.360   1
  -8   4   3-672.661 482.864   2
   4  -8   3 541.343 378.180   1
   4  -8   2 205570. 8131.18   1
   8  -4  -2 189555. 7679.00   1
  -8   4   2 183952. 7688.92   1
  -4   8  -2 173657. 7531.15   1
  -4  -4  -2 225649. 7827.66   1
   4   4   2 199860. 7362.70   1
  -8   4   2 192569. 7948.41   2
  -4  -4  -2 148476. 6876.06   2
  -8   4   1-203.518 447.522   2
   4  -8   1 13.7233 455.153   1
  -8   4   1-88.8679 510.736   1
   4   4   1 149.810 224.522   1
   8  -4  -1 13.5695 43.7127   1
  -4   8  -1 122.303 111.822   1
  -4  -4  -1 281.542 246.978   1
  -4  -4  -1-388.675 527.525   2
  -8   4  -1 510.949 458.606   2
  -8   4  -1 430.521 69.3796   1
   4   4  -1 491.908 522.192   1
   8  -4   1 199.679 542.997   1
  -4  -4   1-348.959 558.182   2
  -4  -4   1 75.0384 255.949   1
   4  -8  -1 424.658 588.497   1
  -4   8   1 452.476 355.142   1
   8  -4   2 57765.1 4340.57   1
  -4   8   2 58471.2 4230.96   1
  -8   4  -2 40226.1 3543.54   1
   4  -8  -2 55131.1 4254.26   1
  -4  -4   2 54065.2 4248.32   2
  -4  -4   2 44387.6 3653.26   1
  -8   4  -2 49618.2 4064.71   2
   4   4  -2 52400.0 4034.35   1
   4  -8  -3-17.4792 200.216   1
  -4  -4   3 13.6916 117.124   2
  -8   4  -3-665.451 574.840   2
  -4   8   3-425.096 591.814   1
   4   4  -3-101.033 383.205   1
  -4  -4   3-392.016 461.599   1
  -8   4  -3-48.4210 322.096   1
   8  -4   3 274.816 257.570   1
  -4   8   4 619462. 14363.0   1
  -8   4  -4 664071. 15433.6   2
  -4  -4   4 642192. 14976.7   2
   4  -8  -5 56.9802 310.850   1
   8  -4   5-61.7522 303.599   1
   4   4  -5 698.175 363.331   1
  -4   8   5-551.374 571.832   1
  -4  -4   5-116.003 344.165   1
  -4  -4   5 290.806 367.757   2
  -8   4  -5 112.022 363.998   2
  -8   4  -5 180.547 227.505   1
  -8   4  -6 946.373 736.581   2
   4  -8  -6 882.167 541.172   1
   8  -4   6 972.997 629.661   1
   4   4  -6 343.894 337.954   1
  -8   4  -6 533.669 309.107   1
  -4   8   6 891.537 624.563   1
  -4  -4   6 171.662 335.142   1
  -4  -4   6 203.026 348.850   2
  -8   4  -7 276.205 505.292   2
   8  -4   7 284.522 218.905   1
   4   4  -7 423.403 502.250   1
  -8   4  -7 255.458 389.456   1
   4  -8  -7 206.668 137.756   1
  -4  -4   7 19.9693 436.458   2
  -4   8   7 12.6162 172.757   1
  -4  -4   7-64.5420 465.140   1
  -4  -4   8 467440. 13182.4   2
   4   4  -8 381542. 11575.6   1
  -4  -4   8 420004. 12438.1   1
  -8   4  -8 360563. 11824.7   2
  -4   8   8 313465. 10472.1   1
  -4  -4   9 554.651 486.678   2
   4  -8  -9 271.337 551.213   1
   4   4  -9 120.080 432.365   1
  -4  -4   9 1088.78 758.053   1
  -4   8   9 427.853 430.339   1
  -8   4  -9 55.5346 453.026   2
  -4  -4  10 6230.91 1608.73   2
   4   4 -10 4679.09 1312.76   1
  -8   4 -10 4398.57 1357.14   2
  -4  -4  10 3976.36 1289.03   1
  -4  -4  11-296.848 403.690   2
   4   4 -11-61.9214 439.673   1
  -4  -4  11-159.706 410.938   1
  -4  -4  12 414969. 13335.4   2
  -4  -4  12 447180. 13687.6   1
  -4  -4  13-101.956 196.128   2
   4   4 -13 79.9813 320.069   1
  -4  -4  13-67.8064 364.716   1
  -4  -4  14 1324.98 862.722   2
  -4  -4  14 679.368 696.622   1
   4   4 -14 661.547 604.014   1
   4   4 -15-360.492 641.716   1
  -4  -4  15 994.321 842.469   2
  -4  -4  15 147.647 195.565   1
  -4  -4  16 226256. 10486.0   2
   4   4 -16 231977. 10117.6   1
  -4  -4  17 690.727 760.766   2
  -8   3  17 57728.1 5251.75   1
   8  -3 -17 55267.2 5246.67   1
   3  -8  17 18470.3 2921.22   1
   8  -5 -16 61928.3 5497.14   1
  -8   5  16 63685.8 5491.55   1
  -8   3  16 79304.1 6088.66   1
   8  -3 -16 58694.8 5319.10   1
   3  -8  16 64735.6 5418.88   1
  -3   8 -16 57348.3 5271.12   1
  -3   8 -15 77294.2 5913.13   1
  -8   5  15 59141.1 5291.58   1
  -8   3  15 90931.3 6462.88   1
   8  -3 -15 89985.5 6424.60   1
   3  -8  15 75557.7 5773.80   1
   5  -8  15 79097.5 6097.20   1
   8  -5 -15 43821.2 4504.76   1
  -5   8 -14 135958. 7969.04   1
  -8   5  14 124038. 7623.42   1
   8  -3 -14 206236. 9525.03   1
   3  -8  14 177296. 8875.63   1
   5  -8  14 157228. 8446.91   1
  -8   3  14 161910. 8563.41   1
   8  -5 -14 155855. 8461.18   1
  -3   8 -14 184718. 9056.65   1
  -5   8 -13 6399.02 1697.75   1
   3  -8  13 6823.55 1723.28   1
  -8   5  13 7643.18 1803.61   1
  -8   3  13 7033.44 1731.75   1
   8  -5 -13 3759.83 1403.61   1
   8  -3 -13 4250.32 1216.79   1
   5  -8  13 6637.50 1509.72   1
  -3   8 -13 6290.42 1615.78   1
   5  -8  12 1373.76 581.381   1
  -5   8 -12 452.288 353.722   1
  -8   5  12 1981.67 1032.12   1
  -8   3  12 1440.09 647.842   1
   8  -5 -12 3284.63 1116.11   1
   8  -3 -12 1398.69 735.146   1
  -3   8 -12 1153.18 759.011   1
   3  -8  12 939.215 499.886   1
  -8   3  12 1228.90 734.352   2
  -8   5  11 39385.2 4057.74   1
   8  -5 -11 40791.5 4077.35   1
  -3   8 -11 34546.4 3627.64   1
  -8   3  11 36200.2 3836.45   1
   8  -3 -11 35982.5 3875.00   1
  -8   3  11 39698.5 4035.06   2
  -5   8 -11 38228.7 3982.69   1
   3  -8  11 38334.6 3816.13   1
   5  -8  11 37944.5 3891.91   1
   8  -5 -10 228949. 9363.20   1
  -8   3  10 181937. 8417.92   1
  -3   8 -10 214496. 9130.49   1
   8  -3 -10 168667. 8194.10   1
  -5   8 -10 183335. 8479.23   1
  -8   5  10 233011. 9487.42   2
   3  -8  10 218566. 9165.12   1
   5  -8  10 192485. 8790.35   1
  -8   5  10 195180. 8769.02   1
  -8   3  10 199776. 8952.12   2
  -8   5   9 395378. 12203.8   1
   8  -5  -9 349290. 11489.4   1
  -8   3   9 333690. 11286.0   1
   8  -3  -9 358429. 11615.2   1
  -3   8  -9 361860. 11625.4   1
  -5   8  -9 355883. 11663.6   1
   3  -8   9 361942. 11815.5   1
   5  -8   9 380444. 12182.0   1
  -8   3   9 346431. 11596.0   2
  -8   5   9 363175. 11673.8   2
  -8   5   8 54457.6 4493.35   1
  -8   3   8 44551.0 4108.64   1
   8  -3  -8 37566.3 3756.16   1
  -8   5   8 57119.0 4585.57   2
  -3   8  -8 49435.9 4256.22   1
  -8   3   8 46524.9 4207.14   2
  -5   8  -8 50785.1 4256.67   1
   3  -8   8 55482.2 4487.61   1
   8  -5  -8 55942.5 4385.07   1
   5  -8   8 56044.4 4527.70   1
  -8   5   7 116641. 6580.37   2
  -8   5   7 117269. 6600.21   1
  -8   3   7 123541. 6679.38   1
   8  -3  -7 124197. 6681.53   1
  -3   8  -7 130086. 6893.45   1
   3  -8   7 116801. 6464.83   1
  -5   8  -7 100495. 6009.97   1
   5  -8   7 116029. 6477.31   1
  -8   3   7 113520. 6467.42   2
   5  -8   6 613552. 14664.5   1
   8  -5  -6 595651. 14372.0   1
  -8   5   6 676087. 15483.5   1
  -8   3   6 581038. 14348.7   1
  -5  -3  -6 529000. 12779.9   2
   8  -3  -6 594137. 14370.9   1
  -3   8  -6 589802. 14359.2   1
   3  -8   6 543025. 13957.6   1
  -5   8  -6 620495. 14827.8   1
  -8   3   6 625072. 14878.9   2
  -5   8  -5 4536.57 1332.94   1
  -5  -3  -5 3436.11 1068.27   2
  -8   5   5 4327.35 1181.59   1
  -8   5   5 3035.77 1035.69   2
  -8   3   5 4011.33 1143.36   1
   5  -8   5 3857.65 1072.02   1
   8  -5  -5 4534.79 1157.21   1
  -3   8  -5 4884.83 1443.93   1
   8  -3  -5 3250.46 954.556   1
  -8   3   5 3763.03 1103.57   2
   3  -8   5 4725.46 1294.22   1
   8  -5  -4 87391.8 5456.16   1
  -8   5   4 110815. 6118.66   1
  -8   3   4 98676.0 5717.38   1
   8  -3  -4 90335.6 5461.77   1
  -5  -3  -4 131192. 6287.43   2
  -8   3   4 95886.4 5675.19   2
  -3   8  -4 80625.9 5176.48   1
   3  -8   4 97062.1 5689.84   1
   5  -8   4 96089.3 5618.05   1
  -8   5   4 95459.6 5619.79   2
  -5   8  -4 102919. 5762.50   1
  -3  -5  -4 78447.0 4793.18   2
  -8   5   3 293181. 9776.98   1
  -5  -3  -3 256307. 8788.97   2
   8  -5  -3 321093. 10326.6   1
  -8   3   3 299723. 9970.41   1
   3   5   3 311140. 9138.11   1
   8  -3  -3 309016. 10127.3   1
  -5  -3  -3 358121. 9463.56   1
  -3  -5  -3 335706. 9431.47   1
   5   3   3 328268. 9203.30   1
  -3   8  -3 246649. 9118.54   1
   3  -8   3 340704. 10612.8   1
   5  -8   3 304171. 9991.21   1
  -8   5   3 278008. 9334.92   2
  -3  -5  -3 315299. 9811.44   2
  -8   3   3 269027. 9504.18   2
  -5   8  -3 321597. 10176.2   1
  -5   8  -2 311156. 10036.7   1
   5  -8   2 296386. 9980.78   1
   8  -5  -2 283434. 9678.26   1
  -8   5   2 304395. 9841.53   1
  -8   3   2 301787. 9969.74   1
  -8   3   2 317464. 10356.3   2
  -5  -3  -2 293752. 8857.50   1
  -3  -5  -2 361650. 9916.94   1
   3   5   2 297036. 9105.85   1
  -5  -3  -2 275310. 9201.78   2
   5   3   2 311349. 9125.62   1
  -3   8  -2 369519. 11028.6   1
   3  -8   2 288585. 9737.10   1
  -8   5   2 293265. 9688.31   2
  -3  -5  -2 256231. 8649.69   2
   8  -3  -2 305847. 10165.8   1
  -5   8  -1 366236. 10836.7   1
  -8   5   1 359838. 10674.4   1
  -8   5   1 352782. 10817.2   2
  -8   3   1 370957. 10820.8   1
  -8   3   1 352314. 10800.6   2
   8  -3  -1 324213. 10372.0   1
  -5  -3  -1 434656. 11018.3   1
  -3  -5  -1 413829. 10894.5   1
  -3   8  -1 375523. 11117.7   1
   5   3   1 395511. 10580.6   1
   3   5   1 424834. 11026.0   1
   8  -5  -1 365175. 11020.8   1
   5  -8   1 442110. 11917.2   1
   3  -8   1 370615. 10900.6   1
  -5  -3  -1 334118. 10416.8   2
  -3  -5  -1 402341. 11084.2   2
   8  -5   0 12502.0 2003.38   1
  -3   8   0 9025.23 1644.11   1
   3  -8   0 14932.0 2167.39   1
   3   5   0 11799.3 1937.32   1
  -8   5   0 13016.9 2054.18   1
  -8   3   0 11221.9 1869.18   1
   8  -3   0 13035.6 1924.39   1
  -5   8   0 10305.4 1914.45   1
  -5  -3   0 15333.4 2159.46   1
  -3  -5   0 11642.7 1895.16   1
   5  -8   0 12257.7 2035.27   1
   5   3   0 14529.1 2063.76   1
  -8   5   0 14223.0 2264.35   2
  -5  -3   0 17302.3 2305.42   2
  -8   3   0 10967.6 1929.14   2
  -3  -5   0 13755.4 2096.23   2
   8  -5   1 41457.2 3594.10   1
   8  -3   1 36792.5 3312.43   1
  -5   8   1 47049.6 3855.24   1
  -5  -3   1 52520.9 4115.56   2
  -5  -3   1 40238.7 3498.93   1
  -3  -5   1 46394.0 3708.45   1
  -8   5  -1 33675.5 3274.03   1
  -8   3  -1 30206.8 3085.92   1
   5   3  -1 36798.9 3312.77   1
   3  -8  -1 30465.5 3125.43   1
  -8   5  -1 44519.7 3820.42   2
  -8   3  -1 46073.6 3875.68   2
  -3   8   1 45005.5 3736.47   1
   3   5  -1 36511.1 3344.04   1
   5  -8  -1 39821.7 3619.50   1
  -3  -5   1 29532.0 3012.46   2
  -8   5  -2 816513. 15783.3   1
  -5  -3   2 861730. 16715.7   2
  -8   5  -3 99141.3 5946.66   2
   8  -3   3 120333. 6099.42   1
  -8   3  -3 126030. 6115.04   1
  -5  -3   3 95271.2 5616.31   1
  -8   5  -3 132381. 6350.39   1
  -5   8   3 141852. 6761.00   1
  -3  -5   3 114276. 6024.67   1
   8  -5   3 116120. 6170.64   1
   5   3  -3 113096. 6057.63   1
  -8   3  -3 96068.8 5667.18   2
   3  -8  -3 91385.6 5465.56   1
  -3   8   3 114743. 6087.31   1
  -5  -3   3 122499. 6439.18   2
  -3  -5   3 121534. 6352.05   2
   5  -8  -3 140502. 6745.04   1
   3   5  -3 92541.6 5432.14   1
  -3  -5   4 14968.9 2242.47   2
   8  -3   4 15438.3 2166.22   1
   5  -8  -4 8764.47 1736.40   1
   8  -5   4 16433.1 2209.45   1
  -5  -3   4 16308.0 2317.53   2
  -8   5  -4 14656.4 2187.23   1
   3   5  -4 14705.3 2200.39   1
  -5  -3   4 15508.4 2316.22   1
  -3  -5   4 14875.3 2148.80   1
  -8   5  -4 17133.6 2423.48   2
  -5   8   4 15161.3 2193.50   1
   5   3  -4 15510.7 2272.62   1
  -8   3  -4 15281.5 2327.16   2
  -3   8   4 17190.0 2310.25   1
   3  -8  -4 17925.6 2387.03   1
  -3  -5   5 345535. 11077.4   2
   8  -3   5 388790. 10745.9   1
   8  -5   5 319092. 10237.6   1
  -5  -3   5 293750. 10121.2   1
   5  -8  -5 227948. 8753.24   1
  -3  -5   5 307241. 10118.6   1
  -5   8   5 297802. 9889.85   1
   5   3  -5 350030. 10873.2   1
  -8   5  -5 275861. 9986.26   2
  -8   3  -5 366904. 11349.5   2
   3  -8  -5 453790. 12184.7   1
   3   5  -5 317861. 10237.8   1
  -8   3  -5 365078. 10354.6   1
  -3   8   5 313413. 10055.9   1
  -8   5  -5 317965. 10089.7   1
  -5  -3   5 389762. 11807.9   2
  -3   8   6 298416. 9860.04   1
  -8   5  -6 239379. 9283.95   2
  -3  -5   6 252965. 9570.76   2
  -8   3  -6 234757. 8242.74   1
  -5  -3   6 262698. 9574.76   1
  -3  -5   6 250047. 9369.90   1
  -5  -3   6 212315. 9003.50   2
  -5   8   6 207191. 8275.80   1
   5   3  -6 235593. 8995.58   1
  -8   5  -6 266818. 9015.09   1
   3   5  -6 268314. 9446.02   1
   8  -5   6 254694. 9115.59   1
  -8   3  -6 207243. 8713.73   2
   3  -8  -6 202386. 8215.31   1
   5  -8  -6 166769. 7528.51   1
   8  -3   6 236100. 8405.82   1
  -5  -3   7 249304. 9473.75   1
  -3  -5   7 218611. 8908.62   1
  -8   5  -7 236321. 8707.18   1
  -5  -3   7 244296. 9778.18   2
   5   3  -7 226690. 8751.85   1
  -5   8   7 229878. 8690.06   1
   3   5  -7 230753. 8918.08   1
  -8   3  -7 244593. 9663.85   2
   8  -5   7 225611. 8541.74   1
   5  -8  -7 232425. 9112.15   1
  -8   5  -7 238473. 9459.91   2
  -5   8   8 71590.0 4954.12   1
  -3  -5   8 92083.6 5975.51   2
  -3   8   8 127467. 6571.19   1
   3   5  -8 111831. 6284.21   1
  -5  -3   8 118457. 6616.26   1
  -3  -5   8 92446.9 5898.93   1
   5   3  -8 115228. 6392.57   1
  -8   5  -8 112300. 6488.56   2
  -8   5  -8 128274. 6545.17   1
  -8   3  -8 129595. 6902.06   2
   3  -8  -8 105611. 6018.89   1
   8  -5   8 130422. 6699.64   1
   5  -8  -8 94706.8 5885.11   1
  -5  -3   8 100421. 6250.13   2
   3   5  -9 56185.4 4519.57   1
  -5  -3   9 56375.1 4686.78   2
  -8   5  -9 55537.4 4574.23   2
  -5  -3   9 61785.5 4892.64   1
  -5   8   9 65986.7 4839.19   1
  -3  -5   9 50753.7 4327.85   1
   5   3  -9 61401.5 4773.57   1
  -8   3  -9 52930.7 4518.74   2
  -5  -3  10 310136. 10958.5   1
  -3  -5  10 309084. 10749.8   1
  -8   3 -10 308860. 11210.6   2
   5   3 -10 265667. 9961.80   1
   3   5 -10 315268. 10989.8   1
   5  -8 -10 280871. 10366.8   1
  -5  -3  10 319918. 11417.4   2
  -5   8  11 2291.04 990.813   1
   5   3 -11 2074.48 822.661   1
  -5  -3  11 2344.29 1112.77   2
  -3  -5  11 2835.10 1160.36   2
   3   5 -11 1986.93 989.840   1
  -5  -3  11 2108.48 1127.69   1
  -3  -5  11 1570.70 900.181   1
  -8   3 -11 2606.79 988.463   2
   5   3 -12 3487.06 1146.43   1
  -5  -3  12 5989.02 1623.63   2
  -3  -5  12 4730.74 1309.27   2
   3   5 -12 5554.19 1389.52   1
  -5  -3  12 5866.79 1545.94   1
  -3  -5  12 6138.42 1594.94   1
  -3  -5  13 50493.1 4674.36   2
   3   5 -13 55533.5 4695.83   1
  -5  -3  13 53334.9 4750.07   1
  -3  -5  13 52842.8 4715.76   1
   5   3 -13 51276.7 4562.47   1
  -5  -3  13 53307.7 4952.95   2
  -5  -3  14 99069.6 6822.05   2
  -3  -5  14 132485. 7700.12   2
   3   5 -14 131118. 7463.05   1
  -5  -3  14 92948.5 6288.21   1
  -3  -5  14 111194. 7050.60   1
   5   3 -14 130745. 7284.00   1
  -3  -5  15 181916. 9302.82   2
  -5  -3  15 181732. 8855.19   1
  -3  -5  15 164386. 8593.66   1
   5   3 -15 163961. 8403.32   1
   3   5 -15 192702. 9128.03   1
  -5  -3  15 186447. 9688.30   2
  -5  -3  16 12562.3 2488.28   2
  -3  -5  16 9734.20 2152.30   2
   3   5 -16 11984.0 2239.76   1
  -5  -3  16 11227.1 2323.69   1
  -3  -5  16 11497.9 2279.89   1
   5   3 -16 12176.8 2158.26   1
  -5  -3  17 19070.6 3175.62   2
   2  -8  17 11168.8 2358.65   1
  -2   8 -16 51845.1 4891.92   1
  -8   6  16 54943.0 5265.98   1
  -8   2  16 67314.8 5611.57   1
   8  -2 -16 48528.8 4854.31   1
   2  -8  16 52768.1 4879.60   1
  -8   6  15 2086.82 1049.18   1
  -8   2  15 3768.09 1342.76   1
   8  -6 -15 2149.64 1085.92   1
  -2   8 -15 2260.95 1014.91   1
   8  -2 -15 2803.20 1084.76   1
   2  -8  15 4010.37 1359.97   1
   8  -6 -14 139158. 8175.32   1
  -8   2  14 131926. 7664.27   1
   8  -2 -14 142724. 7997.94   1
   2  -8  14 118737. 7242.21   1
  -2   8 -14 145279. 7862.39   1
  -8   2  14 126177. 7755.98   2
  -2   8 -13 26029.4 3320.62   1
   8  -6 -13 22307.7 3257.11   1
  -8   2  13 31729.1 3689.02   1
   8  -2 -13 36034.1 3895.98   1
  -6   8 -13 33020.7 3905.47   1
   2  -8  13 30548.5 3646.20   1
  -8   6  13 41993.1 4328.53   1
   6  -8  13 34657.2 3886.97   1
  -8   2  13 29373.4 3916.61   2
   8  -6 -12 11130.5 2255.09   1
  -8   6  12 11785.6 2239.15   1
   8  -2 -12 12507.9 2318.57   1
  -8   2  12 12134.9 2365.72   2
  -8   2  12 10563.0 2047.95   1
  -6   8 -12 13514.3 2384.89   1
   2  -8  12 10871.2 2160.39   1
  -2   8 -12 10435.0 2038.65   1
   6  -8  12 9766.64 2042.04   1
  -2   8 -11 115372. 6729.66   1
  -8   6  11 119912. 7092.02   1
  -8   2  11 105904. 6667.49   1
   8  -2 -11 133093. 7341.78   1
  -8   2  11 117454. 7111.43   2
  -6   8 -11 122614. 7163.33   1
   2  -8  11 111535. 6775.78   1
   6  -8  11 109069. 6766.10   1
  -2   8 -10 88925.1 5954.72   1
  -8   2  10 99816.3 6211.75   1
   8  -2 -10 103075. 6414.01   1
  -6   8 -10 94020.5 6189.73   1
   2  -8  10 98442.9 6279.85   1
   6  -8  10 102977. 6439.40   1
  -8   2  10 103486. 6475.23   2
  -8   6  10 94815.7 6235.36   1
   8  -6 -10 89721.1 6073.39   1
   8  -6  -9 164283. 8046.82   1
  -8   2   9 180334. 8472.62   2
  -2   8  -9 164113. 7904.42   1
  -8   2   9 154941. 7635.97   1
  -8   6   9 188546. 8495.64   1
   8  -2  -9 168610. 8029.71   1
   2  -8   9 164826. 7975.10   1
  -6   8  -9 182705. 8410.80   1
   6  -8   9 172457. 8182.20   1
  -2   8  -8 7598.11 1637.13   1
  -8   6   8 5399.71 1328.09   1
  -8   2   8 5837.15 1501.09   1
  -8   2   8 5171.96 1412.21   2
   8  -6  -8 6427.35 1417.28   1
   8  -2  -8 5586.53 1474.59   1
   2  -8   8 6716.24 1549.81   1
  -8   6   8 6718.31 1582.79   2
  -6   8  -8 7016.51 1610.43   1
   6  -8   8 5509.79 1487.70   1
   8  -6  -7 249236. 9652.70   1
  -8   6   7 262651. 9787.49   1
  -8   2   7 231381. 9256.34   1
  -2   8  -7 315527. 10717.3   1
   8  -2  -7 342626. 11134.6   1
   6  -8   7 319034. 10760.2   1
   2  -8   7 289638. 10308.8   1
  -8   6   7 261606. 9735.64   2
  -6  -2  -7 293954. 9986.03   2
  -6   8  -7 278372. 10264.6   1
  -8   2   7 256862. 9696.29   2
   8  -6  -6 683157. 15742.3   1
  -8   2   6 642317. 14959.4   1
   8  -2  -6 650505. 15395.2   1
  -2   8  -6 668481. 15468.6   1
   6  -8   6 710044. 15886.3   1
   2  -8   6 694224. 15652.3   1
  -6   8  -6 729975. 16145.0   1
  -8   6   6 715130. 15955.0   1
  -8   2   6 591305. 14802.9   2
  -8   6   6 716945. 15867.3   2
  -6  -2  -6 673886. 15204.1   2
   8  -6  -5 192846. 8252.49   1
  -8   6   5 210346. 8517.88   1
  -8   2   5 191826. 8161.62   1
   8  -2  -5 215886. 8684.41   1
  -6  -2  -5 241817. 9017.76   2
  -2   8  -5 231937. 8946.05   1
  -6   8  -5 209563. 8487.31   1
   2  -8   5 179485. 7853.51   1
  -8   2   5 179945. 8025.98   2
  -8   6   5 207551. 8660.34   2
   6  -8   5 220147. 8680.50   1
   2   6   4 421928. 10879.8   1
   8  -6  -4 455763. 12702.4   1
  -8   6   4 413888. 11996.1   1
  -8   6   4 430787. 12333.6   2
  -8   2   4 413823. 11789.9   1
   8  -2  -4 409993. 11856.4   1
  -2   8  -4 404823. 12143.8   1
   2  -8   4 402951. 11713.6   1
   6  -8   4 428114. 12098.7   1
  -6   8  -4 425899. 11917.9   1
   6  -8   3 1118.70 746.361   1
  -2  -6  -3 1394.79 714.588   2
  -6   8  -3 1154.61 690.444   1
  -8   6   3 1340.85 713.425   1
   8  -6  -3 1276.82 481.436   1
  -8   2   3 1717.89 815.973   1
  -6  -2  -3 1672.91 689.733   1
  -2   8  -3 3280.87 1117.12   1
  -8   2   3 1873.53 901.699   2
   8  -2  -3 1992.73 950.645   1
   2   6   3 1477.55 613.939   1
  -2  -6  -3 1434.80 690.624   1
   6   2   3 1793.30 574.451   1
   2  -8   3 239.637 321.230   1
  -8   6   3 1690.00 676.249   2
  -6  -2  -3 1485.47 619.774   2
   2   6   2 518259. 12425.2   1
   8  -6  -2 502675. 13028.2   1
  -8   2   2 484779. 12657.6   1
  -6   8  -2 525849. 13376.0   1
  -6  -2  -2 610037. 12897.2   1
  -8   6   2 496802. 12829.0   1
  -8   6   2 409335. 12142.0   2
  -2  -6  -2 459085. 11629.1   1
  -2   8  -2 495132. 13195.4   1
  -6  -2  -2 570975. 13305.3   2
   2  -8   2 524412. 13466.8   1
   8  -2  -2 509044. 12900.4   1
  -8   2   2 452360. 12380.8   2
   6  -8   2 497267. 13053.8   1
  -2  -6  -2 359668. 10631.4   2
  -6  -2  -1 2225.43 807.299   2
  -2  -6  -1 2514.29 947.688   2
   8  -6  -1 2371.28 843.148   1
  -8   2   1 1215.41 708.352   1
  -6   8  -1 2300.17 955.177   1
  -6  -2  -1 1952.15 806.703   1
   6  -8   1 1281.16 384.471   1
  -8   6   1 1107.84 477.998   1
  -2   8  -1 1654.91 771.596   1
   8  -2  -1 1765.49 796.250   1
  -8   2   1 2062.78 765.347   2
   2   6   1 2007.62 748.827   1
  -2  -6  -1 1821.31 759.815   1
  -8   6   1 2405.44 758.532   2
   2  -8   1 2113.10 851.834   1
   6   2   1 1367.64 742.138   1
   2   6   0 12653.1 1985.23   1
  -8   2   0 15939.5 2239.84   1
   8  -2   0 13445.2 2085.60   1
   6  -8   0 13505.4 2086.80   1
  -6  -2   0 12570.5 1958.04   1
  -6   8   0 14050.9 2157.41   1
  -2  -6   0 13506.3 1989.56   1
   6   2   0 15951.5 2199.37   1
   8  -6   0 12410.6 2066.86   1
  -2   8   0 12046.8 2088.00   1
  -8   6   0 11358.4 1931.34   1
   2  -8   0 12283.1 2028.80   1
  -8   6   0 16241.9 2319.67   2
  -8   2   0 14698.9 2296.99   2
  -2  -6   0 14435.4 2145.41   2
  -6  -2   0 17993.1 2370.25   2
   8  -6   1 225513. 8654.67   1
  -2  -6   1 272855. 9335.85   2
   2   6  -1 231794. 8511.82   1
  -8   2  -1 268519. 9471.05   2
  -8   2  -1 216239. 8236.14   1
   8  -2   1 240174. 8925.72   1
  -6  -2   1 234299. 8513.85   1
  -8   6  -1 190494. 7808.11   1
  -2  -6   1 194485. 7831.31   1
  -6   8   1 207969. 8153.78   1
   6   2  -1 207062. 7971.16   1
  -2   8   1 157977. 7290.62   1
   2  -8  -1 290550. 9685.13   1
  -8   6  -1 232453. 9016.98   2
   6  -8  -1 234065. 8671.08   1
  -6  -2   1 201136. 8215.18   2
   2   6  -2 101020. 5768.62   1
  -8   2  -2 134622. 6434.98   1
   8  -2   2 111821. 5798.71   1
  -8   6  -2 111399. 5964.15   1
  -6  -2   2 106187. 5759.68   1
  -2  -6   2 125107. 6481.90   2
  -2  -6   2 129925. 6417.10   1
   6   2  -2 105865. 5860.57   1
  -6   8   2 90724.0 5424.69   1
  -2   8   2 103582. 5782.12   1
   2  -8  -2 125930. 6417.68   1
  -8   6  -2 113640. 6353.07   2
   6  -8  -2 125607. 6293.30   1
  -8   2  -2 120879. 6332.75   2
  -6  -2   2 150515. 7085.37   2
   8  -6   2 115644. 6172.25   1
  -2  -6   3 502587. 13046.3   2
  -8   6  -3 489649. 12448.9   1
   8  -2   3 418472. 11285.3   1
  -8   2  -3 480827. 12122.6   1
  -6  -2   3 502585. 12787.3   1
  -2  -6   3 403087. 11552.5   1
   6   2  -3 443312. 12054.5   1
  -2   8   3 368695. 11092.1   1
   2  -8  -3 579842. 13644.3   1
  -6   8   3 460966. 12167.6   1
  -8   6  -3 498445. 13144.5   2
  -8   2  -3 393037. 11502.3   2
   6  -8  -3 507965. 12948.0   1
  -6  -2   3 456695. 12737.2   2
   8  -6   3 440299. 12259.2   1
   2   6  -3 394525. 11440.6   1
  -6   8   4 8989.89 1709.43   1
   6   2  -4 8387.52 1627.39   1
  -6  -2   4 6578.71 1465.98   2
  -2  -6   4 7083.32 1632.23   2
   6  -8  -4 6857.13 1470.95   1
   8  -6   4 8688.72 1655.95   1
  -8   2  -4 7591.10 1590.62   2
  -8   2  -4 7430.55 1439.70   1
   8  -2   4 7971.64 1547.94   1
  -6  -2   4 7114.94 1573.19   1
  -8   6  -4 5941.76 1348.47   1
   2   6  -4 7590.48 1613.59   1
  -2  -6   4 5964.03 1456.71   1
  -8   6  -4 6634.79 1470.69   2
  -2   8   4 6181.07 1416.66   1
   2  -8  -4 8159.25 1556.38   1
  -2  -6   5 399537. 11985.4   2
   8  -2   5 402127. 11099.6   1
  -8   2  -5 320380. 10598.7   2
  -8   6  -5 407686. 12056.7   2
  -6  -2   5 322949. 10593.1   1
  -2  -6   5 310578. 10488.1   1
   6   2  -5 348607. 10840.6   1
  -8   6  -5 412007. 11408.7   1
   2  -8  -5 506463. 12807.6   1
  -6  -2   5 414881. 12405.0   2
  -6   8   5 497155. 12887.3   1
   8  -6   5 365978. 11244.5   1
  -2   8   5 394977. 11521.3   1
   6  -8  -5 455218. 12543.1   1
   2   6  -5 363708. 11168.5   1
  -2  -6   6 951444. 18791.4   2
  -6  -2   6 739937. 16042.9   1
  -2  -6   6 882828. 17638.5   1
  -8   6  -6 660521. 14886.3   1
   6   2  -6 739736. 15988.6   1
   2   6  -6 725356. 16037.9   1
  -8   2  -6 782385. 16966.2   2
  -6  -2   6 802652. 17281.3   2
  -6   8   6 580778. 14276.7   1
  -6   8   7 101956. 5952.62   1
  -2  -6   7 123055. 6848.46   2
  -8   2  -7 115262. 6492.65   2
  -8   6  -7 127550. 6703.38   1
  -6  -2   7 109412. 6295.51   1
  -2  -6   7 126837. 6751.36   1
   6   2  -7 121294. 6451.74   1
  -8   6  -7 123444. 6743.37   2
  -2   8   7 144615. 7031.55   1
   8  -6   7 115425. 6374.43   1
   2   6  -7 114734. 6314.40   1
  -6  -2   7 100573. 6200.90   2
  -2  -6   8 190460. 8686.51   2
  -6   8   8 208641. 8663.97   1
   2   6  -8 183197. 8143.37   1
  -8   6  -8 193095. 8352.87   1
  -6  -2   8 194912. 8406.75   1
  -2  -6   8 210602. 8824.55   1
   6   2  -8 194800. 8226.79   1
  -8   2  -8 178236. 8302.59   2
  -6  -2   8 213370. 9218.47   2
   8  -6   8 172329. 7940.09   1
  -8   6  -9 8952.63 1810.58   1
  -6  -2   9 10759.1 1996.62   2
  -6   8   9 10276.8 1988.65   1
  -2  -6   9 10440.1 2038.45   2
   8  -6   9 11199.8 2078.86   1
   6  -8  -9 11683.8 2058.81   1
  -6  -2   9 10922.0 2080.29   1
   2   6  -9 8833.61 1796.02   1
  -8   2  -9 12268.0 2240.76   2
  -2  -6   9 9448.22 1836.33   1
   6   2  -9 10690.4 1999.35   1
  -2  -6  10 243318. 10095.9   2
  -6  -2  10 227354. 9321.57   1
  -2  -6  10 219210. 9180.85   1
   6   2 -10 227950. 9250.32   1
  -8   2 -10 210288. 9165.87   2
   2   6 -10 203607. 8834.91   1
  -6  -2  10 223376. 9719.80   2
  -2  -6  11 19447.9 2881.11   2
  -8   2 -11 15774.7 2519.10   2
  -6   8  11 15020.4 2431.27   1
  -6  -2  11 15679.7 2403.96   1
  -2  -6  11 18799.9 2703.07   1
   6   2 -11 18363.3 2677.63   1
   6  -8 -11 16927.9 2716.61   1
  -6  -2  11 20264.7 2958.36   2
   2   6 -11 17786.5 2526.06   1
  -2  -6  12 35306.0 3801.00   2
  -6   8  12 26314.3 3333.25   1
  -8   2 -12 20140.6 2915.40   2
  -6  -2  12 27602.3 3267.81   1
  -2  -6  12 28301.5 3430.18   1
   6   2 -12 24167.1 3112.01   1
   2   6 -12 21815.8 2987.15   1
  -6  -2  12 29948.2 3604.43   2
  -2  -6  13 72198.3 5569.84   2
  -6  -2  13 57934.0 4857.46   1
  -2  -6  13 58951.6 4994.84   1
   6   2 -13 68041.0 5277.85   1
   2   6 -13 66657.8 5326.32   1
  -6  -2  13 55425.3 5162.60   2
  -2  -6  14 81587.3 6124.53   2
  -6  -2  14 83887.5 5930.52   1
  -2  -6  14 73548.2 5612.51   1
   6   2 -14 81268.0 5808.04   1
   2   6 -14 69080.8 5422.29   1
  -6  -2  14 65935.2 5568.56   2
  -6  -2  15 55052.2 4935.72   1
  -2  -6  15 64094.7 5331.44   1
   6   2 -15 62052.8 5121.64   1
  -2  -6  15 56826.6 5154.46   2
   2   6 -15 52339.9 4758.30   1
  -6  -2  15 49341.4 5009.27   2
  -2  -6  16 1136.27 560.299   2
   2   6 -16 1680.75 862.005   1
  -6  -2  16 863.910 755.636   1
  -2  -6  16 1492.48 854.175   1
  -6  -2  16 871.090 717.379   2
   6   2 -16 876.080 593.579   1
  -6  -2  17 49941.7 5099.65   2
   1  -8  16 132189. 7836.18   1
  -1   8 -16 138236. 8084.73   1
   1  -8  15 293.390 292.265   2
  -8   7  15-266.292 585.610   1
  -8   1  15 794.802 631.673   2
  -8   1  15-315.089 389.290   1
  -1   8 -15 328.947 504.089   1
   1  -8  15 1420.80 825.153   1
   8  -1 -15-433.786 528.034   1
  -8   1  14 6080.05 1803.44   2
   1  -8  14 6447.35 1816.15   2
  -8   7  14 3679.90 1348.92   1
   8  -7 -14 6642.79 1808.00   1
  -8   1  14 7973.50 1960.08   1
  -1   8 -14 4978.37 1388.47   1
   1  -8  14 7074.35 1758.38   1
   8  -1 -14 5751.65 1586.38   1
  -8   1  13 1300.15 715.787   2
   1  -8  13-383.669 766.786   2
  -8   7  13-289.050 453.230   1
   8  -7 -13-167.820 239.659   1
  -8   1  13 364.818 688.418   1
  -1   8 -13 323.694 140.037   1
   1  -8  13-110.939 423.629   1
   8  -1 -13 653.799 704.660   1
  -1   8 -12 245409. 10060.8   1
  -8   1  12 237795. 10025.3   1
  -7   8 -12 254120. 10645.8   1
   1  -8  12 264068. 10424.4   1
   7  -8  12 249897. 10632.7   1
  -8   1  12 241805. 10526.1   2
  -8   7  12 253427. 10529.1   1
  -8   1  11 267.321 120.232   2
  -8   7  11-4.87553 235.591   1
   7  -8  11-346.661 669.714   1
   8  -7 -11 344.801 232.374   1
  -8   1  11 519.258 442.917   1
  -7   8 -11-464.997 514.784   1
   8  -1 -11-107.202 65.8661   1
  -1   8 -11 135.150 275.177   1
   1  -8  11-21.9817 237.182   1
  -1   8 -10 27048.0 3212.43   1
  -8   7  10 23188.9 3080.65   1
  -8   1  10 23725.1 3095.38   1
   8  -1 -10 23690.4 3022.61   1
   1  -8  10 20308.7 2901.78   1
  -7   8 -10 27691.2 3400.11   1
   7  -8  10 29018.0 3409.17   1
  -8   1  10 29017.0 3508.95   2
  -8   1   9 7176.46 1633.46   2
   8  -7  -9 11498.1 2188.55   1
  -8   7   9 8013.46 1774.12   1
  -8   1   9 9378.24 1850.73   1
   8  -1  -9 10092.9 1972.47   1
   7  -8   9 10512.4 2025.29   1
   1  -8   9 9145.66 1797.46   1
  -1   8  -9 11067.2 1988.67   1
  -7   8  -9 9456.61 1975.54   1
   8  -7  -8 423689. 12860.7   1
  -8   7   8 468145. 13421.7   1
  -1   8  -8 461944. 13292.0   1
  -8   1   8 450891. 13389.6   2
  -8   1   8 408037. 12488.2   1
   8  -1  -8 444084. 12849.3   1
   1  -8   8 397114. 12376.2   1
   7  -8   8 469231. 13441.7   1
  -7   8  -8 510667. 14193.9   1
  -7  -1  -8 377573. 12223.1   2
   7  -8   7 710.278 403.154   1
  -8   1   7 796.534 617.560   2
  -1   8  -7 1520.86 934.937   1
   8  -7  -7 13.1917 144.780   1
  -8   1   7 910.171 639.113   1
  -7   8  -7 518.738 374.729   1
   8  -1  -7 391.609 148.079   1
   1  -8   7-49.0363 228.654   1
  -8   7   7 849.928 469.067   2
  -7  -1  -7 356.894 406.622   2
  -7   8  -6 18738.4 2642.26   1
   8  -7  -6 14135.3 2215.20   1
  -8   7   6 12960.1 2199.90   1
   8  -1  -6 17198.1 2525.76   1
  -1   8  -6 15059.0 2409.00   1
  -8   1   6 13925.7 2325.81   1
   7  -8   6 13405.2 2236.21   1
  -7  -1  -6 15109.0 2328.43   2
   1  -8   6 13460.9 2259.73   1
  -8   7   6 16873.6 2587.07   2
  -8   1   6 14912.6 2297.30   2
  -1   8  -5 9884.96 1898.39   1
   7  -8   5 8136.85 1771.94   1
  -7   8  -5 7558.69 1660.04   1
   8  -7  -5 9564.92 1827.75   1
  -8   1   5 8277.76 1726.06   1
   8  -1  -5 8775.52 1666.12   1
   1  -8   5 7190.62 1608.80   1
  -8   7   5 6592.74 1627.09   2
  -8   1   5 8966.16 1817.82   2
  -7  -1  -5 8545.81 1768.35   2
  -8   7   5 8386.37 1775.53   1
  -1   8  -3 2318.64 974.968   1
  -7  -1  -3 3105.64 1057.56   2
   7  -8   3 2608.45 1014.58   1
  -8   7   3 1641.89 725.901   1
   8  -7  -3 1430.08 803.981   1
  -8   1   3 3568.50 1007.89   2
  -8   1   3 1935.86 467.577   1
  -7   8  -3 2292.12 882.174   1
   1   7   3 1979.10 773.545   1
   7   1   3 1654.24 682.368   1
   8  -1  -3 1454.09 717.257   1
  -1  -7  -3 3025.22 910.238   1
   1  -8   3 1804.05 958.624   1
  -8   7   3 2749.64 1044.00   2
  -1  -7  -2 380128. 10759.4   2
   8  -7  -2 309769. 10500.7   1
   1   7   2 292437. 9926.47   1
  -8   1   2 306985. 10316.7   1
  -7  -1  -2 384289. 10706.3   1
   8  -1  -2 330365. 10688.1   1
   7   1   2 319329. 9871.72   1
  -1   8  -2 285553. 10064.2   1
  -7   8  -2 329172. 10531.3   1
  -8   7   2 347583. 10946.2   1
  -1  -7  -2 390347. 11294.3   1
   1  -8   2 480904. 12945.3   1
   7  -8   2 345557. 11002.3   1
  -8   7   2 315163. 10623.3   2
  -7  -1  -2 351915. 11056.6   2
  -8   1   2 269112. 9935.59   2
  -1  -7  -1 2218.86 814.699   2
  -8   7   1 2060.53 766.689   1
   1  -8   1 2388.04 939.887   2
   7  -8   1 1653.89 763.922   1
   8  -7  -1 1989.06 801.818   1
  -1   8  -1 1912.56 734.597   1
  -8   1   1 1767.65 787.150   1
  -7  -1  -1 2156.71 912.739   1
   8  -1  -1 1847.23 788.171   1
  -7  -1  -1 2145.22 1043.78   2
  -7   8  -1 3197.81 998.130   1
  -1  -7  -1 1995.19 852.154   1
   7   1   1 1706.10 820.111   1
  -8   7   1 2171.01 967.482   2
   1  -8   1 1990.68 848.265   1
   1   7   1 3354.60 1078.32   1
  -8   1   1 2169.88 916.485   2
  -8   7   0 264988. 9787.15   2
  -1  -7   0 266414. 9375.63   2
   1  -8   0 246499. 9450.09   2
   1   7   0 250996. 9253.22   1
  -8   7   0 246710. 8977.49   1
  -8   1   0 283285. 9698.50   1
  -7  -1   0 237987. 8711.97   1
   8  -1   0 267058. 9440.29   1
   7   1   0 279452. 9369.20   1
  -1   8   0 117792. 6562.78   1
  -1  -7   0 224014. 8715.85   1
   1  -8   0 381403. 11428.6   1
  -7   8   0 262324. 9319.51   1
   8  -7   0 257527. 9409.33   1
  -8   1   0 329533. 10515.8   2
  -7  -1   0 302130. 9966.89   2
   7  -8   0 242802. 9091.03   1
  -7  -1   1 1421.91 824.914   2
  -1  -7   1 1598.60 703.077   2
   1  -8  -1 623.274 523.772   2
   7  -8  -1 1216.15 679.803   1
   8  -7   1 1657.77 836.859   1
  -8   1  -1 1599.41 753.145   1
  -1   8   1 922.252 386.747   1
  -7  -1   1 576.124 168.118   1
  -8   7  -1 1371.64 569.996   1
   8  -1   1 862.584 572.542   1
  -8   1  -1 1358.80 792.634   2
   7   1  -1 687.627 496.929   1
  -1  -7   1 1164.46 536.580   1
  -8   7  -1 1329.48 617.125   2
   1   7  -1 1233.14 522.512   1
   1  -8  -1 718.831 280.694   1
  -7   8   1 917.091 718.176   1
  -7  -1   2 507512. 13265.0   2
  -1  -7   2 527288. 13589.2   2
   1   7  -2 438750. 12372.1   1
  -8   1  -2 411226. 11434.2   1
   8  -1   2 456966. 12276.5   1
  -7  -1   2 488861. 12595.2   1
  -7   8   2 461100. 12265.7   1
  -8   7  -2 468234. 13189.4   2
   7   1  -2 397131. 11557.1   1
  -1   8   2 516555. 13379.2   1
  -1  -7   2 356005. 11090.1   1
   1  -8  -2 430564. 11988.9   1
  -8   1  -2 485512. 13220.3   2
  -8   7  -2 476819. 12494.5   1
   7  -8  -2 441153. 12344.3   1
   8  -7   2 462298. 12653.6   1
  -8   7  -3 10772.0 1928.31   1
   1   7  -3 12653.8 2094.92   1
  -1  -7   3 6598.22 1528.68   2
  -8   1  -3 12063.3 1880.95   1
   8  -1   3 10568.0 1781.16   1
   7  -8  -3 10080.8 1891.01   1
  -7   8   3 8316.19 1662.56   1
  -7  -1   3 12026.6 2136.68   2
  -7  -1   3 10993.6 1863.43   1
   7   1  -3 10982.8 1950.44   1
  -1   8   3 10434.4 1920.50   1
  -1  -7   3 14484.4 2154.54   1
   1  -8  -3 13340.2 2097.45   1
   8  -7   3 11048.5 1998.28   1
  -8   1  -3 9809.81 1912.70   2
  -8   7  -3 12282.8 2105.45   2
   1   7  -4 895722. 17788.1   1
  -8   7  -4 937283. 17980.6   1
  -8   7  -4 818998. 17654.8   2
   7  -8  -4 862201. 17641.0   1
  -7  -1   5 3124.30 1100.27   2
  -1  -7   5 3517.01 1208.88   2
   8  -7   5 2754.17 945.673   1
   7  -8  -5 3596.98 1113.08   1
  -7  -1   5 1733.03 659.712   1
  -1   8   5 2911.52 1002.00   1
  -8   7  -5 3875.25 1184.07   1
  -7   8   5 2287.78 820.890   1
   1   7  -5 3493.86 1105.17   1
  -1  -7   5 2361.00 840.054   1
   1  -8  -5 3352.07 976.220   1
   7   1  -5 1259.41 695.636   1
  -8   1  -5 3095.54 1080.73   2
   1   7  -6 44006.4 3974.93   1
  -1  -7   6 47478.1 4198.89   2
  -7   8   6 47152.1 4179.88   1
   8  -7   6 51172.4 4298.27   1
  -7  -1   6 49472.1 4275.02   1
  -8   7  -6 55171.4 4446.20   1
   7   1  -6 47645.1 4076.65   1
  -1  -7   6 52161.1 4356.19   1
  -8   1  -6 38679.6 3704.62   2
  -7  -1   6 53189.2 4556.17   2
   7  -8  -6 42484.3 3942.18   1
  -1  -7   7 8771.34 1925.00   2
  -8   7  -7 6161.26 1357.26   1
   7  -8  -7 5815.89 1593.43   1
  -7  -1   7 8339.56 1832.10   1
  -7  -1   7 7612.64 1747.10   2
   1   7  -7 6375.52 1528.84   1
  -1  -7   7 8943.16 1767.63   1
   8  -7   7 7834.41 1717.73   1
  -8   1  -7 8019.58 1791.60   2
   7   1  -7 6149.57 1537.57   1
  -7   8   7 6400.72 1561.02   1
  -8   7  -8 527541. 14058.4   1
  -1  -7   8 617793. 16124.7   2
  -7  -1   8 529671. 14913.7   2
  -7  -1   8 565889. 14900.3   1
  -7   8   8 500933. 13981.8   1
   7   1  -8 547976. 14356.9   1
  -1  -7   8 544604. 14292.5   1
  -8   1  -8 641928. 16104.2   2
   8  -7   8 545460. 14587.6   1
   7  -8  -8 659014. 16177.5   1
   1   7  -8 514197. 14107.7   1
   8  -7   9 4452.38 1390.52   1
  -7  -1   9 3826.43 1194.29   2
   7   1  -9 4840.96 1229.97   1
  -8   1  -9 3965.43 1239.73   2
   7  -8  -9 9064.39 1824.51   1
  -7   8   9 5262.85 1467.98   1
  -8   7  -9 5765.07 1463.93   1
  -7  -1   9 3635.69 1206.84   1
   1   7  -9 4523.54 1248.73   1
  -1  -7   9 4914.25 1197.90   1
  -1  -7   9 5726.86 1532.51   2
  -7  -1  10 14844.4 2421.21   2
  -1  -7  10 13211.0 2463.20   2
  -8   7 -10 11770.9 2129.72   1
   8  -7  10 11915.1 2213.33   1
  -7  -1  10 15677.4 2466.58   1
  -7   8  10 8114.31 1813.32   1
   7   1 -10 15234.1 2361.09   1
   1   7 -10 10402.4 1944.41   1
  -1  -7  10 11244.5 2055.52   1
  -8   1 -10 12517.0 2435.40   2
   7  -8 -10 12722.5 2319.15   1
  -7  -1  11-83.4769 153.806   2
  -1  -7  11-1.28088 184.202   2
   7  -8 -11 2.51200 119.195   1
  -8   1 -11-524.915 554.191   2
  -7  -1  11-56.4430 163.557   1
   1   7 -11 6.77406 68.3883   1
  -7   8  11-161.254 170.243   1
  -1  -7  11 593.399 621.467   1
   7   1 -11 80.4567 499.719   1
   7  -8 -12 134353. 7879.74   1
  -1  -7  12 193656. 9419.30   2
  -7  -1  12 190247. 8958.26   1
  -1  -7  12 168234. 8364.18   1
  -7   8  12 161407. 8601.60   1
   7   1 -12 173831. 8457.44   1
   1   7 -12 167264. 8318.47   1
  -7  -1  12 191203. 9551.47   2
   1   7 -13 369.977 151.602   1
  -7  -1  13 793.092 551.253   1
  -7   8  13-79.6563 274.009   1
  -7  -1  13 266.207 315.017   2
  -1  -7  13-95.8414 395.662   1
   7   1 -13 951.896 662.208   1
  -7  -1  14 3855.02 1505.42   2
  -1  -7  14 4492.79 1464.30   2
   1   7 -14 4754.34 1389.17   1
  -7  -1  14 5640.35 1511.96   1
  -1  -7  14 3099.45 1200.66   1
   7   1 -14 4236.53 1445.13   1
  -7  -1  15 1459.09 525.249   2
  -1  -7  15 2793.58 1207.59   2
   1   7 -15 2719.35 1148.97   1
  -7  -1  15 3693.61 1185.23   1
  -1  -7  15 2378.08 1008.33   1
   7   1 -15 4959.21 1504.28   1
  -7  -1  16 167411. 9591.26   2
   0  -8   0 20558.2 2709.49   2
  -8   0   0 19508.4 2575.05   1
   0   8   0 21144.3 2784.32   1
  -8   0   0 17549.3 2488.65   2
   8   0   0 19115.6 2529.01   1
   0  -8   0 24993.9 2949.08   1
  -8   8   0 19590.7 2651.45   2
  -8   8   0 17594.3 2408.70   1
   8  -8   0 18122.7 2528.79   1
   0  -8  -1 201501. 8313.16   2
   0  -8   1 174299. 7979.66   2
   0   8  -1 166752. 7932.97   1
  -8   0  -1 197671. 8191.31   1
  -8   0   1 173980. 7870.55   1
   0   8   1 219465. 8887.55   1
   8   0   1 182039. 7905.05   1
   8   0  -1 166108. 7853.84   1
   8  -8   1 148362. 7433.96   1
   0  -8   1 134473. 6932.43   1
   0  -8  -1 156935. 7508.21   1
  -8   8  -1 172706. 7592.11   1
  -8   8   1 184088. 8319.09   2
  -8   0  -1 169191. 7741.13   2
  -8   0   1 187218. 8297.53   2
   8  -8  -1 178857. 8120.35   1
  -8   8   1 198143. 8345.28   1
  -8   8   2 304390. 10367.5   1
   0  -8   2 322878. 11113.1   2
   0   8  -2 324644. 10963.3   1
  -8   0  -2 327371. 10469.0   1
  -8   0   2 355044. 11295.8   1
   0   8   2 304509. 10529.1   1
   8   0   2 345503. 10753.9   1
  -8   0  -2 316339. 10993.0   2
   8   0  -2 324061. 10731.3   1
   0  -8   2 264492. 9905.81   1
   0  -8  -2 280892. 10030.8   1
  -8   8  -2 314840. 10501.6   1
  -8   8   2 336921. 11375.4   2
   8  -8   2 302387. 10437.0   1
  -8   0   2 289778. 10313.0   2
   8  -8  -2 285566. 10385.7   1
   0  -8   3 74471.1 5509.04   2
  -8   8   3 65412.9 4900.84   1
   0   8  -3 79112.2 5347.20   1
  -8   0   3 73874.2 5168.32   1
   0   8   3 86379.9 5570.34   1
   8   0  -3 74050.8 5090.27   1
  -8   8  -3 67594.2 4999.36   1
   0  -8   3 71173.9 5201.21   1
   0  -8  -3 70699.4 5060.53   1
  -8   0  -3 85964.2 5628.63   2
  -8   0   3 68555.7 5066.78   2
   8  -8   3 71963.2 5139.96   1
  -8   8   3 82791.4 5591.73   2
   8  -8  -3 73581.3 5269.37   1
   0  -8   4 30759.2 3562.96   2
   0   8  -4 26725.6 3215.69   1
  -8   8   4 29949.1 3437.13   2
  -8   8   4 27987.8 3086.70   1
  -8   0   4 27102.5 3181.90   1
   0   8   4 33242.8 3416.05   1
  -8   8  -4 27508.0 3211.20   1
   8   0  -4 23745.9 2886.48   1
   8  -8   4 30086.1 3332.67   1
   0  -8   4 30475.6 3396.36   1
   0  -8  -4 38162.6 3616.98   1
  -8   0  -4 26640.5 3099.80   2
  -8   0   4 25954.3 3069.76   2
   8  -8  -4 25859.8 3100.86   1
   0  -8   5 145092. 7725.63   2
   0   8  -5 126698. 7060.60   1
  -8   8  -5 117794. 6726.75   1
  -8   0   5 130513. 6891.71   1
  -8   8   5 144106. 7427.56   1
   8   0  -5 131991. 6818.45   1
   0  -8   5 157467. 7651.57   1
  -8   8   5 150962. 7508.51   2
  -8   0   5 117305. 6624.07   2
  -8   0  -5 127939. 6995.64   2
   8  -8   5 143544. 7389.96   1
   8  -8  -5 88612.3 5901.43   1
   0  -8   6 378742. 12774.6   2
   0   8  -6 367424. 12004.0   1
  -8   8  -6 402604. 12378.3   1
  -8   0   6 354612. 11646.5   1
   8   0  -6 378139. 11836.5   1
  -8   8   6 401193. 12169.8   1
   0  -8   6 385970. 12278.5   1
   8  -8   6 410308. 12756.7   1
  -8   0   6 354584. 11796.1   2
   8  -8  -6 375846. 12189.7   1
  -8   0  -6 382544. 11934.0   2
   8  -8  -7 96938.0 6282.52   1
  -8   8  -7 114920. 6596.23   1
   0  -8   7 130404. 7616.13   2
   0   8  -7 81875.8 5509.12   1
  -8   0  -7 116833. 6749.76   2
  -8   0   7 96981.5 6217.81   1
   8   0  -7 106331. 6214.88   1
  -8   8   7 101650. 6320.72   1
   0  -8   7 92768.6 5991.67   1
   8  -8   7 89356.3 5987.14   1
  -8   0   7 99643.5 6385.90   2
   0   8  -8 40729.1 3899.13   1
   0  -8   8 34948.9 3998.76   2
   8  -8  -8 49353.5 4579.04   1
  -8   0   8 36494.5 3789.28   1
   8   0  -8 31066.0 3481.86   1
   0  -8   8 40079.6 3868.88   1
  -8   8   8 45785.3 4267.56   1
  -8   0   8 41981.0 4177.11   2
   8  -8   8 41390.3 4043.95   1
  -8   0  -8 47008.1 4399.12   2
  -8   8  -8 38885.9 3996.29   1
   0   8  -9 16975.9 2614.81   1
   0  -8   9 16381.6 2729.69   2
  -8   0   9 22242.0 2970.55   1
   8   0  -9 19188.7 2694.49   1
   0  -8   9 18018.4 2693.27   1
   8  -8  -9 17480.3 2778.22   1
  -8   8   9 19383.8 2836.99   1
   8  -8   9 20332.6 2871.99   1
  -8   0  -9 19268.9 2869.75   2
  -8   8  -9 20512.5 2922.68   1
  -8   0   9 19352.2 2889.94   2
   0   8 -10 121981. 7040.06   1
   8  -8 -10 110678. 6919.35   1
   0  -8  10 119656. 7398.60   2
  -8   0  10 148923. 7759.63   1
   8   0 -10 161775. 7853.72   1
   0  -8  10 127171. 7184.74   1
  -8   8  10 110142. 6810.77   1
   8  -8  10 125392. 7337.49   1
  -8   0  10 97488.4 6685.17   2
  -8   8 -10 102792. 6793.05   1
   8  -8 -11 116659. 7177.03   1
   0  -8  11 106329. 7079.68   2
  -8   0  11 85164.8 5927.55   1
   8   0 -11 93334.1 6134.70   1
   0  -8  11 87910.4 5996.49   1
   8  -8  11 88237.6 6221.47   1
  -8   8  11 78719.7 5893.57   1
  -8   0  11 84439.1 6263.53   2
   0   8 -11 78957.5 5691.20   1
   8  -8 -12 15408.4 2594.47   1
   0  -8  12 12294.2 2337.42   2
  -8   8  12 11310.0 2362.49   1
  -8   0  12 14078.9 2442.64   1
   8   0 -12 13474.2 2326.13   1
   0  -8  12 13350.3 2267.84   1
   0   8 -12 18350.7 2791.51   1
  -8   0  12 14315.2 2652.36   2
   8  -8 -13 74283.0 5947.96   1
   0  -8  13 94253.1 6736.24   2
  -8   0  13 88257.0 6160.91   1
   8   0 -13 74431.5 5695.56   1
   0  -8  13 90674.0 6350.31   1
  -8   8  13 78052.3 6066.44   1
  -8   0  13 85041.2 6485.89   2
   0   8 -13 85177.3 6079.70   1
   0  -8  14 103784. 7203.41   2
  -8   0  14 114869. 7175.58   1
   8   0 -14 115989. 7053.02   1
   0  -8  14 119320. 7330.61   1
   0   8 -14 123615. 7399.74   1
  -8   0  14 100316. 7181.44   2
  -8   0  15 14674.7 2885.80   2
   4  -9  16 2155.77 1162.88   1
  -4   9 -15 19273.1 3052.34   1
  -5   9 -15 23137.5 3490.57   1
   9  -5 -15 26744.9 3588.22   1
  -9   5  15 23771.3 3377.68   1
  -9   4  15 25492.7 3420.38   1
   9  -4 -15 28627.4 3772.72   1
   4  -9  15 21614.5 3143.11   1
   5  -9  15 23849.2 3418.55   1
  -4   9 -14 212353. 10065.6   1
  -9   5  14 249363. 10767.6   1
   9  -5 -14 299398. 11725.3   1
  -5   9 -14 212327. 9993.26   1
  -9   4  14 299899. 11901.9   1
   9  -4 -14 231022. 10457.2   1
   4  -9  14 272199. 11229.7   1
   5  -9  14 243382. 10822.7   1
  -4   9 -13 99706.8 6753.83   1
  -9   5  13 99147.2 6747.07   1
   9  -5 -13 114363. 7143.78   1
  -9   4  13 117842. 7247.99   1
   9  -4 -13 113480. 7262.34   1
  -5   9 -13 90667.1 6564.92   1
   4  -9  13 82316.9 6172.92   1
   5  -9  13 88236.9 6345.44   1
  -9   5  12 41896.2 4314.50   1
   9  -5 -12 53231.4 4800.89   1
  -9   4  12 51419.0 4826.20   1
  -4   9 -12 49869.9 4743.16   1
   9  -4 -12 57965.2 5060.38   1
  -5   9 -12 43553.6 4409.12   1
   4  -9  12 47154.6 4552.16   1
   5  -9  12 52224.2 4814.27   1
  -9   5  11 140965. 7807.98   1
   9  -5 -11 193484. 9018.60   1
  -9   4  11 184870. 8891.14   1
   9  -4 -11 126247. 7584.21   1
  -4   9 -11 163268. 8387.25   1
  -5   9 -11 161547. 8315.72   1
   4  -9  11 166928. 8468.63   1
   5  -9  11 169440. 8513.10   1
  -9   4  11 165571. 8775.75   2
  -9   5  10 203007. 9225.36   1
   9  -5 -10 279754. 10660.1   1
  -9   4  10 222077. 9742.34   1
   9  -4 -10 229846. 9810.86   1
  -4   9 -10 208321. 9292.67   1
  -9   4  10 219681. 9784.35   2
  -5   9 -10 251461. 10273.8   1
   4  -9  10 224040. 9696.24   1
   5  -9  10 203359. 9241.19   1
  -9   5  10 254364. 10514.7   2
  -9   5   9 43421.0 4169.97   1
   9  -5  -9 41229.4 4020.73   1
  -9   4   9 36709.5 3874.31   1
   9  -4  -9 35187.6 3812.08   1
  -4   9  -9 40800.6 4033.72   1
  -5   9  -9 33331.9 3666.14   1
   4  -9   9 35373.0 3786.55   1
   5  -9   9 31679.0 3640.47   1
  -9   5   9 44228.9 4335.08   2
  -9   4   9 39769.0 4077.06   2
   4  -9   8 9314.19 1863.85   1
  -9   5   8 9686.24 1915.76   1
  -9   4   8 9044.06 1865.40   1
  -4   9  -8 9832.94 1950.31   1
   9  -5  -8 8201.37 1878.26   1
  -5   9  -8 6793.50 1483.20   1
   9  -4  -8 11512.7 2086.57   1
  -9   5   8 11038.1 2102.73   2
   5  -9   8 6580.44 1662.75   1
  -9   4   8 8622.26 1935.10   2
  -9   5   7 6601.17 1584.89   1
  -9   4   7 7945.60 1759.65   1
   4  -9   7 5863.21 1436.32   1
  -4   9  -7 6832.82 1544.64   1
   9  -5  -7 7291.52 1629.72   1
   9  -4  -7 8778.73 1877.93   1
  -5   9  -7 6189.68 1555.78   1
   5  -9   7 7098.00 1688.74   1
  -9   5   7 6303.72 1619.39   2
  -9   4   7 6162.18 1583.12   2
   9  -5  -6 55007.1 4559.69   1
  -9   5   6 75507.7 5366.24   1
  -9   4   6 74096.8 5300.48   1
   9  -4  -6 72045.3 5339.02   1
  -9   5   6 71624.5 5311.81   2
  -4   9  -6 69924.1 5148.58   1
   4  -9   6 71538.9 5263.72   1
  -5   9  -6 68767.2 5051.87   1
   5  -9   6 63149.2 4869.05   1
  -9   4   6 73877.2 5322.58   2
   9  -5  -5 77090.7 5385.35   1
  -9   5   5 87413.5 5710.37   1
  -9   4   5 81844.1 5558.43   1
   9  -4  -5 84751.7 5725.89   1
   4  -9   5 88539.2 5631.61   1
  -5   9  -5 74869.6 5272.31   1
   5  -9   5 83793.0 5435.56   1
  -9   5   5 90053.9 5838.33   2
  -9   4   5 76829.4 5448.37   2
  -5  -4  -5 89423.4 5552.60   2
   9  -5  -4 34694.2 3474.48   1
  -9   5   4 34386.9 3520.29   1
  -9   4   4 36559.6 3574.07   1
   9  -4  -4 33806.6 3546.96   1
  -4  -5  -4 33301.5 3261.45   2
  -4   9  -4 30949.7 3479.64   1
   4  -9   4 34585.5 3554.13   1
  -5   9  -4 31491.4 3420.42   1
  -9   5   4 34315.9 3546.34   2
  -5  -4  -4 31414.3 3246.89   2
   5  -9   4 31755.5 3435.00   1
  -9   4   4 38012.5 3708.90   2
   9  -5  -3 103704. 6248.91   1
  -9   5   3 104839. 6191.79   1
  -9   4   3 101536. 6119.96   1
   9  -4  -3 102217. 6054.21   1
  -9   5   3 94400.8 5891.17   2
  -4   9  -3 97344.0 5914.98   1
   4  -9   3 116913. 6486.95   1
  -9   4   3 103987. 6215.77   2
  -5   9  -3 108067. 6246.30   1
  -5  -4  -3 109035. 6166.46   2
  -4  -5  -3 78495.2 5235.31   2
   5  -9   3 110524. 6291.20   1
   9  -5  -2 769342. 16733.6   1
  -9   5   2 788185. 16763.7   1
  -9   4   2 821543. 17234.6   1
  -9   5   2 774861. 16545.8   2
  -9   4   2 817808. 17291.6   2
   4  -9   2 711116. 16049.7   1
  -5   9  -2 815635. 17176.7   1
  -4   9  -2 746036. 16522.5   1
   9  -5  -1 140855. 7165.21   1
  -4  -5  -1 166111. 7647.96   2
  -5  -4  -1 150279. 7357.18   2
  -4   9  -1 173049. 7901.48   1
  -9   5   1 140187. 7027.36   1
   9  -4  -1 124072. 6633.70   1
  -9   4   1 147436. 7276.49   1
  -5  -4  -1 150250. 6981.19   1
  -4  -5  -1 154883. 7132.35   1
   5   4   1 132119. 6566.44   1
  -9   5   1 140683. 7130.78   2
   4  -9   1 142355. 7140.84   1
   4   5   1 145469. 6855.41   1
  -9   4   1 128746. 6779.42   2
   5  -9   1 161901. 7511.42   1
  -5   9  -1 145964. 7204.53   1
  -5   9   0 36363.3 3609.43   1
   9  -5   0 37663.4 3692.46   1
   9  -4   0 40098.1 3809.82   1
   4   5   0 40205.1 3637.20   1
  -9   5   0 39631.4 3722.79   1
  -4   9   0 44094.1 4007.55   1
  -9   4   0 45812.8 3924.55   1
  -5  -4   0 39831.7 3713.06   1
  -4  -5   0 40357.3 3682.51   1
   5   4   0 38160.7 3616.74   1
   4  -9   0 34938.8 3576.48   1
  -9   5   0 43962.3 3917.48   2
  -9   4   0 40407.9 3721.57   2
  -5  -4   0 30497.7 3324.97   2
  -4  -5   0 41834.5 3895.73   2
   4  -9  -1 306431. 10607.7   1
   9  -5   1 346115. 11204.0   1
  -5   9   1 288377. 10087.1   1
   9  -4   1 405401. 12085.1   1
  -9   4  -1 340801. 10846.3   1
  -9   4  -1 376187. 11639.6   2
  -5  -4   1 317613. 10760.8   1
  -4  -5   1 308218. 10315.2   1
   5   4  -1 340121. 10878.4   1
   4   5  -1 358747. 11181.6   1
  -9   5  -1 350599. 11416.4   2
  -4   9   1 377739. 11679.3   1
  -5  -4   1 326197. 10996.7   2
  -4  -5   1 353019. 11338.6   2
   5  -9  -2 456380. 12917.2   1
   9  -5   2 497586. 13234.9   1
   4  -9  -2 503067. 13503.0   1
   9  -4   2 407481. 12110.6   1
  -5   9   2 469215. 12913.0   1
  -9   4  -2 490548. 13027.4   1
  -5  -4   2 496273. 13384.8   1
  -4  -5   2 520648. 13515.6   1
   5   4  -2 471987. 12754.7   1
  -9   4  -2 498086. 13521.2   2
  -9   5  -2 424621. 12670.2   2
   4   5  -2 479017. 12990.9   1
  -9   5  -2 467286. 12798.1   1
  -5  -4   2 586117. 14432.6   2
  -4   9   2 553718. 14118.5   1
  -4  -5   2 369693. 11819.6   2
   9  -4   3 202024. 8375.64   1
  -9   5  -3 226859. 9183.09   2
  -9   4  -3 232520. 9005.73   1
  -5   9   3 234196. 9206.31   1
   9  -5   3 208862. 8748.75   1
  -5  -4   3 271819. 9931.95   1
  -4  -5   3 210341. 8660.88   1
  -9   5  -3 221872. 8835.37   1
   5   4  -3 203880. 8591.49   1
  -9   4  -3 192324. 8505.46   2
   4  -9  -3 197608. 8502.93   1
   4   5  -3 216521. 8791.43   1
   5  -9  -3 201616. 8649.02   1
  -5  -4   3 227934. 9146.05   2
  -4  -5   3 163519. 7946.61   2
  -4   9   3 180667. 8082.60   1
  -4   9   4 36764.4 3681.88   1
   9  -4   4 51150.4 4279.40   1
  -5   9   4 46055.2 4123.70   1
  -9   5  -4 48962.4 4059.18   1
  -5  -4   4 39570.4 3912.52   1
  -4  -5   4 38675.3 3857.92   1
   5   4  -4 47014.2 4138.12   1
  -9   4  -4 49088.4 4110.84   1
  -9   4  -4 44499.1 4125.35   2
   4  -9  -4 42202.3 3942.10   1
   5  -9  -4 57198.3 4499.74   1
  -9   5  -4 43261.0 4132.75   2
   4   5  -4 47182.7 4149.43   1
  -5  -4   4 61821.5 4827.88   2
   9  -5   4 54304.9 4407.49   1
  -4  -5   4 46825.3 4087.14   2
   9  -4   5 28977.1 3134.52   1
  -9   5  -5 29748.4 3129.01   1
  -4   9   5 26534.3 3145.31   1
  -5   9   5 25892.9 3163.66   1
  -9   4  -5 24163.2 2807.25   1
  -5  -4   5 23477.5 3020.57   1
  -9   4  -5 27605.2 3211.29   2
  -4  -5   5 25409.6 3081.51   1
   5  -9  -5 36983.3 3669.87   1
   5   4  -5 26252.4 3103.17   1
  -9   5  -5 25145.3 3021.06   2
   4  -9  -5 27396.1 3124.27   1
   4   5  -5 30451.6 3158.02   1
   9  -5   5 22610.4 2857.99   1
  -5  -4   5 20837.5 2881.57   2
  -4  -5   5 25623.3 3160.12   2
  -9   4  -6 92318.2 6116.20   2
  -4   9   6 129842. 7015.64   1
  -9   5  -6 130977. 7109.21   2
  -5   9   6 83805.2 5763.26   1
   4  -9  -6 89183.0 5798.17   1
  -5  -4   6 95647.2 6166.86   1
  -4  -5   6 94194.2 5966.70   1
   9  -4   6 114209. 6383.51   1
   5   4  -6 108721. 6309.73   1
   4   5  -6 113554. 6555.41   1
   5  -9  -6 122899. 6828.95   1
  -9   5  -6 124998. 6526.73   1
   9  -5   6 106594. 6119.33   1
  -5  -4   6 115793. 6865.32   2
  -4  -5   6 103549. 6377.69   2
   4  -9  -7 7350.23 1663.13   1
  -5  -4   7 8676.92 1824.07   2
  -4  -5   7 8315.51 1876.56   2
  -4   9   7 10551.8 2053.11   1
   5   4  -7 10131.2 2014.18   1
   4   5  -7 8936.30 1808.45   1
  -5   9   7 7618.00 1846.80   1
  -5  -4   7 8346.89 1771.63   1
  -4  -5   7 7722.19 1771.13   1
   9  -5   7 8972.74 1854.56   1
  -9   5  -7 7870.44 1768.75   2
  -9   4  -7 8863.44 1833.96   2
   5  -9  -7 15492.8 2372.47   1
  -9   4  -8 7165.76 1825.11   2
   4  -9  -8 4699.72 1386.46   1
  -5  -4   8 2833.31 1061.58   2
  -4  -5   8 5297.26 1525.21   2
   5  -9  -8 6216.69 1611.13   1
  -4   9   8 6626.19 1571.14   1
   4   5  -8 4543.83 1266.80   1
  -5   9   8 6834.66 1736.44   1
  -5  -4   8 3360.24 1158.41   1
  -4  -5   8 4112.28 1312.71   1
   5   4  -8 5673.67 1456.42   1
  -9   5  -8 3697.37 1253.78   2
  -4  -5   9 26520.7 3308.94   2
  -5  -4   9 28027.3 3361.08   1
  -5  -4   9 24707.0 3163.17   2
  -4  -5   9 29611.2 3405.34   1
  -5   9   9 22957.3 3105.13   1
   4   5  -9 24939.5 3124.27   1
   5   4  -9 24928.7 3155.73   1
  -9   4  -9 27697.8 3392.57   2
  -9   5  -9 26372.3 3416.34   2
   5  -9  -9 23250.5 3061.07   1
  -4  -5  10 224287. 9799.68   2
  -5  -4  10 296125. 11366.3   2
  -5  -4  10 274694. 10672.0   1
  -4  -5  10 235258. 9924.54   1
   5   4 -10 229402. 9617.13   1
  -9   5 -10 178115. 8762.46   2
  -9   4 -10 228945. 10014.0   2
   4   5 -10 256274. 10133.7   1
  -4  -5  11 142455. 7911.58   2
   4   5 -11 126745. 7171.50   1
  -5  -4  11 131615. 7495.81   1
  -4  -5  11 143524. 7878.19   1
  -5  -4  11 155108. 8330.58   2
   5   4 -11 141984. 7626.26   1
  -9   4 -11 131662. 7726.56   2
  -4  -5  12 38959.3 4110.14   2
  -5  -4  12 41117.6 4185.10   1
  -4  -5  12 43239.0 4210.58   1
   5   4 -12 38575.5 4058.73   1
   4   5 -12 48377.8 4381.32   1
  -5  -4  12 39409.6 4247.11   2
  -4  -5  13 158368. 8512.21   2
  -5  -4  13 152747. 8149.14   1
  -4  -5  13 138564. 7812.13   1
   5   4 -13 154635. 8116.80   1
   4   5 -13 158010. 8300.79   1
  -4  -5  14 224755. 10235.3   2
  -5  -4  14 230096. 10133.8   1
  -4  -5  14 264125. 10872.8   1
   5   4 -14 254477. 10381.7   1
   4   5 -14 225878. 10021.9   1
  -5  -4  14 246969. 10793.1   2
  -4  -5  15 25271.2 3499.49   2
  -5  -4  15 24268.4 3355.59   1
  -4  -5  15 23348.5 3187.97   1
   5   4 -15 24852.5 3333.71   1
   4   5 -15 27746.9 3515.55   1
  -5  -4  15 29322.7 3848.15   2
  -9   6  15 2622.92 1148.28   1
  -9   3  15 1055.13 850.172   1
   9  -6 -15 1705.48 970.927   1
   9  -3 -15 2295.14 1016.95   1
  -3   9 -15 1025.06 722.404   1
   3  -9  15 1749.48 951.353   1
  -3   9 -14 28943.9 3613.72   1
   9  -6 -14 28315.2 3848.94   1
  -9   6  14 23102.6 3369.81   1
  -9   3  14 31704.3 3834.69   1
  -6   9 -14 23966.6 3492.63   1
   9  -3 -14 37516.9 4101.72   1
   3  -9  14 26622.6 3480.11   1
   6  -9  14 26744.6 3531.25   1
  -6   9 -13 2.66508 394.681   1
   6  -9  13 23.8531 121.012   1
  -9   6  13 45.0140 225.536   1
  -9   3  13 5.14442 495.501   1
   9  -6 -13 613.627 716.322   1
   9  -3 -13 795.525 732.414   1
  -3   9 -13-556.724 590.866   1
   3  -9  13-398.058 629.997   1
   9  -6 -12 304958. 11820.6   1
  -3   9 -12 273675. 11150.7   1
  -9   6  12 242374. 10569.6   1
  -9   3  12 278537. 11113.2   1
   9  -3 -12 264501. 10680.7   1
  -6   9 -12 264464. 10940.8   1
   3  -9  12 286221. 11148.4   1
   6  -9  12 222149. 10080.0   1
  -9   3  12 267483. 11328.9   2
  -9   6  11 412.298 356.812   1
  -9   3  11 1174.64 552.919   1
  -6   9 -11 791.487 671.205   1
   9  -6 -11 1399.78 819.875   1
   6  -9  11 853.954 626.431   1
   9  -3 -11 390.709 386.579   1
   3  -9  11 251.709 313.222   1
  -3   9 -11 969.055 818.629   1
  -9   3  11 245.106 493.821   2
   9  -6 -10 55366.2 4750.24   1
  -9   6  10 43536.4 4322.88   1
  -9   3  10 47149.9 4348.99   1
  -3   9 -10 43363.6 4329.18   1
   9  -3 -10 45864.3 4378.80   1
  -6   9 -10 48843.8 4620.30   1
   3  -9  10 38934.5 4040.25   1
   6  -9  10 43680.1 4293.27   1
  -9   3  10 44073.2 4480.15   2
  -9   6   9 15377.1 2424.08   1
  -9   3   9 16318.3 2395.72   1
  -3   9  -9 13617.4 2400.11   1
   9  -6  -9 11947.5 2312.89   1
  -6   9  -9 12087.3 2271.53   1
   3  -9   9 14891.2 2425.49   1
   9  -3  -9 13633.2 2230.15   1
   6  -9   9 13590.9 2289.67   1
  -9   3   9 14059.0 2512.19   2
   9  -6  -8 397124. 12652.9   1
  -9   6   8 422254. 12953.6   1
  -9   3   8 370097. 12289.5   1
   9  -3  -8 327898. 11403.8   1
  -3   9  -8 419177. 12853.3   1
   3  -9   8 342326. 11811.6   1
  -6   9  -8 429083. 13241.6   1
   6  -9   8 393263. 12533.3   1
  -9   6   8 403959. 12889.1   2
  -9   3   8 413532. 13144.9   2
  -9   3   7 3294.90 1151.57   2
  -3   9  -7 3263.41 1019.54   1
  -9   6   7 2664.30 952.168   1
  -9   3   7 4710.82 1355.69   1
   9  -6  -7 4097.01 1271.78   1
   9  -3  -7 2423.46 915.184   1
   3  -9   7 3189.88 1051.68   1
  -9   6   7 3699.58 1157.91   2
  -6   9  -7 4084.35 1375.11   1
   6  -9   7 3536.96 1186.32   1
  -9   6   6 2713.28 1111.03   1
  -3   9  -6 1394.68 573.929   1
  -9   3   6 2425.39 1007.61   1
   9  -6  -6 1368.44 721.579   1
  -6   9  -6 2151.17 829.801   1
   9  -3  -6 1676.52 995.629   1
   3  -9   6 1928.35 832.659   1
  -9   6   6 2259.46 874.864   2
  -6  -3  -6 2437.37 837.291   2
   6  -9   6 2295.16 1062.14   1
  -9   3   6 1531.12 697.586   2
  -9   6   5 28672.3 3332.37   2
   9  -6  -5 30514.4 3320.11   1
  -9   6   5 31544.0 3322.21   1
  -9   3   5 33248.1 3444.61   1
  -6  -3  -5 30763.1 3331.73   2
   9  -3  -5 32611.4 3481.23   1
  -3   9  -5 24310.8 3088.40   1
   3  -9   5 26020.0 3169.47   1
   6  -9   5 28109.7 3216.40   1
  -9   3   5 29632.4 3361.65   2
  -6   9  -5 34443.2 3535.56   1
   9  -6  -4 636431. 15558.4   1
  -9   6   4 685715. 15867.9   1
  -9   3   4 696890. 16186.5   1
   9  -3  -4 656006. 15828.8   1
  -3   9  -4 766201. 16818.7   1
   6  -9   4 636946. 15526.0   1
  -9   6   4 649337. 15977.8   2
  -9   3   4 689144. 16294.3   2
  -6  -3  -4 628479. 15091.4   2
  -6   9  -4 726550. 16384.0   1
  -3  -6  -3 773.749 694.697   2
  -9   6   3 445.346 383.662   1
   3  -9   3 175.925 210.097   1
  -9   3   3 803.539 453.180   1
   9  -6  -3 1702.32 746.591   1
   6  -9   3 35.7531 445.465   1
  -3   9  -3 1237.09 685.009   1
   9  -3  -3 1770.22 895.647   1
  -6   9  -3 2115.24 799.967   1
  -9   6   3 509.621 380.834   2
  -9   3   3 1275.76 955.360   2
  -6  -3  -3-29.1749 456.396   2
  -6  -3  -2 6035.00 1516.64   2
   6  -9   2 5437.11 1401.71   1
  -3  -6  -2 3457.85 1168.26   2
  -9   6   2 7264.75 1509.68   1
  -9   3   2 6634.72 1582.95   1
   9  -6  -2 6469.91 1465.44   1
   3   6   2 4535.38 1183.27   1
   9  -3  -2 5351.21 1409.10   1
  -3   9  -2 4832.04 1316.84   1
  -3  -6  -2 6304.01 1365.21   1
   6   3   2 5851.05 1347.44   1
  -9   6   2 5632.31 1395.15   2
   3  -9   2 6331.57 1508.30   1
  -6   9  -2 6152.68 1509.72   1
  -9   3   2 7174.90 1563.93   2
  -6  -3  -1 909.240 387.299   2
  -3  -6  -1 31.4013 126.830   2
  -6   9  -1 118.474 347.467   1
  -9   3   1 1088.96 777.881   1
   9  -6  -1-210.022 611.885   1
   3   6   1 466.088 549.449   1
  -6  -3  -1 481.051 272.960   1
   9  -3  -1 893.048 714.693   1
  -3  -6  -1-108.096 30.2608   1
  -3   9  -1-261.171 423.209   1
  -9   6   1 136.894 389.343   2
   3  -9   1-216.177 404.110   1
  -9   3   1 79.9666 260.670   2
   6   3   1 195.923 213.486   1
  -9   6   1 968.764 721.897   1
   9  -6   0 750373. 16430.5   1
   9  -3   0 821138. 16992.2   1
  -6   9   0 877187. 17665.3   1
  -9   6   0 860751. 18270.8   2
  -3   9   0 944540. 18649.0   1
  -9   3   0 803418. 16925.4   1
   6  -9   0 898331. 18265.7   1
  -9   3   0 765233. 16924.0   2
  -9   6   0 755550. 16464.4   1
  -6  -3   0 777134. 16921.5   2
  -3  -6   0 902146. 18141.2   2
   6   3  -1 3104.84 1101.28   1
  -6  -3   1 4389.44 1361.82   2
   6  -9  -1 1878.70 785.461   1
  -3  -6   1 2674.55 1005.36   2
  -9   3  -1 3557.75 1123.07   2
  -9   3  -1 3333.75 1094.22   1
   9  -6   1 3936.16 1156.04   1
  -9   6  -1 3818.85 1287.03   2
  -6   9   1 3802.35 1135.96   1
   9  -3   1 3789.65 1173.17   1
   3   6  -1 3036.95 1010.86   1
  -6  -3   1 2878.69 1013.59   1
  -3  -6   1 3497.79 1101.95   1
  -3   9   1 3342.69 1026.14   1
  -9   6  -1 3522.45 998.404   1
   3  -9  -1 1972.35 777.777   1
   9  -3   2 23947.3 2977.44   1
  -9   3  -2 24746.0 2921.57   1
  -6   9   2 19060.8 2657.39   1
  -6  -3   2 23074.4 2831.29   1
  -9   6  -2 26373.0 3010.79   1
  -3  -6   2 18586.9 2517.95   1
   6   3  -2 21695.0 2778.15   1
  -3   9   2 24705.2 3120.04   1
  -9   3  -2 16970.9 2484.92   2
   6  -9  -2 20868.1 2730.13   1
   3   6  -2 21352.3 2767.08   1
  -6  -3   2 25669.4 3085.89   2
  -9   6  -2 24432.6 2996.71   2
   9  -6   2 24107.1 2983.89   1
  -3  -6   2 22077.2 2857.50   2
  -3  -6   3 23032.6 2960.59   2
   9  -3   3 27768.5 3135.25   1
  -9   3  -3 23861.8 2763.31   1
   9  -6   3 27731.6 3064.80   1
  -9   6  -3 28032.1 3122.23   1
  -6  -3   3 26263.1 3037.42   1
  -6   9   3 25300.4 2996.87   1
  -3  -6   3 25442.7 3068.17   1
   6   3  -3 23944.0 2921.25   1
   3  -9  -3 30272.3 3343.90   1
  -9   3  -3 22027.8 2845.71   2
  -9   6  -3 20706.8 2827.44   2
  -3   9   3 18248.0 2561.29   1
   6  -9  -3 21509.3 2866.55   1
   3   6  -3 24070.5 2932.02   1
  -6  -3   3 22559.4 2958.22   2
  -3  -6   4 485131. 13724.3   2
   9  -3   4 541158. 13846.7   1
  -9   3  -4 452378. 12525.5   1
  -9   6  -4 469215. 13408.6   2
  -6  -3   4 448388. 12959.4   1
  -3  -6   4 538530. 13933.1   1
  -6   9   4 465534. 13066.0   1
   6   3  -4 458371. 12862.2   1
   3  -9  -4 524599. 13920.3   1
   3   6  -4 429846. 12586.5   1
  -9   3  -4 457540. 13207.9   2
  -3   9   4 627388. 15512.0   1
   6  -9  -4 410106. 12381.6   1
  -6  -3   4 393664. 12420.8   2
   9  -6   4 494508. 13583.9   1
  -9   6  -4 560571. 14022.8   1
   6   3  -5 1607.43 651.228   1
  -6  -3   5 1156.02 535.955   2
  -3  -6   5 2293.21 856.843   2
   6  -9  -5 1068.98 692.074   1
  -3   9   5 1498.22 672.403   1
   9  -6   5 2189.92 949.351   1
   9  -3   5 1100.04 612.670   1
   3   6  -5 1426.91 696.257   1
  -6  -3   5 1626.55 790.437   1
  -3  -6   5 932.810 609.986   1
  -6   9   5 2364.60 966.004   1
  -9   6  -5 723.872 191.981   2
  -9   3  -5 969.248 647.387   2
   3  -9  -5 1016.40 738.614   1
  -9   6  -5 997.561 547.523   1
   6   3  -6 3651.36 1011.38   1
  -6  -3   6 4613.93 1227.99   2
  -3  -6   6 5772.77 1574.04   2
   6  -9  -6 2806.01 1077.04   1
   9  -6   6 5592.90 1494.31   1
  -3   9   6 4250.55 1208.14   1
   3   6  -6 4312.05 1113.55   1
  -6   9   6 5130.46 1390.63   1
  -6  -3   6 3561.79 1175.65   1
  -9   6  -6 4406.32 1243.97   2
  -3  -6   6 4530.59 1341.66   1
  -9   6  -6 3079.42 1101.44   1
  -9   3  -6 4489.81 1279.96   2
   3  -9  -6 4262.97 1252.98   1
  -6  -3   7 33937.9 3671.30   1
  -9   6  -7 30800.8 3404.63   1
  -3  -6   7 36755.1 3818.09   1
  -3  -6   7 45025.4 4250.42   2
   6   3  -7 34980.3 3675.27   1
  -6   9   7 43957.4 4081.67   1
  -9   6  -7 37137.2 3949.71   2
  -9   3  -7 37565.8 3963.43   2
  -3   9   7 40560.6 4039.71   1
   3   6  -7 41603.5 3878.98   1
   9  -6   7 44559.8 4121.56   1
   6  -9  -7 27188.1 3276.52   1
  -6  -3   7 41656.1 4164.13   2
  -3  -6   8 355437. 12254.1   2
   3   6  -8 460498. 13269.4   1
  -6  -3   8 463104. 13481.8   1
  -3  -6   8 474070. 13777.2   1
   6   3  -8 471430. 13528.2   1
   9  -6   8 434671. 13018.2   1
  -6   9   8 383958. 12297.4   1
  -9   6  -8 430335. 13381.5   2
  -9   3  -8 416337. 13149.5   2
   6  -9  -8 537018. 14697.4   1
  -6  -3   8 496724. 14393.9   2
   6   3  -9 393.503 551.638   1
  -6  -3   9-177.031 303.287   2
  -3  -6   9 1114.93 705.151   2
   6  -9  -9 492.740 387.911   1
   3   6  -9 570.019 239.526   1
  -6  -3   9-193.648 364.630   1
  -3  -6   9 397.369 258.159   1
  -6   9   9 499.380 430.849   1
  -9   3  -9 640.688 756.767   2
  -3  -6  10 36361.6 3873.72   2
  -6  -3  10 33624.8 3641.68   1
  -3  -6  10 31743.6 3658.75   1
   6   3 -10 31906.2 3471.54   1
  -6   9  10 31499.7 3515.74   1
  -9   3 -10 36589.8 3962.81   2
   3   6 -10 33516.0 3641.25   1
   6  -9 -10 45725.1 4427.37   1
  -6  -3  10 34713.6 3942.77   2
   6   3 -11 6761.67 1588.94   1
  -6  -3  11 5384.82 1516.79   2
  -3  -6  11 6025.86 1604.75   2
   3   6 -11 6455.63 1603.02   1
  -6  -3  11 5233.86 1492.79   1
  -3  -6  11 5768.13 1517.96   1
  -9   3 -11 3588.03 1246.61   2
  -3  -6  12 332331. 12152.3   2
  -6  -3  12 330672. 11848.2   1
  -3  -6  12 336716. 12065.9   1
   6   3 -12 297521. 11195.6   1
   3   6 -12 330842. 11750.8   1
  -6  -3  12 344984. 12553.9   2
  -6  -3  13 3871.36 1339.46   2
  -3  -6  13 5595.96 1678.32   2
   3   6 -13 3796.88 1273.14   1
  -6  -3  13 3000.35 1132.72   1
  -3  -6  13 4002.55 1198.87   1
   6   3 -13 3670.09 1312.70   1
  -3  -6  14 24405.8 3388.34   2
  -6  -3  14 23577.2 3215.09   1
  -3  -6  14 28017.1 3547.26   1
   6   3 -14 25161.8 3358.33   1
   3   6 -14 20155.1 2976.00   1
  -6  -3  14 25585.2 3634.65   2
  -6  -3  15 4215.54 1475.43   2
  -9   7  15 3100.68 1267.60   1
   9  -7 -15 5897.39 1909.68   1
  -2   9 -14 145689. 8189.81   1
   9  -7 -14 104098. 7299.32   1
  -9   7  14 136867. 8053.94   1
  -9   2  14 155171. 8402.00   1
   9  -2 -14 127329. 7757.91   1
   2  -9  14 136264. 7882.32   1
  -9   2  14 117479. 7757.50   2
  -2   9 -13 14760.7 2527.20   1
   9  -7 -13 13238.9 2648.61   1
  -9   7  13 14376.1 2609.42   1
  -9   2  13 19516.8 2875.42   1
   9  -2 -13 20570.0 2976.92   1
  -7   9 -13 18182.5 3018.19   1
   2  -9  13 19196.1 2923.37   1
   7  -9  13 17849.5 2771.86   1
  -9   2  13 16026.9 2861.53   2
  -2   9 -12 18487.7 2831.23   1
   9  -7 -12 22291.1 3226.17   1
  -9   7  12 21925.3 3188.04   1
  -9   2  12 22989.7 3164.28   1
   9  -2 -12 18160.5 2836.29   1
  -7   9 -12 21983.7 3122.42   1
   2  -9  12 21884.7 3027.12   1
   7  -9  12 20317.0 3067.61   1
  -9   2  12 17358.8 2883.99   2
   9  -7 -11 53636.2 5040.63   1
  -2   9 -11 69387.8 5470.79   1
  -9   7  11 69702.6 5603.40   1
  -9   2  11 73880.8 5642.78   1
   9  -2 -11 68652.0 5468.29   1
  -7   9 -11 71644.8 5646.36   1
   2  -9  11 74708.7 5710.44   1
   7  -9  11 63912.1 5446.43   1
  -9   2  11 72937.2 5758.94   2
   9  -7 -10 71779.4 5688.51   1
  -2   9 -10 84836.4 6005.68   1
  -9   7  10 72133.4 5591.41   1
  -9   2  10 79319.3 5694.46   1
   9  -2 -10 87888.7 6109.81   1
   2  -9  10 77050.1 5688.52   1
  -7   9 -10 85785.5 6106.99   1
   7  -9  10 71918.1 5554.60   1
  -9   2  10 75312.8 5740.82   2
   9  -7  -9 90120.2 6268.16   1
  -9   7   9 87988.8 6111.69   1
  -2   9  -9 87407.6 5968.47   1
  -9   2   9 83936.5 5909.23   1
   9  -2  -9 101485. 6588.55   1
   2  -9   9 88566.1 6077.25   1
  -7   9  -9 93647.8 6267.15   1
   7  -9   9 82503.1 5832.37   1
  -9   2   9 87564.3 6020.26   2
  -9   7   8 5031.53 1435.64   1
   9  -7  -8 5105.61 1556.22   1
  -9   2   8 4259.20 1376.26   1
   9  -2  -8 3926.23 1224.24   1
   2  -9   8 4333.45 1375.03   1
   7  -9   8 4675.12 1481.50   1
  -7   9  -8 3971.81 1171.57   1
  -9   2   8 4074.30 1348.83   2
  -2   9  -8 5738.75 1528.53   1
   9  -7  -7 111477. 6725.96   1
  -9   7   7 104357. 6470.80   1
  -9   2   7 89645.4 5960.35   1
  -2   9  -7 114637. 6747.29   1
   9  -2  -7 103522. 6358.98   1
   2  -9   7 118798. 6846.09   1
   7  -9   7 109528. 6580.08   1
  -9   7   7 126909. 7313.65   2
  -7  -2  -7 105756. 6445.59   2
  -7   9  -7 112733. 6767.29   1
  -9   2   7 98540.3 6337.36   2
   9  -7  -6 489941. 13928.5   1
  -9   7   6 459332. 13294.2   1
  -9   2   6 383358. 12373.3   1
   9  -2  -6 494735. 14027.4   1
  -2   9  -6 354072. 11748.4   1
  -7  -2  -6 481255. 13612.9   2
  -7   9  -6 456062. 13280.1   1
   2  -9   6 496446. 14062.2   1
   7  -9   6 436921. 13119.0   1
  -9   2   6 424837. 13020.5   2
  -9   7   6 468081. 13958.8   2
   9  -7  -5 203612. 8813.13   1
  -9   2   5 218540. 9078.44   1
   9  -2  -5 214293. 9150.81   1
  -2   9  -5 223883. 9318.38   1
   2  -9   5 167031. 8128.22   1
  -9   7   5 231131. 9695.09   2
   7  -9   5 212505. 8961.76   1
  -7  -2  -5 171007. 8129.30   2
  -9   2   5 199888. 8914.52   2
  -7   9  -5 190570. 8523.22   1
   9  -7  -4 243699. 9661.71   1
  -7   9  -4 229241. 9257.81   1
  -9   7   4 242568. 9551.66   1
  -9   2   4 226205. 9226.93   1
  -9   7   4 252380. 10112.4   2
   9  -2  -4 252936. 9776.74   1
  -2   9  -4 235606. 9586.14   1
   2  -9   4 236333. 9473.27   1
   7  -9   4 236195. 9659.15   1
  -7  -2  -4 253129. 9779.62   2
  -9   2   4 243576. 9565.70   2
   7  -9   3 134587. 7046.22   1
  -7   9  -3 137425. 7177.95   1
  -9   2   3 143813. 7471.41   1
   9  -2  -3 142401. 7311.06   1
  -2   9  -3 150827. 7623.94   1
   2  -9   3 131089. 6991.12   1
   9  -7  -3 137110. 7140.61   1
  -9   7   3 141048. 7389.02   2
  -9   2   3 119714. 6691.59   2
  -7  -2  -3 149135. 7448.52   2
  -9   7   3 145818. 7349.24   1
   2   7   3 141913. 6988.56   1
   2   7   2 400982. 11789.8   1
   9  -7  -2 467990. 13147.5   1
  -9   2   2 417419. 12551.6   1
  -7   9  -2 459088. 13049.1   1
   7  -9   2 416370. 12500.0   1
   9  -2  -2 424186. 12529.5   1
   7   2   2 459118. 12306.0   1
  -2   9  -2 422372. 12699.0   1
  -2  -7  -2 520872. 13390.6   1
   2  -9   2 543019. 14321.6   1
  -9   7   2 439418. 12721.8   1
  -9   7   2 443553. 13226.0   2
  -9   2   2 400058. 12437.8   2
  -7  -2  -2 480062. 13316.2   2
  -2  -7  -2 470442. 12916.1   2
  -7  -2  -1 2824.02 1124.41   2
   7  -9   1 1622.86 641.475   1
  -2  -7  -1 1365.59 626.303   2
   9  -7  -1 1945.55 911.856   1
  -9   2   1 2303.67 975.278   1
  -2   9  -1 1162.15 798.304   1
  -7   9  -1 2070.40 811.243   1
  -7  -2  -1 1396.56 696.995   1
   9  -2  -1 2885.88 916.127   1
   2   7   1 2725.96 1010.68   1
  -9   7   1 2344.34 1068.21   1
  -2  -7  -1 2560.47 991.647   1
   7   2   1 1623.66 515.845   1
  -9   7   1 1502.86 586.124   2
   2  -9   1 1360.14 727.287   1
  -9   2   1 1497.70 755.037   2
  -7  -2   0 1750.42 848.004   2
  -2  -7   0 1062.42 699.900   2
   7  -9   0 1874.26 942.313   1
  -9   7   0 845.754 617.578   1
   9  -7   0 1544.12 918.766   1
  -9   2   0 1141.40 685.243   1
  -7  -2   0 1246.58 700.572   1
  -2   9   0 1604.06 830.322   1
  -7   9   0 408.448 108.764   1
   9  -2   0 2035.97 910.083   1
   2   7   0 448.400 181.692   1
  -2  -7   0 807.525 578.733   1
  -9   7   0 272.653 190.967   2
   2  -9   0 801.676 701.821   1
   7   2   0 1565.78 778.698   1
  -9   2   0 1773.80 909.813   2
   2   7  -1 34213.0 3443.47   1
  -2  -7   1 41968.6 3933.85   2
  -9   7  -1 29602.2 3188.41   1
  -9   2  -1 29850.6 3312.02   1
   9  -2   1 31523.4 3365.03   1
  -7  -2   1 27863.5 3132.32   1
  -7   9   1 27483.9 3063.11   1
   7   2  -1 26915.7 3059.97   1
  -2  -7   1 35717.1 3631.96   1
  -2   9   1 34728.1 3581.44   1
   2  -9  -1 32599.3 3570.76   1
  -9   2  -1 24481.3 3102.30   2
   7  -9  -1 25993.6 3008.08   1
  -9   7  -1 27584.3 3338.19   2
  -7  -2   1 29929.7 3396.77   2
   9  -7   1 24327.7 3044.30   1
  -2  -7   2 139998. 7267.42   2
  -9   7  -2 121648. 6542.32   1
   9  -2   2 123323. 6649.93   1
  -9   2  -2 138854. 7103.29   1
  -7  -2   2 130814. 7050.18   1
   7   2  -2 136382. 7008.55   1
  -2  -7   2 136923. 7127.81   1
  -7   9   2 127815. 6924.50   1
  -2   9   2 173336. 8084.89   1
   7  -9  -2 158145. 7519.68   1
   2  -9  -2 172525. 8044.37   1
  -9   2  -2 142648. 7379.59   2
  -9   7  -2 138695. 7436.58   2
  -7  -2   2 129299. 7020.07   2
   9  -7   2 154889. 7716.60   1
   2   7  -2 137533. 7161.69   1
  -2  -7   3 363406. 11839.4   2
   9  -2   3 358854. 11307.6   1
  -9   2  -3 306804. 10489.8   1
  -7  -2   3 377746. 12032.1   1
  -2  -7   3 377563. 11871.5   1
   7   2  -3 333218. 11136.0   1
  -2   9   3 430298. 12973.2   1
  -7   9   3 357973. 11415.1   1
   2  -9  -3 291914. 10489.9   1
  -9   7  -3 365379. 12074.5   2
  -9   2  -3 350763. 11561.4   2
  -9   7  -3 366127. 11308.9   1
   7  -9  -3 434447. 12769.3   1
  -7  -2   3 346105. 11647.3   2
   9  -7   3 329628. 11132.8   1
   2   7  -3 399990. 12143.8   1
  -2  -7   4 15199.0 2397.49   2
  -7  -2   4 14719.7 2300.53   2
   7  -9  -4 13067.5 2185.98   1
  -7  -2   4 12944.6 2244.15   1
  -2  -7   4 13702.1 2283.26   1
  -9   7  -4 9644.65 1847.94   1
   7   2  -4 11715.3 2110.94   1
   2   7  -4 12730.9 2084.20   1
  -2   9   4 20564.6 2760.41   1
   2  -9  -4 11365.1 2058.90   1
  -7   9   4 14107.4 2240.85   1
  -9   7  -4 12142.0 2229.82   2
  -9   2  -4 12314.0 2167.92   2
   9  -7   4 12746.0 2255.90   1
  -2  -7   5 211301. 9252.66   2
  -7  -2   5 228503. 9358.82   1
  -9   7  -5 215020. 9242.26   2
  -2  -7   5 212314. 9057.05   1
   7   2  -5 249364. 9671.71   1
  -9   7  -5 239632. 9452.06   1
  -2   9   5 251933. 9875.65   1
  -7   9   5 249975. 9586.68   1
  -9   2  -5 218328. 9270.17   2
   9  -7   5 194544. 8707.29   1
   7  -9  -5 225278. 9365.87   1
  -7  -2   5 231490. 9687.13   2
   2   7  -5 215767. 8954.70   1
  -2  -7   6 441304. 13403.5   2
  -7  -2   6 396639. 12438.6   1
  -9   7  -6 384133. 12320.0   1
  -2  -7   6 350575. 11727.5   1
   7   2  -6 394010. 12403.7   1
  -2   9   6 330137. 11409.0   1
  -9   7  -6 445711. 13241.3   2
  -9   2  -6 291073. 10949.3   2
  -7   9   6 462605. 13146.3   1
   9  -7   6 383126. 12205.0   1
   7  -9  -6 473172. 13760.3   1
  -7  -2   6 436553. 13613.9   2
   2   7  -6 325985. 11152.3   1
  -2  -7   7 23979.7 3193.41   2
  -9   7  -7 30499.4 3500.81   1
  -7  -2   7 26002.4 3168.82   1
  -2  -7   7 24526.8 3143.44   1
   7   2  -7 24626.6 3117.29   1
  -9   2  -7 31710.2 3621.45   2
  -7   9   7 25977.1 3115.63   1
   9  -7   7 29372.7 3404.09   1
   2   7  -7 24967.8 3147.05   1
   7  -9  -7 26040.8 3291.16   1
  -7  -2   7 31566.8 3492.47   2
  -2  -7   8 67689.0 5420.10   2
  -9   7  -8 85653.0 5917.18   1
  -9   2  -8 76531.4 5823.96   2
  -7  -2   8 92145.2 6059.21   1
  -2  -7   8 99129.8 6300.10   1
   7   2  -8 79308.4 5638.35   1
   9  -7   8 89355.0 6040.54   1
  -7   9   8 81652.0 5689.71   1
   2   7  -8 97471.9 6125.44   1
  -7  -2   8 81968.8 5920.57   2
   7  -9  -8 91767.5 6205.05   1
  -2  -7   9 34852.6 3868.76   2
  -7  -2   9 17995.6 2762.92   1
  -2  -7   9 24465.3 3114.03   1
   7   2  -9 28169.4 3291.69   1
  -9   2  -9 32425.7 3647.42   2
   9  -7   9 22578.4 3147.28   1
   2   7  -9 24884.8 3062.90   1
  -7  -2   9 23855.3 3177.45   2
   7  -9  -9 33033.7 3726.32   1
  -7   9   9 28687.1 3487.76   1
  -2  -7  10 216182. 9782.20   2
  -7  -2  10 220396. 9556.83   1
  -2  -7  10 223254. 9631.95   1
   7   2 -10 245756. 9980.34   1
  -9   2 -10 204322. 9602.13   2
   2   7 -10 238752. 9759.14   1
  -7  -2  10 230482. 10293.9   2
   7  -9 -10 244303. 10512.8   1
  -7   9  10 216987. 9738.86   1
  -2  -7  11 63563.6 5368.60   2
  -7  -2  11 68110.0 5353.03   1
  -2  -7  11 61793.8 5270.17   1
   7   2 -11 69007.4 5353.30   1
  -9   2 -11 63662.2 5450.18   2
   2   7 -11 70054.5 5320.69   1
  -7  -2  11 66715.8 5636.60   2
   7  -9 -11 58457.8 5166.94   1
  -7   9  11 68744.2 5471.87   1
  -7  -2  12 10558.4 2113.65   2
  -2  -7  12 10488.5 2194.64   2
  -7   9  12 8155.74 1928.34   1
   2   7 -12 9537.92 2086.36   1
  -7  -2  12 8985.69 2053.39   1
  -2  -7  12 8723.29 1926.43   1
   7   2 -12 9681.27 2017.31   1
  -2  -7  13 58167.7 5067.45   2
  -7  -2  13 47809.6 4574.39   1
  -2  -7  13 45631.8 4496.29   1
   7   2 -13 49800.8 4654.17   1
   2   7 -13 42883.7 4340.49   1
  -7  -2  13 50542.2 4924.79   2
  -2  -7  14 49181.5 4802.60   2
  -7  -2  14 62868.9 5312.19   1
  -2  -7  14 47204.7 4618.16   1
   7   2 -14 46117.8 4548.24   1
   2   7 -14 67782.2 5369.72   1
  -7  -2  14 55547.6 5364.38   2
   9  -8 -14 84504.3 6537.81   1
  -9   1  14 79552.6 6357.42   2
  -9   8  14 69189.4 5902.29   1
  -9   8  13 51060.6 5000.79   1
   9  -8 -13 77247.9 6188.74   1
   1  -9  13 63950.4 5658.42   2
  -9   1  13 73609.8 5724.73   1
   9  -1 -13 77389.6 5944.81   1
   1  -9  13 72389.2 5641.53   1
  -9   1  13 70426.4 5916.95   2
  -1   9 -13 69415.5 5483.91   1
  -9   1  12 10017.5 2209.38   2
  -9   8  12 7927.99 1873.96   1
   1  -9  12 9647.43 2105.74   2
   9  -8 -12 6213.85 1746.76   1
  -9   1  12 10302.1 2033.14   1
   1  -9  12 9267.43 2068.11   1
  -1   9 -12 9416.72 2018.57   1
   9  -1 -12 10654.0 2140.21   1
   8  -9  12 7903.38 1935.01   1
  -1   9 -11 13523.2 2387.99   1
   9  -8 -11 13394.8 2516.83   1
   1  -9  11 13526.3 2533.37   2
  -9   1  11 13990.1 2404.87   1
   9  -1 -11 15965.6 2696.98   1
   1  -9  11 12728.4 2338.04   1
  -8   9 -11 12215.5 2387.30   1
   8  -9  11 11769.8 2321.39   1
  -9   1  11 13655.9 2518.29   2
  -9   8  11 10567.8 2259.32   1
   9  -8 -10 141977. 7866.78   1
  -1   9 -10 204877. 9192.09   1
   1  -9  10 209698. 10145.0   2
  -9   1  10 194054. 9176.11   1
   9  -1 -10 182303. 8989.08   1
   1  -9  10 169247. 8491.35   1
  -8   9 -10 155223. 8403.82   1
   8  -9  10 179737. 8954.03   1
  -9   1  10 177885. 8909.88   2
  -9   8  10 161407. 8641.46   1
   9  -8  -9 50258.4 4689.46   1
   1  -9   9 49516.0 4748.80   2
  -1   9  -9 49167.7 4421.97   1
  -9   1   9 46399.6 4459.85   1
   9  -1  -9 48003.3 4539.26   1
   1  -9   9 48096.3 4533.15   1
  -8   9  -9 43697.9 4436.61   1
   8  -9   9 44437.3 4399.19   1
  -9   1   9 45396.5 4463.17   2
  -9   8   9 43173.4 4296.68   1
  -9   1   8 3326.14 1147.14   2
   1  -9   8 3029.67 1203.76   2
  -8   9  -8 2659.19 1037.27   1
   9  -8  -8 4133.26 1295.31   1
  -9   1   8 2782.70 1080.48   1
   9  -1  -8 2402.43 1033.33   1
  -9   8   8 4249.13 1317.01   1
   1  -9   8 4159.86 1304.95   1
  -1   9  -8 4828.93 1478.29   1
   8  -9   8 2933.45 1096.23   1
   9  -8  -7 113029. 6896.11   1
   1  -9   7 131147. 7764.12   2
  -1   9  -7 129940. 7214.95   1
  -9   1   7 121558. 6965.27   1
   9  -1  -7 119615. 7063.92   1
   1  -9   7 140770. 7520.71   1
  -9   8   7 121252. 7091.66   1
   8  -9   7 123824. 7207.34   1
  -8  -1  -7 114189. 6805.83   2
  -9   1   7 115118. 6813.11   2
  -8   9  -7 123170. 7116.90   1
  -8   9  -6 153666. 7776.20   1
   9  -8  -6 149461. 7867.57   1
   1  -9   6 174138. 9041.99   2
  -1   9  -6 168141. 8281.35   1
  -9   1   6 152342. 7797.69   1
   9  -1  -6 155423. 8041.49   1
  -9   1   6 150701. 7845.50   2
   1  -9   6 182795. 8645.37   1
   8  -9   6 145201. 7840.03   1
  -9   8   6 135754. 7384.63   1
  -8  -1  -6 196705. 9070.78   2
   9  -8  -5 67002.6 5181.97   1
   1  -9   5 58691.8 5237.97   2
  -8   9  -5 67779.7 5206.66   1
  -1   9  -5 72451.2 5381.59   1
  -9   1   5 69650.7 5298.97   1
  -9   8   5 62008.5 5123.77   2
   9  -1  -5 67344.2 5197.32   1
   8  -9   5 73848.2 5399.38   1
  -9   8   5 66716.7 5011.79   1
   1  -9   5 67812.8 5158.60   1
  -8  -1  -5 71165.1 5380.12   2
  -9   1   5 75805.5 5545.34   2
   1  -9   4 103872. 6904.03   2
   8  -9   4 89540.5 6032.24   1
  -8   9  -4 81378.8 5710.87   1
  -9   1   4 93502.6 6095.09   1
  -1   9  -4 93544.0 6168.44   1
   9  -1  -4 93240.0 6129.73   1
  -9   8   4 99964.1 6124.58   1
   1  -9   4 93254.1 6122.46   1
  -8  -1  -4 102259. 6419.19   2
  -9   8   4 81787.0 5926.42   2
  -9   1   4 104454. 6500.92   2
   9  -8  -4 80389.5 5688.38   1
   1  -9   3 52536.4 4674.82   2
   1   8   3 62856.8 4865.58   1
  -9   1   3 66990.7 5023.77   1
  -8   9  -3 73077.1 5310.69   1
  -1   9  -3 64465.2 5010.39   1
  -9   8   3 65436.7 4959.14   1
   9  -1  -3 61940.6 4977.07   1
   8  -9   3 61017.8 4929.38   1
  -9   8   3 61462.5 5215.94   2
   1  -9   3 42214.5 4068.90   1
  -8  -1  -3 74157.7 5379.04   2
  -9   1   3 61533.6 4888.68   2
   9  -8  -3 63592.4 4973.44   1
   1  -9   2 337569. 12370.7   2
   1   8   2 412267. 12654.5   1
  -9   1   2 405575. 12558.4   1
  -9   8   2 380231. 11829.0   1
  -1   9  -2 385092. 12422.3   1
   9  -1  -2 397908. 12431.9   1
  -8   9  -2 406805. 12509.5   1
  -1  -8  -2 253413. 9951.78   1
   1  -9   2 303994. 10944.4   1
  -9   8   2 368310. 12237.8   2
  -8  -1  -2 411827. 12572.0   2
  -9   1   2 402499. 12437.0   2
   8  -9   2 388491. 12228.5   1
   9  -8  -2 377800. 12148.9   1
   1  -9   1 112171. 7017.20   2
  -9   8   1 107843. 6276.30   1
   1   8   1 124283. 6908.57   1
  -9   1   1 108687. 6518.47   1
  -8  -1  -1 100164. 6038.20   1
   9  -1  -1 105696. 6385.53   1
  -1   9  -1 104683. 6325.36   1
   8   1   1 112106. 6424.86   1
  -8   9  -1 110758. 6447.73   1
  -1  -8  -1 97862.3 6160.52   1
   1  -9   1 59651.2 4952.20   1
  -9   8   1 105616. 6636.74   2
  -9   1   1 87830.5 5788.35   2
  -8  -1  -1 103552. 6304.23   2
   8  -9   1 82202.7 5621.93   1
   9  -8  -1 100476. 6279.18   1
  -9   8   0 23611.7 3005.50   1
  -1  -8   0 25242.3 3029.98   2
   1  -9   0 16110.7 2523.33   2
   1   8   0 28615.0 3338.94   1
  -9   1   0 24877.7 3126.05   1
  -8  -1   0 26828.1 3189.85   1
   9  -1   0 23595.3 2922.35   1
  -1   9   0 22857.5 2903.52   1
   8   1   0 25079.0 2941.36   1
  -8  -1   0 18005.2 2658.25   2
  -1  -8   0 29922.3 3319.53   1
  -8   9   0 22768.9 2808.17   1
   1  -9   0 30213.9 3479.51   1
  -9   8   0 19632.7 2976.32   2
  -9   1   0 21072.9 2831.38   2
   8  -9   0 22009.1 2796.29   1
   9  -8   0 22693.6 2978.74   1
  -1  -8   1 108911. 6476.37   2
   1   8  -1 126123. 6985.29   1
  -9   1  -1 159611. 7853.17   1
   9  -1   1 138018. 7221.58   1
  -8  -1   1 138490. 7230.60   1
  -1   9   1 144251. 7484.47   1
   8   1  -1 143310. 7175.92   1
  -1  -8   1 138614. 7415.12   1
   1  -9  -1 111445. 6587.22   1
  -8   9   1 125958. 6744.57   1
  -9   1  -1 135144. 7330.96   2
  -9   8  -1 131641. 6886.74   1
  -8  -1   1 152514. 7598.22   2
   8  -9  -1 140278. 7179.55   1
   9  -8   1 136519. 7204.33   1
  -9   8  -1 126661. 7311.30   2
  -1  -8   2 241914. 9758.25   2
   1   8  -2 257457. 10050.2   1
  -9   1  -2 280614. 10287.7   1
  -9   8  -2 253703. 10121.5   2
   9  -1   2 220265. 9264.66   1
  -8  -1   2 269124. 10173.9   1
  -1   9   2 307964. 10970.1   1
   8   1  -2 224317. 9140.67   1
  -1  -8   2 271229. 10257.1   1
  -8   9   2 228992. 9126.72   1
  -9   8  -2 237235. 9353.78   1
  -9   1  -2 268989. 10304.5   2
  -8  -1   2 253639. 9783.33   2
   8  -9  -2 203515. 8963.31   1
   9  -8   2 253896. 9881.48   1
  -1  -8   3 146176. 7648.86   2
   1   8  -3 160788. 7856.57   1
  -8  -1   3 137286. 7345.94   1
  -1   9   3 143992. 7554.96   1
   8   1  -3 134803. 7210.73   1
  -1  -8   3 163060. 7957.23   1
  -9   8  -3 170868. 8021.90   1
   1  -9  -3 124056. 6922.97   1
  -9   8  -3 177782. 8464.47   2
  -8   9   3 149103. 7358.24   1
  -9   1  -3 145866. 7637.86   2
  -8  -1   3 135231. 7353.03   2
   9  -8   3 167624. 7970.88   1
   8  -9  -3 160492. 7917.30   1
  -8  -1   4 783.835 574.760   2
  -1  -8   4 673.430 411.154   2
   9  -8   4 44.8610 89.3692   1
  -8   9   4 1586.73 767.176   1
   8  -9  -4 992.047 701.766   1
  -1   9   4 1043.13 523.057   1
  -8  -1   4 741.180 745.942   1
  -9   8  -4 225.767 156.565   1
   1   8  -4 758.179 422.180   1
  -1  -8   4 800.618 606.517   1
   8   1  -4 853.456 560.611   1
   1  -9  -4 782.176 563.284   1
  -9   1  -4 311.350 333.346   2
   1   8  -5 55519.4 4630.30   1
  -1  -8   5 57586.8 4809.49   2
  -8  -1   5 48777.7 4309.71   1
  -9   8  -5 43914.4 4198.16   1
   8   1  -5 47994.5 4320.17   1
  -1  -8   5 40753.8 4085.89   1
  -9   1  -5 43712.8 4114.03   2
   9  -8   5 46614.5 4310.43   1
  -8  -1   5 59659.9 4927.28   2
   8  -9  -5 36405.2 3911.29   1
  -8   9   5 47961.7 4392.12   1
   1   8  -6 155317. 7939.53   1
  -8   9   6 257861. 9995.53   1
  -1  -8   6 197192. 9116.04   2
  -9   8  -6 218309. 9518.26   1
  -8  -1   6 232720. 9468.73   1
   8   1  -6 219570. 9254.16   1
  -1  -8   6 261499. 10173.2   1
  -9   1  -6 203895. 9221.86   2
   9  -8   6 248163. 10038.5   1
  -8  -1   6 242891. 10036.2   2
   8  -9  -6 204647. 9290.69   1
  -1  -8   7 18018.6 2867.02   2
  -8   9   7 15962.9 2393.74   1
  -9   8  -7 15401.4 2438.32   1
  -8  -1   7 17010.5 2591.80   1
   8   1  -7 15082.0 2462.58   1
  -1  -8   7 15499.1 2527.19   1
  -9   1  -7 15984.5 2580.88   2
   9  -8   7 15440.2 2590.59   1
  -8  -1   7 18076.3 2734.93   2
   8  -9  -7 17123.8 2732.35   1
   1   8  -7 15079.2 2472.91   1
  -9   8  -8 120677. 7131.96   1
  -1  -8   8 114524. 7168.65   2
  -8   9   8 106289. 6687.20   1
  -8  -1   8 106258. 6556.89   1
   8   1  -8 108245. 6635.83   1
  -1  -8   8 112652. 6764.37   1
   9  -8   8 97993.3 6664.05   1
  -8  -1   8 100894. 6596.58   2
   8  -9  -8 107374. 6873.59   1
   1   8  -8 114305. 6692.71   1
  -1  -8   9 87141.4 6358.53   2
  -8   9   9 103683. 6685.91   1
  -8  -1   9 111462. 6785.79   1
   8   1  -9 108824. 6791.76   1
  -1  -8   9 115417. 6871.87   1
  -9   1  -9 96636.4 6824.62   2
   9  -8   9 123521. 7395.49   1
  -8  -1   9 103969. 6866.07   2
  -9   8  -9 93812.4 6413.09   1
   1   8  -9 107040. 6535.83   1
   8  -9  -9 97791.1 6604.60   1
  -1  -8  10 193626. 9394.45   2
  -8   9  10 147418. 7988.13   1
  -8  -1  10 149847. 7786.75   1
   8   1 -10 164457. 8236.51   1
  -1  -8  10 143559. 7727.19   1
   9  -8  10 132972. 7793.62   1
  -9   1 -10 168846. 8930.83   2
  -8  -1  10 156034. 8541.07   2
   1   8 -10 159091. 7994.00   1
   8  -9 -10 138824. 8117.31   1
  -1  -8  11 71132.1 5758.46   2
  -8   9  11 71125.6 5596.85   1
  -8  -1  11 80228.5 5808.11   1
   8   1 -11 79723.5 5738.89   1
  -1  -8  11 73616.7 5662.22   1
   1   8 -11 81083.6 5834.83   1
  -8  -1  11 79287.2 6185.74   2
   8  -9 -11 94062.6 6666.91   1
  -8  -1  12 3070.83 1326.80   2
  -1  -8  12 1715.32 777.030   2
   8  -9 -12 2630.48 1094.36   1
  -8  -1  12 3584.04 1185.28   1
   1   8 -12 2088.74 885.973   1
  -1  -8  12 3273.94 1132.52   1
  -8   9  12 2453.36 993.070   1
   8   1 -12 2836.55 1069.35   1
  -1  -8  13 12232.8 2487.18   2
   1   8 -13 15967.7 2507.98   1
  -8  -1  13 14570.1 2427.83   1
   8   1 -13 11129.2 2263.23   1
  -1  -8  13 12091.6 2357.99   1
  -8  -1  13 14369.6 2755.39   2
  -8  -1  14 122305. 8012.00   2
   0  -9   1 629.422 761.902   2
   9  -9   1 497.705 550.286   1
   9  -9  -1 457.260 567.698   1
  -9   0  -1 524.032 513.184   1
  -9   0   1 289.341 233.474   1
   0  -9  -1 1242.71 829.959   1
   9   0   1 439.673 508.335   1
   9   0  -1 157.328 239.742   1
  -9   9  -1 421.309 713.989   1
   0  -9   1 1287.86 953.001   1
   0   9  -1 150.989 285.811   1
   0   9   1 1055.03 743.719   1
  -9   9   1-158.367 357.694   1
  -9   0  -1 619.252 708.160   2
  -9   0   1 1755.45 996.636   2
   0  -9   2 2400.19 986.441   2
   9  -9   2 2826.84 967.195   1
  -9   9   2 3432.88 1227.11   1
   9  -9  -2 1814.01 909.190   1
  -9   0   2 1434.46 782.400   1
  -9   9  -2 3691.39 1106.36   1
   9   0  -2 1706.77 782.917   1
   0  -9   2 3107.74 1007.39   1
   0  -9  -2 1467.81 774.712   1
   0   9  -2 1367.64 728.486   1
  -9   0  -2 1698.73 558.093   2
   0   9   2 2916.42 1050.10   1
  -9   0   2 1972.14 860.794   2
   9  -9   3 675.638 355.571   1
   0  -9   3 1113.01 575.717   2
   9  -9  -3 1251.92 901.399   1
  -9   9   3 1705.23 733.922   1
  -9   0   3 149.774 207.097   1
  -9   9  -3 502.058 371.884   1
   9   0  -3 1029.72 519.983   1
   0  -9   3 1398.77 772.674   1
  -9   9   3 435.107 148.904   2
   0   9  -3 403.711 484.847   1
  -9   0  -3 651.458 528.928   2
   0   9   3 955.561 707.309   1
  -9   0   3 1130.84 1098.13   2
  -9   9   4 88816.9 5922.70   1
   0  -9   4 89232.4 6147.76   2
   0   9  -4 88986.4 6101.18   1
  -9   0   4 88391.7 5974.81   1
  -9   9  -4 97882.9 6362.92   1
   9   0  -4 84092.5 5951.95   1
   0  -9   4 81736.9 5838.37   1
  -9   9   4 90767.1 6284.65   2
  -9   0  -4 66689.6 5322.51   2
   9  -9   4 81141.9 5836.94   1
  -9   0   4 82950.2 5851.64   2
   9  -9  -4 79700.7 5762.82   1
  -9   0   5-369.286 429.670   2
   9  -9   5 778.290 592.731   1
   0  -9   5 371.485 337.686   2
  -9   9  -5 124.081 234.447   1
  -9   0   5 514.862 512.174   1
  -9   9   5-6.78665 135.465   1
   0  -9   5 878.209 671.163   1
   9   0  -5 699.232 584.446   1
   0   9  -5-56.2306 312.987   1
  -9   0  -5-118.623 462.667   2
  -9   0   6 1073.07 779.854   2
   9  -9   6 1245.08 696.059   1
  -9   9  -6 1381.18 708.867   1
   0  -9   6 1295.14 871.789   2
   9  -9  -6 2014.77 1037.27   1
  -9   0   6 2101.09 995.524   1
  -9   9   6 1593.11 825.479   1
   0   9  -6 719.365 329.728   1
   0  -9   6 1517.21 896.850   1
   9   0  -6 2436.37 899.719   1
  -9   0  -6 1651.33 781.945   2
  -9   0   7 2463.45 1269.78   2
   0  -9   7 1478.69 858.240   2
   9  -9  -7 461.383 267.783   1
  -9   0   7 1993.17 1152.10   1
  -9   9  -7 1255.03 674.335   1
   0   9  -7 1786.84 915.356   1
   0  -9   7 552.791 478.234   1
   9   0  -7 690.826 396.606   1
  -9   0  -7 1129.68 770.722   2
  -9   9   7 1557.26 739.488   1
   0   9  -8 229562. 9701.81   1
   0  -9   8 274040. 11348.2   2
   9  -9   8 240599. 10293.2   1
  -9   0   8 267557. 10808.2   1
  -9   9   8 209043. 9472.48   1
   9   0  -8 252330. 10381.4   1
  -9   9  -8 250255. 10565.9   1
   0  -9   8 284798. 10975.6   1
  -9   0  -8 222286. 10264.3   2
  -9   0   8 254897. 10565.5   2
   9  -9  -8 202372. 9595.32   1
  -9   0   9 267.638 225.407   2
   0  -9   9 696.700 740.198   2
  -9   9   9 1303.55 871.335   1
  -9   9  -9 1261.31 902.776   1
   9  -9  -9 735.230 639.136   1
  -9   0   9 1616.57 894.428   1
   0   9  -9 321.151 409.305   1
   0  -9   9 659.011 384.600   1
   9   0  -9 494.610 574.827   1
   9  -9   9 1114.70 663.327   1
  -9   0  10 2280.90 1073.44   2
   0  -9  10 1483.95 862.184   2
   9   0 -10 4111.73 1397.58   1
  -9   9  10 1426.64 787.343   1
   9  -9 -10 1796.90 979.772   1
  -9   0  10 1428.41 875.471   1
   0   9 -10 1365.89 700.302   1
   0  -9  10 1522.29 777.961   1
   9  -9  10 1919.38 901.139   1
  -9   9 -10 963.709 631.095   1
  -9   0  11-506.381 842.285   2
   0  -9  11 388.847 431.225   2
   9  -9 -11 89.3595 244.592   1
  -9   9  11 51.4986 175.572   1
  -9   0  11 39.2038 313.302   1
   0   9 -11 147.846 385.265   1
   0  -9  11 273.181 444.968   1
   9   0 -11 541.687 514.317   1
   0  -9  12 280983. 11645.2   2
  -9   0  12 320733. 11875.6   1
  -9   9  12 295256. 12038.2   1
   9   0 -12 323234. 11769.4   1
   0  -9  12 285020. 11312.2   1
  -9   0  12 323561. 12536.2   2
   0   9 -12 371224. 12675.5   1
   9  -9 -12 218793. 10526.8   1
  -9   0  13-411.696 729.531   2
   9  -9 -13 1222.68 985.344   1
  -9   9  13 768.720 694.744   1
   5 -10  14 5518.01 1590.64   1
  -5  10 -14 3960.99 1439.11   1
 -10   5  13 306.684 600.485   1
  10  -5 -13-151.916 461.565   1
   5 -10  13-638.901 699.648   1
  -5  10 -13 656.860 662.635   1
 -10   5  12 876443. 20248.2   1
  10  -5 -12 763453. 18669.9   1
  -5  10 -12 837684. 19677.4   1
   5 -10  12 759929. 18650.5   1
  -5  10 -11-125.716 851.188   1
 -10   5  11 1233.96 881.961   1
  10  -5 -11-161.637 387.686   1
   5 -10  11-392.955 565.506   1
 -10   5  10 23365.0 3070.50   1
  10  -5 -10 21489.1 3076.64   1
  -5  10 -10 22770.7 3150.01   1
   5 -10  10 18586.7 2867.32   1
 -10   5  10 20762.7 3194.02   2
 -10   5   9-333.664 387.140   1
  -5  10  -9-409.223 498.775   1
  10  -5  -9-40.7226 81.8480   1
 -10   5   9-26.5971 373.120   2
   5 -10   9 49.5916 570.097   1
  10  -5  -8 75068.8 5535.69   1
 -10   5   8 80560.6 5776.44   1
  -5  10  -8 72525.3 5552.67   1
   5 -10   8 78363.2 5777.36   1
 -10   5   8 81028.3 6013.95   2
 -10   5   7 780.073 582.112   1
  10  -5  -7-132.992 172.883   1
  -5  10  -7 642.165 640.727   1
   5 -10   7 163.046 464.152   1
 -10   5   7-263.569 627.814   2
  10  -5  -6 55895.1 4691.97   1
 -10   5   6 48319.5 4422.51   1
  -5  10  -6 51704.9 4634.55   1
   5 -10   6 53217.3 4690.10   1
 -10   5   6 56265.9 4841.42   2
 -10   5   5 677.529 468.875   1
  10  -5  -5-292.589 440.833   1
  -5  10  -5 600.598 623.734   1
 -10   5   5 353.811 454.333   2
   5 -10   5-125.801 359.437   1
  10  -5  -4 287047. 10877.6   1
 -10   5   4 357721. 11904.4   1
  -5  10  -4 349537. 11719.5   1
   5 -10   4 286711. 10669.9   1
 -10   5   4 317659. 11396.6   2
  -5  -5  -3 247.483 270.108   2
 -10   5   3 418.080 484.777   1
  10  -5  -3 434.411 357.763   1
 -10   5   3-541.597 602.720   2
  -5  10  -3-189.783 289.831   1
   5 -10   3-397.208 419.222   1
  10  -5  -2 25961.6 3292.58   1
 -10   5   2 22648.9 3015.61   1
   5 -10   2 26618.9 3223.63   1
  -5  10  -2 26121.5 3139.99   1
 -10   5   2 22377.8 2959.63   2
  -5  -5  -2 27114.9 3246.95   2
  -5  -5  -1 350.078 97.0187   2
  -5  10  -1 316.218 659.317   1
   5   5   1-254.447 358.888   1
 -10   5   1 658.523 735.550   1
  10  -5  -1-262.679 192.307   1
 -10   5   1 165.006 231.436   2
   5 -10   1-531.765 488.477   1
  -5  -5   1 122.201 460.264   2
   5   5  -1-213.357 327.593   1
  10  -5   1-359.877 688.606   1
  -5  10   1 528.781 630.975   1
  -5  -5   1 378.842 72.6311   1
 -10   5  -1-721.052 509.682   2
   5 -10  -1 397.304 413.828   1
  10  -5   2 38968.6 3890.21   1
  -5  -5   2 38481.6 3968.92   1
   5   5  -2 41852.1 4039.17   1
 -10   5  -2 38393.1 3995.93   2
   5 -10  -2 47781.7 4415.41   1
  -5  -5   2 37251.7 3915.61   2
  -5  10   2 49947.4 4490.37   1
 -10   5  -2 41483.2 4017.66   1
   5 -10  -3 204.436 364.527   1
  -5  -5   3-430.188 469.434   2
   5   5  -3 593.278 717.484   1
  10  -5   3-71.3468 481.972   1
  -5  -5   3-93.1699 587.520   1
  -5  10   3 465.321 491.051   1
 -10   5  -3 475.709 468.034   2
 -10   5  -3 232.226 194.769   1
 -10   5  -4 294453. 11124.3   2
 -10   5  -4 312525. 11221.7   1
  -5  -5   4 318034. 11588.0   1
   5 -10  -4 325336. 11618.4   1
   5   5  -4 292821. 10819.6   1
  10  -5   4 297901. 10991.2   1
   5 -10  -5-617.347 586.487   1
  -5  -5   5-100.985 412.737   2
   5   5  -5 261.679 413.956   1
  10  -5   5-196.671 327.329   1
  -5  -5   5 1.21020 294.886   1
 -10   5  -5 81.2074 45.4303   1
  -5  10   5-333.283 555.658   1
 -10   5  -5 93.1449 696.550   2
  -5  10   6 26402.9 3303.58   1
  -5  -5   6 18133.9 2817.25   1
   5   5  -6 16895.3 2569.54   1
 -10   5  -6 15434.6 2599.60   2
   5 -10  -6 26132.8 3204.44   1
  -5  -5   6 18192.3 2824.05   2
   5 -10  -7 119.078 523.535   1
  -5  10   7 844.664 710.684   1
  -5  -5   7 123.167 274.488   2
   5   5  -7-608.644 563.833   1
  -5  -5   7-304.229 538.009   1
 -10   5  -7 740.444 760.252   2
  -5  10   8 95570.5 6458.71   1
  -5  -5   8 91268.3 6254.96   1
   5   5  -8 109065. 6575.13   1
 -10   5  -8 82037.7 6059.46   2
   5 -10  -8 98316.2 6604.05   1
  -5  -5   8 101408. 6840.59   2
  -5  -5   9 108.347 548.940   2
   5   5  -9 203.184 192.680   1
  -5  -5   9 97.7600 241.166   1
 -10   5  -9 315.358 111.632   2
  -5  -5  10 20822.2 3048.26   1
   5   5 -10 27548.1 3425.72   1
 -10   5 -10 18321.4 2978.13   2
  -5  -5  10 22318.2 3175.62   2
  -5  -5  11 121.456 158.216   2
   5   5 -11 235.112 367.609   1
  -5  -5  11 35.1362 131.656   1
  -5  -5  12 655887. 17055.1   1
  -5  -5  12 662960. 17668.5   2
   5   5 -13 836.607 778.076   1
  -5  -5  13-411.390 694.689   2
  -5  -5  13-239.601 402.489   1
  -6  10 -14 63281.9 5816.88   1
   6 -10  14 61945.8 5501.01   1
  -4  10 -13 118939. 7600.85   1
  10  -6 -13 129890. 7949.41   1
 -10   6  13 158262. 8709.87   1
 -10   4  13 127922. 7749.21   1
  10  -4 -13 145520. 8492.10   1
  -6  10 -13 121682. 7707.11   1
   4 -10  13 117211. 7401.25   1
   6 -10  13 110369. 7312.68   1
  10  -6 -12 74505.1 5897.78   1
 -10   6  12 64511.2 5421.79   1
  -4  10 -12 62434.7 5337.79   1
 -10   4  12 63191.3 5281.56   1
  10  -4 -12 69317.3 5754.44   1
  -6  10 -12 52473.2 5046.93   1
   4 -10  12 64496.8 5467.33   1
   6 -10  12 52460.1 4976.86   1
  10  -6 -11 21047.3 3118.24   1
 -10   6  11 28551.0 3583.15   1
 -10   4  11 22138.4 3057.58   1
  10  -4 -11 19176.3 2997.97   1
  -4  10 -11 22426.4 3191.63   1
  -6  10 -11 23699.4 3193.35   1
   4 -10  11 19454.1 2904.27   1
   6 -10  11 22000.1 3106.36   1
 -10   4  11 20043.4 3216.69   2
  10  -6 -10 333411. 12160.9   1
 -10   6  10 320225. 11968.8   1
 -10   4  10 313387. 11699.5   1
  -4  10 -10 339014. 12384.2   1
  -6  10 -10 301810. 11653.4   1
   4 -10  10 322450. 11931.6   1
   6 -10  10 310264. 11658.2   1
 -10   4  10 293892. 12048.7   2
  10  -6  -9 17753.0 2926.70   1
 -10   4   9 15592.0 2529.18   1
  10  -4  -9 17002.2 2760.81   1
 -10   6   9 13304.2 2398.47   1
  -4  10  -9 16475.5 2670.50   1
  -6  10  -9 17491.5 2724.73   1
   4 -10   9 16205.7 2649.18   1
   6 -10   9 17247.0 2785.25   1
 -10   6   9 15173.4 2590.39   2
 -10   4   9 16331.9 2755.02   2
  -4  10  -8 2704.90 1067.13   1
 -10   6   8 2152.16 1023.71   1
 -10   4   8 3100.46 1267.61   1
  10  -6  -8 2594.45 1097.19   1
  10  -4  -8 1474.49 887.868   1
  -6  10  -8 1792.26 749.438   1
   4 -10   8 1835.06 840.115   1
   6 -10   8 1940.23 885.856   1
 -10   6   8 2641.55 1106.77   2
 -10   4   8 1256.62 690.927   2
 -10   6   7 89351.7 6220.21   2
  10  -6  -7 95326.7 6328.52   1
 -10   6   7 81146.2 5824.35   1
 -10   4   7 89291.4 6086.35   1
  10  -4  -7 93145.6 6379.89   1
  -4  10  -7 92977.1 6136.22   1
  -6  10  -7 81528.5 5829.25   1
   4 -10   7 77332.4 5600.24   1
   6 -10   7 84694.8 5879.90   1
 -10   4   7 84244.3 6099.81   2
  10  -6  -6 69132.6 5350.72   1
 -10   6   6 80646.7 5730.96   1
 -10   4   6 78865.6 5756.43   1
  10  -4  -6 82179.9 5943.35   1
  -4  10  -6 80796.5 5673.11   1
   4 -10   6 89284.7 5987.03   1
  -6  10  -6 71909.7 5369.43   1
   6 -10   6 74986.8 5518.74   1
 -10   6   6 79907.7 5847.48   2
 -10   4   6 81732.5 5951.46   2
  10  -6  -5 53273.1 4676.98   1
 -10   6   5 52522.3 4586.54   1
 -10   4   5 48211.8 4467.84   1
  10  -4  -5 54941.9 4720.31   1
  -4  10  -5 52655.7 4542.30   1
   4 -10   5 52258.3 4611.01   1
   6 -10   5 57967.7 4784.77   1
  -6  10  -5 54285.5 4733.01   1
 -10   6   5 50887.0 4755.69   2
 -10   4   5 46638.5 4449.00   2
 -10   6   4 11222.5 2156.77   1
 -10   4   4 10983.4 1966.98   1
  10  -6  -4 11532.3 2205.64   1
  10  -4  -4 9684.20 1972.47   1
  -4  10  -4 10129.0 1878.68   1
   6 -10   4 13097.4 2283.88   1
  -6  10  -4 15739.0 2411.97   1
 -10   6   4 9663.79 2105.41   2
   4 -10   4 12971.7 2193.67   1
 -10   4   4 7874.92 1822.67   2
  -6  -4  -4 7932.50 1785.39   2
  10  -6  -3 91553.6 6103.22   1
 -10   6   3 78623.0 5645.36   1
  10  -4  -3 92508.1 5987.42   1
 -10   4   3 91691.8 6103.00   1
  -4  10  -3 75372.5 5422.40   1
   4 -10   3 81917.0 5717.07   1
   6 -10   3 86015.5 5697.11   1
 -10   6   3 79548.5 5861.36   2
 -10   4   3 88964.8 6060.84   2
  -6  10  -3 102186. 6241.94   1
  -6  -4  -3 75171.0 5390.61   2
  10  -6  -2 426014. 13290.6   1
 -10   6   2 418002. 12762.2   1
  10  -4  -2 438597. 13069.3   1
 -10   4   2 389499. 12440.2   1
   6 -10   2 377893. 12227.2   1
  -4  10  -2 437353. 13151.2   1
   4 -10   2 385804. 12313.9   1
 -10   6   2 397961. 12840.3   2
 -10   4   2 411830. 12824.9   2
  -6  -4  -2 487226. 13889.2   2
  -6  10  -2 368844. 12032.9   1
  -4  -6  -2 350187. 12002.3   2
  10  -6  -1 177209. 8382.96   1
  10  -4  -1 169198. 8120.47   1
 -10   4   1 165829. 8125.66   1
   6   4   1 180790. 8201.94   1
 -10   6   1 166954. 8323.24   2
  -4  10  -1 198602. 8894.21   1
   4 -10   1 177855. 8426.08   1
   4   6   1 164403. 7881.08   1
   6 -10   1 198578. 8720.22   1
 -10   4   1 174782. 8337.52   2
  -6  -4  -1 186325. 8566.03   2
  -4  -6  -1 167055. 8223.73   2
  -6  10  -1 163809. 7950.28   1
  -6  10   0 60681.6 4813.74   1
  10  -6   0 78289.4 5561.13   1
  10  -4   0 77753.7 5537.75   1
 -10   4   0 77773.1 5528.40   1
 -10   4   0 65405.2 5051.29   2
  -6  -4   0 78199.2 5408.06   1
  -4  -6   0 79708.2 5591.02   1
   6   4   0 73841.7 5250.15   1
  -4  10   0 76125.3 5504.19   1
   4 -10   0 60775.8 4927.62   1
 -10   6   0 83100.8 5784.32   2
   4   6   0 84511.4 5667.16   1
   6 -10   0 71244.7 5388.71   1
  -6  -4   0 72282.4 5394.70   2
  -4  -6   0 84942.7 5742.49   2
 -10   6   0 74225.3 5492.07   1
  10  -6   1 89874.1 6039.61   1
   4   6  -1 85676.9 5852.09   1
  -6  10   1 102067. 6174.34   1
  10  -4   1 89127.0 5954.17   1
 -10   4  -1 104941. 6367.04   1
  -6  -4   1 106851. 6386.78   1
  -4  -6   1 113227. 6590.24   1
   6   4  -1 92370.9 5909.40   1
 -10   6  -1 83848.9 5745.10   1
   4 -10  -1 123856. 7020.05   1
  -4  10   1 95107.7 6198.05   1
 -10   6  -1 86525.4 6179.85   2
 -10   4  -1 77841.7 5598.92   2
   6 -10  -1 69503.1 5289.46   1
  -6  -4   1 118622. 6926.36   2
  -4  -6   1 85582.5 5925.85   2
  10  -6   2 329648. 11623.6   1
  10  -4   2 413901. 12915.4   1
  -6  10   2 373495. 12298.2   1
 -10   4  -2 360407. 11903.7   1
 -10   4  -2 364154. 12159.7   2
  -6  -4   2 338471. 11550.0   1
  -4  -6   2 379989. 12477.7   1
 -10   6  -2 355357. 11790.4   1
   6   4  -2 355640. 11755.5   1
   4 -10  -2 315163. 11371.2   1
 -10   6  -2 364532. 12332.5   2
  -4  10   2 363705. 12101.1   1
   4   6  -2 370863. 12082.1   1
   6 -10  -2 279073. 10727.3   1
  -6  -4   2 355287. 12269.0   2
  -4  -6   2 422660. 13219.5   2
  10  -4   3 65380.1 5057.57   1
  -6  10   3 57422.1 4977.96   1
 -10   6  -3 71923.1 5296.81   1
  -6  -4   3 57853.3 4839.37   1
  -4  -6   3 61410.0 4997.15   1
   6   4  -3 63653.5 4882.92   1
   4 -10  -3 71734.2 5403.87   1
 -10   6  -3 71554.5 5434.76   2
 -10   4  -3 64509.7 5164.95   2
  -4  10   3 66593.4 5281.88   1
  -6  -4   3 63994.3 5249.75   2
   4   6  -3 71556.2 5317.87   1
  -4  -6   3 75225.3 5679.38   2
  10  -6   3 75805.9 5543.92   1
  -6  -4   4 5709.11 1540.16   2
   6 -10  -4 4609.52 1368.49   1
   6   4  -4 5109.46 1384.48   1
  -4  -6   4 5133.72 1499.10   2
  -4  10   4 5684.19 1485.84   1
  10  -6   4 5643.71 1520.08   1
  -6  10   4 5455.66 1498.98   1
  10  -4   4 4738.35 1247.97   1
   4   6  -4 6532.56 1669.18   1
 -10   4  -4 4986.80 1328.09   1
  -6  -4   4 6567.30 1505.44   1
 -10   6  -4 6137.29 1561.43   1
  -4  -6   4 4848.92 1446.73   1
 -10   6  -4 4907.69 1495.19   2
 -10   4  -4 5461.03 1497.52   2
   4 -10  -4 1799.94 809.515   1
  -6  10   5 25278.4 3238.19   1
  -6  -4   5 24482.6 3181.62   1
  -4  -6   5 28683.5 3366.34   1
   6   4  -5 24178.5 3152.26   1
 -10   6  -5 24400.0 3248.30   2
   4 -10  -5 27255.8 3227.92   1
 -10   4  -5 36591.7 3857.56   2
   4   6  -5 31862.9 3510.53   1
   6 -10  -5 30980.5 3515.76   1
  -4  10   5 36456.0 3922.98   1
 -10   6  -5 27723.6 3287.35   1
  10  -6   5 30895.4 3518.67   1
  -6  -4   5 23819.4 3186.69   2
  -4  -6   5 23761.3 3287.08   2
  -6  10   6 128884. 7437.28   1
  -6  -4   6 120295. 7147.95   1
  -4  -6   6 117098. 6998.54   1
   6   4  -6 120680. 6980.63   1
 -10   6  -6 108644. 6548.09   1
 -10   6  -6 123877. 7209.58   2
   4   6  -6 121424. 7054.08   1
 -10   4  -6 104555. 6601.22   2
  -4  10   6 92348.0 6271.04   1
  10  -6   6 108497. 6619.66   1
   4 -10  -6 107491. 6770.49   1
  -6  -4   6 125431. 7291.58   2
  -4  -6   6 115269. 7027.37   2
   6   4  -7 8654.57 1922.87   1
  -6  -4   7 7823.06 1915.12   2
   6 -10  -7 5388.47 1501.05   1
  -4  -6   7 7099.49 1761.22   2
   4   6  -7 11840.5 2146.63   1
  -4  10   7 8931.26 1981.68   1
  -6  10   7 8938.69 1999.00   1
  -6  -4   7 8623.58 1850.42   1
  -4  -6   7 10111.2 2010.69   1
 -10   6  -7 10917.7 2255.48   2
 -10   4  -7 7582.59 1829.75   2
  -6  10   8 18461.2 2829.52   1
  -6  -4   8 22004.1 3071.75   1
  -4  -6   8 22771.9 3013.62   1
   6   4  -8 26391.9 3238.72   1
 -10   6  -8 20822.5 2845.67   2
 -10   4  -8 24614.4 3354.82   2
   4   6  -8 21079.6 2938.81   1
   6 -10  -8 30488.3 3663.76   1
  -6  -4   8 23615.9 3251.25   2
  -4  -6   8 19897.6 3021.97   2
  -4  -6   9 129032. 7608.14   2
  -6  -4   9 121327. 7161.80   1
  -4  -6   9 124129. 7310.79   1
   6   4  -9 131823. 7363.70   1
 -10   6  -9 132919. 7633.05   2
 -10   4  -9 135997. 7939.47   2
   4   6  -9 118933. 6940.02   1
  -6  -4   9 119972. 7218.57   2
  -4  -6  10 161909. 8486.39   2
  -6  -4  10 175174. 8760.93   1
  -4  -6  10 190648. 9226.93   1
   6   4 -10 162463. 8294.44   1
 -10   4 -10 146166. 8368.32   2
   4   6 -10 176106. 8507.64   1
  -6  -4  10 186090. 9316.88   2
  -4  -6  11 157429. 8287.92   2
  -6  -4  11 179622. 8772.62   1
  -4  -6  11 175683. 8837.98   1
   6   4 -11 173460. 8502.86   1
   4   6 -11 151700. 7952.99   1
  -6  -4  11 166668. 8737.99   2
  -4  -6  12 20621.6 3052.36   2
  -6  -4  12 19001.4 2846.03   1
  -4  -6  12 19661.7 2973.73   1
   6   4 -12 18552.9 2856.11   1
   4   6 -12 14586.5 2544.79   1
  -6  -4  12 20412.6 3069.81   2
  -6  -4  13 9634.23 2097.19   2
  -7  10 -13 295.961 165.953   1
 -10   7  13 171.642 292.267   1
  10  -7 -13-165.756 388.844   1
   7 -10  13 739.442 680.209   1
 -10   7  12 12398.1 2372.52   1
 -10   3  12 12648.0 2369.28   1
  10  -7 -12 10320.9 2246.76   1
  -7  10 -12 10801.2 2321.96   1
  10  -3 -12 10702.6 2141.67   1
   3 -10  12 12959.0 2258.64   1
  -3  10 -12 12153.4 2303.19   1
   7 -10  12 10765.4 2186.55   1
 -10   3  12 10847.5 2403.67   2
  10  -7 -11 26958.7 3428.62   1
 -10   3  11 23627.5 3393.51   2
 -10   7  11 25573.9 3316.74   1
  -3  10 -11 25607.9 3409.06   1
 -10   3  11 31524.4 3799.50   1
  10  -3 -11 25270.9 3364.85   1
  -7  10 -11 28374.6 3656.97   1
   3 -10  11 27846.4 3494.50   1
   7 -10  11 28112.5 3548.01   1
  10  -7 -10 122363. 7569.00   1
 -10   7  10 88303.0 6284.90   1
  -3  10 -10 102921. 6640.23   1
 -10   3  10 106701. 6828.48   1
  10  -3 -10 103528. 6677.90   1
  -7  10 -10 98527.7 6781.18   1
   3 -10  10 121843. 7324.18   1
   7 -10  10 88506.6 6297.01   1
 -10   3  10 92397.6 6622.74   2
  10  -7  -9 139202. 7866.93   1
 -10   7   9 118128. 7185.31   1
 -10   3   9 107777. 6911.33   1
  -3  10  -9 118932. 7264.86   1
  10  -3  -9 120784. 7198.71   1
   3 -10   9 112057. 7003.33   1
  -7  10  -9 94693.8 6585.85   1
   7 -10   9 98226.7 6592.56   1
 -10   3   9 109683. 7079.09   2
  10  -7  -8 68993.9 5490.85   1
 -10   7   8 66174.3 5354.41   1
 -10   3   8 63643.9 5317.09   1
  10  -3  -8 56833.6 4973.34   1
  -3  10  -8 70269.9 5532.01   1
   3 -10   8 57822.9 4924.26   1
  -7  10  -8 62330.1 5168.48   1
   7 -10   8 59378.5 5082.96   1
 -10   3   8 62051.6 5315.83   2
  10  -7  -7 83561.8 5957.03   1
 -10   7   7 69217.7 5244.66   1
 -10   3   7 66030.7 5433.18   1
  10  -3  -7 74694.0 5488.14   1
  -3  10  -7 65815.2 5281.32   1
   3 -10   7 65059.5 5296.47   1
  -7  10  -7 69738.0 5482.76   1
   7 -10   7 71136.1 5390.47   1
 -10   7   7 63598.6 5511.93   2
 -10   3   7 69042.2 5571.50   2
  10  -7  -6 351823. 12116.1   1
 -10   7   6 332382. 11660.0   1
 -10   3   6 335746. 11962.5   1
  10  -3  -6 377483. 12546.4   1
  -3  10  -6 333149. 11719.8   1
   3 -10   6 309600. 11269.6   1
   7 -10   6 347038. 11991.0   1
 -10   7   6 334117. 12301.8   2
  -7  10  -6 387953. 12881.1   1
 -10   3   6 332119. 12010.9   2
  10  -7  -5 93066.4 6123.78   1
 -10   7   5 73591.6 5376.31   1
 -10   3   5 80203.8 5747.49   1
  10  -3  -5 80436.3 5825.74   1
 -10   7   5 66444.8 5484.14   2
  -3  10  -5 84811.8 5961.44   1
   3 -10   5 81971.9 5862.63   1
   7 -10   5 76378.4 5562.37   1
 -10   3   5 72696.5 5516.31   2
  -7  -3  -5 93507.1 6202.59   2
  -7  10  -5 75435.4 5498.10   1
   7 -10   4 1333.43 892.107   1
 -10   3   4 464.236 459.788   1
  -3  10  -4-98.9646 590.453   1
  10  -7  -4 752.404 678.521   1
  -7  10  -4 199.054 263.456   1
  10  -3  -4-400.877 642.983   1
   3 -10   4 275.029 218.208   1
 -10   7   4 805.650 518.095   2
 -10   7   4 130.805 271.662   1
 -10   3   4 119.992 605.343   2
  -7  -3  -4-185.389 520.310   2
 -10   7   3 154037. 7713.16   1
  10  -7  -3 134652. 7327.67   1
 -10   3   3 133531. 7475.18   1
  10  -3  -3 147095. 7839.59   1
  -3  10  -3 147054. 7669.44   1
   3 -10   3 136915. 7405.56   1
 -10   7   3 141184. 7830.45   2
   7 -10   3 127783. 7033.05   1
 -10   3   3 133751. 7430.95   2
  -7  -3  -3 154564. 7872.37   2
  -7  10  -3 135658. 7336.98   1
  10  -7  -2 194988. 8850.54   1
  -7  10  -2 192818. 8759.10   1
 -10   3   2 206410. 9129.80   1
  10  -3  -2 194712. 9010.37   1
  -3  10  -2 201158. 9095.51   1
 -10   7   2 195886. 9118.57   2
   7 -10   2 223827. 9581.63   1
 -10   3   2 194486. 8986.25   2
 -10   7   2 193247. 8680.95   1
  -7  -3  -2 211538. 9199.75   2
  10  -7  -1 124799. 7116.43   1
  -7  10  -1 135580. 7202.83   1
 -10   3   1 138266. 7416.53   1
  10  -3  -1 143838. 7509.80   1
  -3  -7  -1 125596. 6949.86   1
  -3  10  -1 124836. 7156.79   1
 -10   7   1 128864. 7008.90   1
   3 -10   1 131355. 7339.51   1
 -10   7   1 130372. 7436.54   2
   7 -10   1 112600. 6719.75   1
 -10   3   1 118543. 6944.30   2
   3   7   1 123311. 6934.30   1
  -7  -3  -1 143234. 7607.56   2
  -3  -7  -1 118406. 7060.28   2
  10  -7   0 39378.4 3884.17   1
  10  -3   0 45654.3 4219.09   1
 -10   3   0 36383.3 3861.90   1
  -7  10   0 38868.9 3803.87   1
  -7  -3   0 51798.5 4567.87   1
  -3  -7   0 44612.3 4108.96   1
 -10   7   0 38263.1 3769.43   1
   7   3   0 38479.0 3794.95   1
  -3  10   0 43143.2 4247.26   1
   3 -10   0 31878.3 3509.18   1
 -10   7   0 41942.0 4277.82   2
 -10   3   0 40558.7 4102.32   2
   7 -10   0 38957.8 3954.40   1
   3   7   0 42957.3 4061.69   1
  -7  -3   0 35165.9 3751.11   2
  -3  -7   0 46805.4 4357.46   2
  10  -3   1 38133.7 3889.09   1
 -10   3  -1 37474.2 3850.52   1
  -7  10   1 32221.9 3509.40   1
 -10   7  -1 32443.0 3571.59   1
  -7  -3   1 36413.6 3780.32   1
  -3  -7   1 32029.8 3568.76   1
   7   3  -1 33809.3 3590.94   1
  -3  10   1 34530.1 3760.64   1
   3 -10  -1 52994.7 4654.72   1
 -10   7  -1 35726.5 3745.02   2
 -10   3  -1 33348.8 3612.75   2
   7 -10  -1 35292.1 3778.80   1
   3   7  -1 39561.2 3900.30   1
  -7  -3   1 33793.1 3745.03   2
  -3  -7   1 33490.5 3763.58   2
  10  -7   1 31331.6 3626.64   1
 -10   7  -2 269093. 10194.2   1
  10  -3   2 276628. 10653.9   1
 -10   3  -2 247214. 9922.20   1
  -7  10   2 275801. 10544.5   1
  -7  -3   2 267534. 10290.6   1
  -3  -7   2 267162. 10354.1   1
   7   3  -2 252248. 9978.25   1
  -3  10   2 281989. 10690.9   1
   3 -10  -2 244740. 10089.1   1
 -10   7  -2 232683. 9911.47   2
 -10   3  -2 249710. 9883.30   2
   7 -10  -2 172050. 8348.16   1
   3   7  -2 231348. 9581.98   1
  -7  -3   2 202936. 9245.40   2
  10  -7   2 246086. 10146.6   1
  -3  -7   2 246458. 9947.96   2
  -7  -3   3 2709.26 1016.68   2
  -3  -7   3 2032.63 1048.74   2
   7 -10  -3 947.221 292.379   1
  10  -7   3 1576.40 839.401   1
 -10   3  -3 2456.62 996.519   1
 -10   7  -3 1440.17 819.876   1
  10  -3   3 2593.41 1000.96   1
   3   7  -3 1990.50 811.037   1
  -7  10   3 1902.77 687.156   1
  -7  -3   3 1697.12 884.488   1
  -3  -7   3 2380.88 1090.43   1
  -3  10   3 2454.92 916.667   1
 -10   7  -3 1986.89 879.556   2
 -10   3  -3 1462.25 796.969   2
   3 -10  -3 933.392 642.666   1
   7   3  -3 2021.68 923.119   1
  -3  -7   4 43039.8 4175.41   2
  -7  -3   4 35585.4 3794.63   1
  -7  10   4 39619.2 4023.90   1
  -3  -7   4 32241.2 3631.04   1
   7   3  -4 33435.8 3586.59   1
 -10   3  -4 31959.0 3711.33   2
  -3  10   4 42083.6 4179.93   1
   3 -10  -4 30080.6 3510.39   1
 -10   7  -4 31484.1 3711.05   2
 -10   7  -4 37786.3 3834.21   1
   7 -10  -4 49793.0 4460.98   1
   3   7  -4 38288.3 3859.21   1
  -7  -3   4 37060.3 3970.91   2
  10  -7   4 34458.9 3736.50   1
  -3  -7   5 76178.2 5798.68   2
  -7  -3   5 71998.5 5393.39   1
  -7  10   5 70743.8 5512.30   1
  -3  -7   5 79843.0 5653.33   1
   7   3  -5 69678.1 5347.07   1
 -10   7  -5 86472.3 5834.76   1
  -3  10   5 87706.1 6117.55   1
   3 -10  -5 50136.7 4651.19   1
 -10   7  -5 77494.8 5645.73   2
 -10   3  -5 68857.8 5536.30   2
   3   7  -5 70567.1 5285.19   1
   7 -10  -5 59969.1 5005.17   1
  10  -7   5 73853.2 5490.28   1
  -7  -3   5 88335.5 6235.05   2
  -3  -7   6 199984. 9407.30   2
  -7  -3   6 186410. 8860.69   1
  -3  -7   6 202581. 9112.10   1
  -7  10   6 268292. 10513.9   1
 -10   7  -6 212090. 9293.98   1
   7   3  -6 201771. 9082.46   1
  -3  10   6 260299. 10625.0   1
 -10   7  -6 173291. 8732.18   2
 -10   3  -6 162345. 8328.11   2
   3   7  -6 212449. 9299.85   1
   7 -10  -6 190872. 8959.88   1
  10  -7   6 203692. 9095.78   1
  -7  -3   6 221334. 9754.85   2
  -3  -7   7 252108. 10564.4   2
  -7  -3   7 234290. 9872.28   1
 -10   7  -7 211412. 9566.18   1
  -3  -7   7 215369. 9625.75   1
  -7  10   7 225199. 9768.68   1
   7   3  -7 235776. 9894.20   1
 -10   7  -7 247342. 10232.1   2
 -10   3  -7 219940. 9941.86   2
   3   7  -7 228557. 9684.76   1
  10  -7   7 250923. 10402.2   1
   7 -10  -7 300565. 11311.1   1
  -7  -3   7 193367. 9305.38   2
  -3  -7   8 20426.7 3129.26   2
  -7  -3   8 19410.2 2846.85   1
  -3  -7   8 20189.4 2965.22   1
  -7  10   8 14290.8 2465.72   1
   7   3  -8 17013.8 2678.26   1
   3   7  -8 16683.8 2647.56   1
 -10   3  -8 14396.6 2488.86   2
   7 -10  -8 18305.8 2862.76   1
  -7  -3   8 18302.2 2821.37   2
  -3  -7   9 71687.5 5697.52   2
 -10   3  -9 51909.7 4940.22   2
  -7  -3   9 63683.9 5273.27   1
  -3  -7   9 72926.2 5580.98   1
   7   3  -9 62356.5 5027.44   1
  -7  10   9 60741.0 5156.66   1
   3   7  -9 71044.6 5417.88   1
   7 -10  -9 49571.1 4826.62   1
  -7  -3   9 66076.0 5512.61   2
  -3  -7  10 261550. 10865.2   2
  -7  -3  10 234901. 10094.4   1
  -3  -7  10 237368. 10164.2   1
   7   3 -10 246541. 10317.0   1
  -7  10  10 258475. 10797.5   1
   3   7 -10 214345. 9455.85   1
  -7  -3  10 250900. 10872.7   2
  -3  -7  11 12893.1 2450.97   2
   3   7 -11 11302.9 2149.09   1
  -7  -3  11 13954.1 2456.62   1
  -3  -7  11 12091.6 2250.14   1
 -10   3 -11 10428.4 2290.60   2
  -7  -3  11 14503.9 2555.54   2
   7   3 -11 10225.1 2106.86   1
  -7  -3  12 2136.12 1166.30   2
  -3  -7  12 1544.01 710.105   2
   3   7 -12 2149.92 988.686   1
  -7  -3  12 1688.44 1001.72   1
  -3  -7  12 1893.63 990.889   1
 -10   3 -12 1523.18 785.086   2
   7   3 -12 2219.06 1036.96   1
 -10   2  13 66.1683 341.941   2
  10  -8 -12 146367. 8451.76   1
  -8  10 -12 149202. 8647.66   1
   8 -10  12 131843. 8146.20   1
 -10   2  12 145642. 8570.01   2
 -10   8  12 138719. 8224.14   1
   2 -10  11 1384.58 759.938   2
  10  -8 -11 1458.55 922.040   1
 -10   8  11 123.887 424.052   1
 -10   2  11 2033.91 699.441   1
  -8  10 -11 1398.48 689.576   1
  10  -2 -11 1303.54 895.390   1
   2 -10  11 1269.55 826.248   1
  -2  10 -11 1430.04 779.141   1
   8 -10  11 479.100 137.325   1
 -10   2  11 1145.05 765.602   2
  10  -8 -10 1309.64 736.184   1
 -10   2  10 1044.76 723.860   1
  10  -2 -10 1484.07 825.463   1
  -8  10 -10 1052.66 524.798   1
 -10   8  10 2232.60 1090.39   1
   2 -10  10 250.828 377.262   1
  -2  10 -10 577.154 601.050   1
   8 -10  10 1107.07 683.182   1
 -10   2  10 862.685 642.631   2
  10  -8  -9 474.811 471.326   1
 -10   2   9 576.541 610.801   1
 -10   8   9 1262.12 829.976   1
  10  -2  -9 602.333 349.081   1
   2 -10   9 412.121 130.233   1
  -8  10  -9 250.413 500.091   1
  -2  10  -9 679.826 801.691   1
   8 -10   9 376.863 462.729   1
 -10   2   9 704.923 269.835   2
 -10   8   8 287929. 11330.1   1
  10  -8  -8 347590. 12243.9   1
  -2  10  -8 301010. 11264.8   1
 -10   2   8 295671. 11358.9   1
  10  -2  -8 298274. 11385.0   1
   2 -10   8 291754. 11227.2   1
  -8  10  -8 307849. 11812.6   1
   8 -10   8 253066. 10533.9   1
 -10   2   8 272685. 11108.3   2
  10  -8  -7 16447.1 2508.04   1
  -2  10  -7 14149.1 2486.09   1
 -10   2   7 14164.2 2417.35   1
  10  -2  -7 13331.4 2407.00   1
   2 -10   7 13603.7 2391.98   1
 -10   2   7 14471.9 2508.09   2
  -8  10  -7 12818.1 2385.04   1
 -10   8   7 16983.4 2719.85   1
   8 -10   7 13597.7 2372.53   1
  -2  10  -6 984.049 750.620   1
  -8  10  -6 587.551 510.899   1
  10  -8  -6 141.972 306.851   1
 -10   2   6 497.989 579.673   1
 -10   8   6 425.703 505.039   1
  10  -2  -6 570.807 573.774   1
   2 -10   6 177.131 120.886   1
 -10   8   6 1284.63 829.966   2
  -8  -2  -6-55.5746 243.024   2
 -10   2   6 982.739 735.620   2
   8 -10   6-332.205 235.566   1
   8 -10   5-255.287 234.569   1
  -2  10  -5 562.390 509.714   1
 -10   8   5 69.5454 485.971   1
  10  -8  -5 583.031 466.527   1
 -10   2   5 604.952 537.537   1
  -8  10  -5-77.8969 207.876   1
  10  -2  -5 740.547 720.386   1
   2 -10   5 840.026 439.899   1
 -10   8   5-646.626 560.932   2
  -8  -2  -5 393.547 221.676   2
 -10   2   5-297.745 721.501   2
  10  -8  -4 491260. 14387.5   1
  -8  10  -4 520370. 14601.6   1
 -10   2   4 465677. 14101.0   1
  10  -2  -4 507756. 14640.8   1
  -2  10  -4 443154. 13649.0   1
 -10   8   4 527126. 14676.1   1
 -10   8   4 510169. 15259.2   2
   8 -10   4 508125. 14703.8   1
  -8  -2  -4 475305. 14371.9   2
 -10   2   4 470091. 14143.6   2
   8 -10   3 6860.55 1754.41   1
  -8  10  -3 6984.30 1697.37   1
   2 -10   3 4839.46 1556.71   2
  -2  10  -3 6017.66 1575.81   1
  10  -8  -3 5868.66 1521.12   1
 -10   2   3 6799.22 1723.71   1
 -10   8   3 4116.05 1221.45   1
  10  -2  -3 5140.22 1410.90   1
   2 -10   3 4909.41 1528.63   1
 -10   8   3 6283.18 1742.78   2
 -10   2   3 6049.66 1579.90   2
  -8  -2  -3 6233.29 1585.70   2
   2 -10   2 28258.4 3689.40   2
  -8  10  -2 37630.6 3885.34   1
 -10   2   2 31573.3 3686.52   1
  10  -2  -2 40776.5 4178.41   1
 -10   8   2 32832.9 3626.72   1
  -2  10  -2 37786.6 3878.04   1
   2 -10   2 22050.1 3022.44   1
 -10   8   2 35070.7 3914.07   2
   8 -10   2 34673.1 3713.53   1
 -10   2   2 40813.4 3983.47   2
  -8  -2  -2 31968.4 3597.02   2
  10  -8  -2 33496.3 3734.37   1
   8 -10   1-429.256 492.941   1
   2 -10   1 150.256 394.321   2
  10  -8  -1-188.706 363.282   1
  -2  10  -1-17.9295 271.788   1
 -10   2   1-527.260 554.262   1
  -8  10  -1-441.392 325.396   1
  10  -2  -1 651.706 463.744   1
   2   8   1 309.830 359.563   1
  -2  -8  -1 14.2143 425.586   1
   2 -10   1-229.013 341.971   1
 -10   8   1 6.23489 269.470   2
 -10   8   1-408.143 621.513   1
 -10   2   1 118.729 126.440   2
  -8  -2  -1-294.050 240.100   2
 -10   8   0 332325. 11410.7   1
 -10   2   0 384432. 12706.9   1
  10  -2   0 361143. 12379.4   1
  -8  -2   0 338457. 11960.3   1
  -8  10   0 368202. 12255.0   1
   8   2   0 378365. 12279.0   1
  -2  10   0 384188. 12765.0   1
  -2  -8   0 428506. 13401.3   1
   2 -10   0 331876. 11774.3   1
 -10   8   0 369854. 12805.8   2
 -10   2   0 366003. 12228.6   2
  -8  -2   0 353329. 12067.5   2
  10  -8   0 369293. 12410.1   1
   2   8   0 398886. 12712.6   1
  -2  -8   0 386797. 12696.2   2
   8 -10   0 342614. 11711.8   1
  -8  -2   1 3103.58 1192.84   2
  -2  -8   1 3608.80 1271.01   2
   8 -10  -1 3336.70 1191.70   1
  10  -8   1 3400.59 1229.48   1
 -10   2  -1 3730.44 1309.44   1
  -2  10   1 5674.24 1572.74   1
 -10   8  -1 4060.15 1356.95   1
  -8  -2   1 3181.27 1212.14   1
  10  -2   1 5132.83 1346.50   1
  -8  10   1 3713.93 1143.13   1
   2   8  -1 3347.86 1170.02   1
  -2  -8   1 2241.51 895.609   1
   8   2  -1 2283.38 906.363   1
 -10   8  -1 2975.86 1145.22   2
   2 -10  -1 3491.80 1179.35   1
 -10   2  -1 3814.48 1280.71   2
  -2  -8   2 18490.6 2830.23   2
  10  -2   2 20778.9 2828.29   1
  -8  -2   2 17334.7 2722.70   1
   8   2  -2 20641.0 2817.52   1
  -2  10   2 24808.5 3205.39   1
  -8  10   2 22257.5 2979.09   1
  -2  -8   2 19368.1 2810.99   1
   2 -10  -2 23697.2 3141.88   1
 -10   8  -2 19137.3 2889.57   2
 -10   2  -2 15405.3 2565.00   2
 -10   8  -2 20628.6 2814.84   1
   8 -10  -2 22051.0 3059.82   1
  -8  -2   2 24096.8 3087.12   2
  10  -8   2 21284.3 2967.04   1
   2   8  -2 22488.2 3011.72   1
  -8  -2   3 1153.15 822.430   2
  -2  -8   3 1857.77 755.391   2
   8 -10  -3 589.480 662.724   1
  10  -8   3 547.508 349.222   1
  -2  10   3 296.955 223.913   1
  -8  -2   3 1299.70 750.143   1
   2   8  -3-241.648 252.270   1
  -8  10   3 1332.75 707.071   1
  -2  -8   3 998.123 815.796   1
 -10   8  -3-170.463 274.584   2
   8   2  -3 1136.47 543.724   1
   2 -10  -3 501.897 405.027   1
 -10   8  -3 1403.81 743.413   1
 -10   2  -3 1611.29 855.465   2
  -2  -8   4 351678. 12367.7   2
  -8  -2   4 324195. 11650.4   1
   8   2  -4 365631. 12317.6   1
  -2  10   4 406698. 13220.4   1
  -2  -8   4 331196. 11777.2   1
  -8  10   4 308512. 11137.3   1
 -10   8  -4 354105. 11925.4   1
 -10   8  -4 373609. 12650.0   2
 -10   2  -4 370899. 12484.6   2
   8 -10  -4 304005. 11284.7   1
  10  -8   4 363927. 12353.4   1
  -8  -2   4 394404. 12976.5   2
   2   8  -4 356103. 12192.1   1
  -2  -8   5 17530.8 2714.17   2
  -8  -2   5 15674.1 2548.62   1
 -10   8  -5 15795.8 2523.31   1
   8   2  -5 15931.6 2605.15   1
  -2  -8   5 16197.3 2661.33   1
  -8  10   5 15993.3 2463.40   1
 -10   2  -5 18929.1 2891.86   2
  10  -8   5 18446.1 2805.40   1
   8 -10  -5 21294.2 2994.12   1
  -8  -2   5 20421.8 3049.28   2
   2   8  -5 15901.4 2634.77   1
  -8  -2   6 167.053 358.331   2
  10  -8   6-379.442 525.485   1
  -2  -8   6 124.316 373.043   2
   8 -10  -6 471.080 572.621   1
 -10   8  -6-448.631 366.504   1
  -8  -2   6 453.778 510.467   1
   2   8  -6 214.592 181.451   1
  -2  -8   6 89.2018 234.064   1
  -8  10   6 226.054 70.5820   1
 -10   2  -6 251.509 90.3068   2
   8   2  -6 376.221 601.745   1
  -8  -2   7 8592.67 1931.89   2
  10  -8   7 5725.15 1630.06   1
  -2  -8   7 5413.05 1523.48   2
   8 -10  -7 3891.43 1375.72   1
 -10   8  -7 4732.76 1468.71   1
  -8  -2   7 6566.86 1673.23   1
   2   8  -7 6826.76 1753.83   1
  -2  -8   7 6558.35 1711.52   1
 -10   2  -7 4612.89 1485.57   2
  -8  10   7 6335.96 1526.29   1
   8   2  -7 4761.75 1317.20   1
  -2  -8   8 353381. 12482.6   2
 -10   8  -8 290928. 11618.8   1
  -8  -2   8 338791. 12041.5   1
  -2  -8   8 317996. 11654.7   1
   8   2  -8 303141. 11362.0   1
  -8  10   8 350321. 12235.9   1
  10  -8   8 322249. 12175.8   1
 -10   2  -8 280446. 11549.9   2
   2   8  -8 321122. 11620.7   1
  -8  -2   8 351309. 12720.5   2
   8 -10  -8 268153. 11128.8   1
  -8  -2   9 5864.15 1654.68   2
  -2  -8   9 8836.24 1929.76   2
   8 -10  -9 7112.67 1810.08   1
   2   8  -9 7991.35 1718.75   1
  -8  -2   9 7556.70 1848.72   1
  -2  -8   9 7271.11 1774.87   1
 -10   2  -9 4947.23 1416.37   2
   8   2  -9 6805.87 1674.53   1
  -8  10   9 7668.96 1823.78   1
  -8  -2  10 4396.73 1493.70   2
  -2  -8  10 3975.40 1270.00   2
   8 -10 -10 2620.54 1137.18   1
   2   8 -10 3891.68 1277.68   1
  -8  -2  10 5002.42 1509.76   1
  -2  -8  10 5707.54 1486.29   1
 -10   2 -10 5160.18 1598.64   2
   8   2 -10 4204.56 1419.12   1
  -8  10  10 5807.32 1624.20   1
  -8  10  11 1639.69 821.588   1
  -8  -2  11 2552.40 1069.23   2
  -2  -8  11 2160.17 1008.51   2
   8 -10 -11 450.447 234.308   1
   2   8 -11 1126.70 812.681   1
  -8  -2  11 870.009 549.479   1
  -2  -8  11 1659.04 961.006   1
   8   2 -11 1385.21 827.983   1
  10  -9 -11 80138.7 6257.67   1
 -10   9  11 52671.5 5054.35   1
  -9  10 -11 64013.8 5747.89   1
   9 -10  11 57598.9 5247.84   1
 -10   1  11 75320.7 6068.10   2
  10  -9 -10 140330. 8229.66   1
  -1  10 -10 123039. 7198.09   1
   1 -10  10 126452. 7962.62   2
 -10   1  10 127231. 7607.09   1
  10  -1 -10 132888. 7832.62   1
 -10   9  10 135451. 7886.45   1
   1 -10  10 145825. 7954.01   1
  -9  10 -10 129486. 7900.15   1
   9 -10  10 109977. 7289.49   1
 -10   1  10 126119. 7779.54   2
  10  -9  -9 107873. 7045.17   1
  -1  10  -9 121090. 7094.69   1
   1 -10   9 88070.8 6585.74   2
 -10   1   9 111011. 7016.35   1
  10  -1  -9 90973.3 6511.20   1
 -10   9   9 112180. 7288.96   1
   1 -10   9 96858.5 6553.20   1
   9 -10   9 88612.7 6466.03   1
  -9  10  -9 90160.6 6556.99   1
 -10   1   9 105004. 7055.87   2
   1 -10   8 60685.9 5454.14   2
  -1  10  -8 49667.4 4545.51   1
 -10   1   8 49367.8 4616.50   1
  10  -1  -8 51033.7 4786.51   1
 -10   9   8 62071.1 5206.01   1
   1 -10   8 46782.4 4578.66   1
   9 -10   8 43936.2 4502.98   1
  -9  10  -8 42079.7 4440.18   1
 -10   1   8 50123.4 4789.10   2
  10  -9  -8 56106.7 5047.99   1
  -1  10  -7 12743.1 2322.42   1
   1 -10   7 7632.53 1927.53   2
 -10   1   7 13052.6 2364.01   1
 -10   9   7 13352.8 2233.67   1
  -9  10  -7 12261.1 2347.44   1
  10  -1  -7 11983.6 2273.13   1
   1 -10   7 10525.3 2149.45   1
  -9  -1  -7 9494.24 2080.16   2
 -10   1   7 11191.8 2119.67   2
  10  -9  -7 17756.2 2830.14   1
   9 -10   7 11834.2 2281.94   1
   1 -10   6 49369.1 5004.78   2
  -1  10  -6 69198.5 5417.34   1
 -10   1   6 57475.2 4950.80   1
 -10   9   6 62877.6 5112.01   1
  10  -1  -6 61914.7 5250.40   1
   1 -10   6 72748.8 5705.91   1
   9 -10   6 59210.4 5091.64   1
  -9  -1  -6 49462.4 4660.33   2
 -10   1   6 61561.7 5156.06   2
  -9  10  -6 63391.5 5269.04   1
  10  -9  -6 60006.2 5074.16   1
  -9  10  -5 20195.6 3024.23   1
   1 -10   5 17444.6 2835.70   2
  -1  10  -5 22452.9 3133.84   1
 -10   1   5 21069.4 3017.41   1
 -10   9   5 22158.4 2940.26   1
  10  -1  -5 19631.5 2952.24   1
   1 -10   5 22295.8 3095.75   1
   9 -10   5 20862.8 3003.29   1
  -9  -1  -5 17124.1 2765.02   2
 -10   1   5 24903.9 3260.20   2
  10  -9  -5 28573.0 3515.19   1
   9 -10   4 1106.72 639.881   1
   1 -10   4 729.289 491.924   2
  -9  10  -4 1332.70 768.731   1
  10  -9  -4 979.276 654.512   1
 -10   1   4 1174.51 781.390   1
  10  -1  -4 427.124 432.344   1
 -10   9   4 1292.65 588.982   1
   1 -10   4 1857.95 1111.82   1
 -10   9   4 1457.11 960.050   2
  -1  10  -4 861.301 789.588   1
  -9  -1  -4 1072.15 627.626   2
 -10   1   4 1689.25 923.558   2
   1 -10   3 64951.2 5585.25   2
 -10   9   3 82305.4 5613.90   1
  -1  10  -3 83659.9 5934.67   1
  -9  10  -3 89089.2 6091.29   1
 -10   1   3 74356.2 5643.12   1
  10  -1  -3 81769.5 5940.17   1
   1 -10   3 67164.3 5438.10   1
 -10   9   3 64348.9 5489.78   2
   9 -10   3 77685.2 5748.68   1
  -9  -1  -3 79036.1 5981.64   2
 -10   1   3 93569.6 6226.51   2
  10  -9  -3 86942.6 5953.60   1
 -10   9   2 314307. 11378.9   1
   1 -10   2 271586. 11334.9   2
 -10   1   2 293728. 11402.2   1
  -1  10  -2 271671. 10901.6   1
  10  -1  -2 296061. 11386.9   1
  -9  10  -2 313965. 11508.1   1
   1 -10   2 343907. 12290.1   1
 -10   9   2 276817. 11362.0   2
  -9  -1  -2 311319. 11679.7   2
 -10   1   2 324665. 11778.3   2
   9 -10   2 303012. 11375.9   1
  10  -9  -2 329524. 11858.4   1
   1   9   1 80471.5 5856.85   1
 -10   1   1 95391.3 6550.55   1
  -1  10  -1 89048.2 6296.39   1
  10  -1  -1 105420. 6759.96   1
  -9  10  -1 120946. 7033.82   1
  -1  -9  -1 106697. 6870.86   1
   1 -10   1 110623. 6915.27   1
 -10   9   1 110371. 7046.39   2
 -10   1   1 116796. 7072.65   2
  -9  -1  -1 111646. 6937.82   2
   9 -10   1 116093. 6913.88   1
 -10   9   1 110107. 6618.44   1
  10  -9  -1 110205. 6649.33   1
   1   9   0 38643.2 3996.20   1
 -10   1   0 37807.7 4133.06   1
  10  -1   0 41636.2 4211.92   1
  -1  10   0 41441.0 4193.10   1
   9   1   0 46377.6 4454.99   1
  -9  10   0 41921.7 4127.74   1
  -1  -9   0 38144.1 4083.88   1
   1 -10   0 50699.0 4705.16   1
 -10   9   0 33491.6 3906.08   2
 -10   9   0 42205.1 4036.24   1
 -10   1   0 41634.7 4254.70   2
  -9  -1   0 33096.7 3823.30   2
   9 -10   0 43365.0 4241.85   1
  10  -9   0 41027.6 4042.43   1
  -1  -9   1 126831. 7451.63   2
   1   9  -1 134619. 7535.92   1
  10  -1   1 155598. 8360.15   1
  -9  -1   1 143266. 7865.50   1
  -1  10   1 156834. 8342.18   1
   9   1  -1 156609. 8300.91   1
  -9  10   1 143405. 7643.16   1
  -1  -9   1 163396. 8397.05   1
   1 -10  -1 132805. 7605.02   1
 -10   9  -1 154489. 7813.19   1
 -10   9  -1 140297. 8005.35   2
 -10   1  -1 136711. 7703.40   2
  -9  -1   1 168238. 8463.77   2
   9 -10  -1 135169. 7482.60   1
  10  -9   1 143910. 7716.14   1
  -1  -9   2 325854. 12210.3   2
   1   9  -2 336175. 11825.8   1
  -9  -1   2 305122. 11615.3   1
  -1  10   2 286830. 11280.6   1
   9   1  -2 316679. 11704.3   1
  -1  -9   2 310342. 11591.1   1
  -9  10   2 289671. 10744.8   1
 -10   9  -2 330351. 11598.2   1
 -10   1  -2 310275. 11672.4   2
  -9  -1   2 301783. 11226.8   2
   9 -10  -2 279199. 10645.5   1
  10  -9   2 324652. 11620.6   1
  -1  -9   3 28314.1 3577.98   2
   1   9  -3 41293.7 4144.85   1
  -9  -1   3 32488.5 3700.48   1
  -1  10   3 37722.3 4111.23   1
   9   1  -3 40977.3 4239.80   1
 -10   9  -3 37726.1 3993.78   1
  -1  -9   3 33687.7 3857.14   1
  -9  10   3 37186.5 3779.48   1
 -10   1  -3 39809.0 4045.24   2
  -9  -1   3 49909.6 4506.53   2
  10  -9   3 40082.8 3997.68   1
   9 -10  -3 41024.2 4184.24   1
   1   9  -4 44487.3 4284.45   1
  -1  -9   4 33151.5 3869.49   2
  -9  -1   4 41651.8 4319.49   1
   9   1  -4 41761.8 4224.51   1
 -10   9  -4 38530.5 4149.25   1
  -1  -9   4 34409.3 3740.93   1
  -9  10   4 50519.8 4397.93   1
 -10   1  -4 40274.5 4213.37   2
  10  -9   4 47310.5 4509.85   1
  -9  -1   4 37339.3 4003.74   2
   9 -10  -4 35027.8 3882.25   1
   1   9  -5 13240.2 2370.87   1
  10  -9   5 13720.6 2319.02   1
  -1  -9   5 9909.71 2042.79   2
   9 -10  -5 8915.37 1995.46   1
 -10   9  -5 12208.6 2334.13   1
   9   1  -5 11342.7 2202.68   1
  -9  -1   5 12697.2 2295.29   1
  -1  -9   5 12647.8 2333.75   1
  -9  10   5 13627.8 2352.18   1
 -10   1  -5 12569.8 2341.75   2
  -9  -1   5 16129.5 2595.83   2
  -1  -9   6 37769.9 4255.29   2
 -10   9  -6 30718.1 3733.50   1
  -9  -1   6 34343.0 3858.21   1
   9   1  -6 33379.7 3715.29   1
  -1  -9   6 33757.2 3707.29   1
 -10   1  -6 33309.0 3926.12   2
  10  -9   6 30340.8 3729.68   1
  -9  10   6 32897.7 3667.55   1
  -9  -1   6 34476.5 3858.09   2
   9 -10  -6 37634.7 4035.18   1
   1   9  -6 36406.9 3841.54   1
  -1  -9   7 101949. 6788.23   2
 -10   9  -7 91746.8 6502.54   1
  -9  -1   7 101059. 6612.23   1
   9   1  -7 109456. 6830.60   1
  -1  -9   7 124104. 7422.32   1
 -10   1  -7 87434.9 6495.41   2
  10  -9   7 115314. 7310.89   1
  -9  10   7 126202. 7275.90   1
  -9  -1   7 105531. 6909.93   2
   9 -10  -7 120459. 7288.68   1
   1   9  -7 103784. 6596.91   1
  -9  -1   8 2504.56 1090.79   2
  10  -9   8 2221.82 1038.41   1
  -1  -9   8 4075.62 1397.40   2
   9 -10  -8 3234.10 1203.48   1
  -9  10   8 2272.98 998.812   1
  -9  -1   8 2936.37 1106.04   1
   1   9  -8 1727.38 887.914   1
 -10   9  -8 1656.73 1016.74   1
  -1  -9   8 2026.14 919.673   1
   9   1  -8 1688.47 874.517   1
 -10   1  -8 2861.86 1193.82   2
  -1  -9   9 39216.8 4266.99   2
  -9  -1   9 36083.8 4032.22   1
   9   1  -9 37043.9 3994.06   1
  -1  -9   9 31897.4 3718.13   1
 -10   1  -9 33461.9 3995.71   2
  10  -9   9 32673.5 3950.56   1
 -10   9  -9 31423.9 3851.92   1
  -9  -1   9 41275.6 4324.10   2
   1   9  -9 37416.3 4040.12   1
   9 -10  -9 32407.8 3967.62   1
  -9  10   9 37841.4 4141.06   1
  -1  -9  10 216845. 10039.6   2
  -9  -1  10 209249. 9720.70   1
   9   1 -10 212182. 9576.37   1
  -1  -9  10 228708. 10123.9   1
  -9  -1  10 212092. 10029.7   2
   1   9 -10 164798. 8444.74   1
   9 -10 -10 166049. 9069.01   1
  -9  10  10 183100. 9151.56   1
   9 -10 -11 5669.15 1562.60   1
  -9  10  11 6327.61 1773.02   1
  -9  10  12 393.720 483.220   1
   0  10   0 51146.8 4820.70   1
 -10  10   0 53285.3 4664.19   1
 -10   0   0 45283.3 4520.29   2
  10 -10   0 46808.7 4502.12   1
   0  10  -1 147250. 8170.12   1
   0  10   1 148395. 8287.92   1
 -10   0   1 125239. 7616.00   1
  10   0  -1 132598. 7795.64   1
 -10  10  -1 144701. 7861.76   1
   0 -10   1 158107. 8541.73   1
   0 -10  -1 156837. 8514.41   1
 -10  10   1 143095. 7564.42   1
 -10   0  -1 134245. 7840.22   2
 -10   0   1 139307. 7852.49   2
  10 -10   1 136142. 7649.29   1
  10 -10  -1 142804. 7672.44   1
   0  10  -2 265164. 10962.8   1
 -10   0   2 260247. 10957.5   1
  10   0  -2 303665. 11747.9   1
 -10  10  -2 326804. 11895.2   1
   0 -10   2 269304. 11133.0   1
 -10  10   2 340513. 11744.8   1
 -10   0  -2 313198. 11812.6   2
 -10   0   2 346321. 12364.1   2
  10 -10   2 323468. 11898.1   1
  10 -10  -2 317109. 11627.5   1
   0 -10   3 36556.9 4128.30   2
   0  10  -3 43161.8 4255.44   1
 -10   0   3 38308.9 4089.21   1
 -10  10  -3 32556.1 3810.68   1
  10   0  -3 41375.7 4383.15   1
   0 -10   3 42386.9 4323.25   1
 -10  10   3 42126.8 4117.08   1
 -10   0  -3 38205.5 4221.98   2
  10 -10   3 43590.5 4320.55   1
 -10   0   3 43064.8 4422.68   2
  10 -10  -3 41856.7 4230.31   1
  10 -10   4 9755.63 2024.82   1
   0 -10   4 6651.68 1766.76   2
 -10  10   4 8231.90 1920.11   1
  10 -10  -4 7794.42 1943.27   1
 -10  10  -4 7111.22 1771.63   1
 -10   0   4 5294.51 1449.38   1
  10   0  -4 8559.27 2007.67   1
   0 -10   4 9557.38 2068.65   1
   0  10  -4 8792.63 1837.50   1
 -10   0  -4 8924.14 1931.68   2
 -10   0   4 9646.64 2094.64   2
   0  10  -5 18186.5 2781.63   1
   0 -10   5 9730.16 2086.59   2
 -10  10  -5 16567.3 2703.06   1
 -10   0   5 16772.3 2755.12   1
  10   0  -5 17934.4 2858.84   1
   0 -10   5 16117.9 2677.89   1
 -10   0  -5 13486.4 2512.71   2
  10 -10   5 16034.7 2746.84   1
 -10   0   5 17944.8 2754.00   2
 -10  10   5 15805.5 2478.58   1
  10 -10  -5 19731.4 2936.70   1
   0  10  -6 21918.8 2939.67   1
   0 -10   6 16490.2 2842.51   2
 -10  10  -6 17908.0 2868.94   1
 -10   0   6 18096.4 2865.80   1
  10   0  -6 22719.9 3259.71   1
 -10   0  -6 17443.7 2845.22   2
   0 -10   6 11746.7 2316.61   1
  10 -10   6 22256.9 3289.77   1
 -10   0   6 18999.5 3023.46   2
  10 -10  -6 19308.4 2949.18   1
 -10  10   6 24003.0 3097.40   1
 -10  10   7 37297.4 3942.89   1
   0  10  -7 30615.1 3611.92   1
   0 -10   7 23721.8 3472.57   2
 -10   0   7 34135.7 4012.34   1
  10   0  -7 38210.1 4158.69   1
   0 -10   7 31313.4 3786.81   1
 -10   0  -7 30232.4 3775.80   2
  10 -10   7 33810.0 3928.90   1
 -10   0   7 32172.1 3840.48   2
  10 -10  -7 33083.8 3937.13   1
 -10  10  -7 25173.9 3478.29   1
   0 -10   8 4304.56 1457.26   2
  10 -10  -8 5658.77 1689.51   1
 -10  10  -8 2530.87 1156.62   1
 -10   0   8 4785.57 1393.80   1
 -10  10   8 4669.69 1432.08   1
   0  10  -8 5738.17 1601.05   1
   0 -10   8 7110.99 1753.20   1
  10   0  -8 6016.07 1589.00   1
 -10   0   8 5531.20 1559.83   2
  10 -10   8 3948.26 1489.00   1
   0 -10   9 55909.5 5224.96   2
 -10  10   9 52322.6 4740.49   1
 -10   0   9 51294.7 4798.45   1
  10   0  -9 50810.1 4879.17   1
  10 -10   9 37734.7 4319.84   1
 -10  10  -9 36166.6 4328.03   1
 -10   0   9 50051.1 4803.86   2
  10 -10  -9 47730.0 4690.08   1
  10 -10  10 19473.5 3146.29   1
  -6  11 -11 54656.3 4980.87   1
   6 -11  11 62780.9 5383.42   1
  11  -6 -10 178943. 9375.69   1
 -11   6  10 231192. 10293.3   1
  11  -5 -10 200830. 9513.15   1
 -11   5  10 211887. 9795.44   1
  -5  11 -10 227666. 10140.0   1
  -6  11 -10 223369. 10119.9   1
   5 -11  10 216851. 9938.43   1
   6 -11  10 216404. 9888.94   1
 -11   5  10 166142. 9396.58   2
  11  -6  -9 63633.8 5416.78   1
 -11   6   9 61488.7 5283.40   1
  11  -5  -9 59138.2 5142.89   1
 -11   5   9 63602.6 5406.29   1
  -5  11  -9 55662.8 4991.54   1
  -6  11  -9 63795.6 5304.74   1
   5 -11   9 63862.9 5314.33   1
   6 -11   9 57122.9 5038.01   1
 -11   6   9 60739.7 5410.46   2
 -11   5   9 48862.4 4952.52   2
  11  -6  -8 24277.9 3161.22   1
 -11   6   8 19422.5 2831.34   1
  11  -5  -8 18595.5 2815.52   1
 -11   5   8 18892.7 2800.37   1
  -5  11  -8 24905.4 3314.76   1
  -6  11  -8 22825.4 3185.43   1
   5 -11   8 22389.3 3136.48   1
   6 -11   8 19092.2 2861.26   1
 -11   6   8 18369.7 2932.03   2
 -11   5   8 20617.9 3104.07   2
  11  -6  -7 24802.0 3355.87   1
 -11   6   7 25656.5 3400.81   1
  11  -5  -7 27350.6 3449.30   1
 -11   5   7 30638.0 3670.70   1
  -5  11  -7 28547.8 3542.61   1
  -6  11  -7 26806.1 3371.76   1
   5 -11   7 33819.3 3824.81   1
   6 -11   7 23316.2 3150.10   1
 -11   6   7 22986.8 3364.37   2
 -11   5   7 26602.7 3524.04   2
  11  -6  -6 84296.3 6167.15   1
  11  -5  -6 77220.4 5836.18   1
 -11   6   6 83949.4 6020.92   1
 -11   5   6 87753.2 6241.59   1
  -5  11  -6 78057.9 5896.23   1
  -6  11  -6 91176.3 6242.54   1
   5 -11   6 87616.8 6241.45   1
   6 -11   6 91405.0 6178.18   1
 -11   6   6 83282.4 6204.20   2
 -11   5   6 79750.6 5898.14   2
  11  -6  -5 76577.8 5758.10   1
  11  -5  -5 77972.8 5830.24   1
 -11   6   5 74144.9 5654.74   1
 -11   5   5 74956.3 5755.82   1
  -5  11  -5 80150.8 5860.39   1
  -6  11  -5 66083.3 5366.02   1
   5 -11   5 70493.7 5548.72   1
   6 -11   5 74520.0 5577.33   1
 -11   6   5 71182.4 5741.84   2
 -11   5   5 67724.5 5504.35   2
  11  -6  -4 16678.5 2666.40   1
  11  -5  -4 17113.9 2640.12   1
 -11   6   4 15586.4 2499.07   1
 -11   5   4 10554.3 2085.10   1
  -5  11  -4 14976.6 2520.08   1
   5 -11   4 16144.8 2600.12   1
  -6  11  -4 16012.0 2654.93   1
   6 -11   4 13979.6 2471.96   1
 -11   6   4 12927.7 2518.62   2
 -11   5   4 12247.2 2348.96   2
  11  -6  -3 71643.1 5616.01   1
  11  -5  -3 68350.3 5456.14   1
 -11   6   3 72803.9 5624.65   1
 -11   5   3 70175.8 5522.79   1
  -5  11  -3 83800.3 5852.98   1
   5 -11   3 68882.3 5348.66   1
  -6  11  -3 73582.7 5631.90   1
 -11   6   3 66342.8 5394.54   2
 -11   5   3 68878.1 5440.22   2
  11  -6  -2 264719. 10822.0   1
  11  -5  -2 264759. 10727.5   1
 -11   6   2 253698. 10297.0   1
 -11   5   2 238872. 9970.78   1
  -5  11  -2 252231. 10282.7   1
   5 -11   2 232979. 9852.27   1
   6 -11   2 244980. 10220.4   1
  -6  11  -2 274720. 10681.6   1
 -11   6   2 248494. 10601.3   2
 -11   5   2 242443. 10098.0   2
  -6  -5  -2 260333. 10678.8   2
  -6  -5  -1 10454.4 2153.56   2
  -5  -6  -1 5286.32 1680.48   2
  -6  11  -1 10661.2 1949.35   1
 -11   5   1 11689.4 2166.60   1
  11  -6  -1 8496.04 1892.94   1
  11  -5  -1 9047.49 1917.83   1
   6 -11   1 13347.8 2297.31   1
 -11   6   1 9940.76 2081.18   2
  -5  11  -1 9057.37 1925.10   1
 -11   5   1 10803.2 2188.27   2
   5 -11   1 7282.91 1742.46   1
 -11   6   0 18761.1 2755.75   1
  11  -6   0 20739.2 2926.66   1
  11  -5   0 20414.1 3003.06   1
 -11   5   0 23605.7 3244.88   1
   5 -11   0 21750.6 2977.02   1
  -5  11   0 23951.6 3182.53   1
   6 -11   0 23312.0 3119.49   1
 -11   6   0 20520.6 3028.53   2
 -11   5   0 18091.6 2832.43   2
  -6  11   0 22651.9 3092.28   1
  -6  -5   0 19820.5 2989.61   2
  -5  -6   0 22737.9 3155.09   2
  11  -6   1 58258.4 5022.97   1
  11  -5   1 56748.3 5035.63   1
  -6  -5   1 54635.1 4876.18   1
  -5  -6   1 59637.4 5227.91   1
   6   5  -1 53285.2 4701.83   1
   5   6  -1 58172.6 4909.42   1
   5 -11  -1 56629.6 4840.96   1
 -11   6  -1 49822.6 4596.05   1
   6 -11  -1 61924.4 5114.08   1
 -11   6  -1 56734.5 5084.05   2
 -11   5  -1 51834.1 4817.33   2
  -6  11   1 54983.4 4869.72   1
  -6  -5   1 57143.4 5001.27   2
  -5  -6   1 59909.5 5120.21   2
  -5  11   1 64056.3 5303.67   1
  11  -6   2 297923. 11496.5   1
  11  -5   2 300172. 11434.1   1
  -6  -5   2 343646. 12352.7   1
  -5  -6   2 279635. 11224.3   1
 -11   6  -2 280036. 11058.5   1
   6   5  -2 297055. 11259.6   1
   5   6  -2 286791. 11155.7   1
   5 -11  -2 235840. 10144.0   1
 -11   6  -2 281625. 11407.3   2
   6 -11  -2 302510. 11264.2   1
 -11   5  -2 273835. 11043.3   2
  -5  11   2 297086. 11380.5   1
  -6  -5   2 263059. 10996.7   2
  -5  -6   2 264183. 10806.2   2
  -6  11   2 267254. 10759.9   1
 -11   5  -2 273570. 10916.0   1
  11  -5   3 125748. 7550.38   1
 -11   6  -3 121140. 7093.01   1
  -6  -5   3 125446. 7514.76   1
  -5  -6   3 127779. 7703.47   1
   6   5  -3 108924. 6845.48   1
 -11   5  -3 96470.5 6541.17   1
   5   6  -3 133523. 7539.58   1
   5 -11  -3 87356.9 6230.58   1
 -11   6  -3 123164. 7414.86   2
 -11   5  -3 136219. 7795.55   2
   6 -11  -3 122550. 7383.23   1
  -5  11   3 106982. 6816.00   1
  -6  -5   3 114014. 7140.02   2
  -5  -6   3 102332. 6804.37   2
  -6  11   3 135594. 7683.29   1
  11  -6   3 130090. 7636.42   1
  -6  11   4 30283.1 3593.46   1
 -11   6  -4 24413.9 3184.67   1
  -6  -5   4 25464.7 3431.32   1
  -5  -6   4 25091.0 3416.47   1
   6   5  -4 24650.3 3274.69   1
   5   6  -4 25433.2 3296.51   1
   5 -11  -4 22177.6 3194.87   1
 -11   6  -4 25714.4 3370.30   2
 -11   5  -4 31400.3 3672.99   2
   6 -11  -4 30960.0 3715.48   1
  -5  11   4 29710.1 3564.66   1
  -6  -5   4 27989.8 3667.68   2
  -5  -6   4 29821.0 3718.81   2
  11  -6   4 24077.7 3224.28   1
  11  -5   4 27680.5 3443.72   1
  -6  11   5 32748.9 3753.48   1
  -6  -5   5 34974.2 3884.41   1
  -5  -6   5 31850.3 3863.26   1
   6   5  -5 37391.4 4033.83   1
   5   6  -5 39573.5 4128.03   1
 -11   6  -5 41305.9 4329.37   2
   5 -11  -5 51470.1 4846.72   1
 -11   5  -5 39054.8 4228.71   2
   6 -11  -5 44822.1 4594.77   1
  -5  11   5 30490.5 3767.17   1
  -6  -5   5 45243.6 4385.73   2
  11  -6   5 39341.2 4099.31   1
  -5  -6   5 38920.0 4163.97   2
  -6  11   6 77443.0 5907.88   1
  -6  -5   6 87486.9 6173.62   1
  -5  -6   6 95833.5 6652.99   1
   6   5  -6 86640.2 6166.39   1
   5   6  -6 85057.2 6146.48   1
 -11   6  -6 101784. 6639.08   2
 -11   5  -6 90411.3 6431.05   2
   5 -11  -6 112750. 7284.17   1
  -5  11   6 61606.2 5352.16   1
  -6  -5   6 75519.3 5875.40   2
  -5  -6   6 99475.4 6796.81   2
  -6  11   7 32278.5 3880.00   1
  -6  -5   7 43727.9 4383.54   1
  -5  -6   7 39029.3 4175.51   1
   6   5  -7 38534.1 4055.19   1
   5   6  -7 36289.5 3982.25   1
 -11   6  -7 40032.4 4271.92   2
 -11   5  -7 42911.4 4334.03   2
   6 -11  -7 40976.8 4408.25   1
  -5  11   7 43593.9 4574.62   1
  -6  -5   7 45196.3 4590.75   2
  -5  -6   7 34653.3 4026.23   2
  -6  11   8 594.478 374.362   1
  -6  -5   8 1128.20 740.445   2
   6   5  -8 940.493 568.770   1
  -5  -6   8 733.918 592.104   2
   5   6  -8 1247.13 785.622   1
  -6  -5   8 946.579 601.874   1
  -5  -6   8 729.744 469.882   1
 -11   6  -8 298.237 383.877   2
 -11   5  -8 1177.83 708.360   2
  -6  -5   9 66585.2 5462.15   1
  -5  -6   9 69036.3 5676.30   1
   6   5  -9 55669.9 4981.91   1
   5   6  -9 67998.6 5472.76   1
 -11   6  -9 58675.6 5194.47   2
 -11   5  -9 65021.7 5584.33   2
  -6  -5   9 65918.7 5570.90   2
  -5  -6   9 72983.2 5874.24   2
  -6  -5  10 170778. 8811.26   1
  -5  -6  10 199648. 9612.95   1
   6   5 -10 166554. 8597.77   1
   5   6 -10 199283. 9339.66   1
  -6  -5  10 189668. 9501.94   2
  -5  -6  10 185762. 9373.09   2
 -11   5 -11 15344.7 2758.15   2
  -7  11 -11 5498.68 1633.03   1
   7 -11  11 5431.07 1592.90   1
 -11   4  11 5955.63 1816.82   2
  11  -7 -10 30000.3 3669.76   1
 -11   7  10 22118.5 3267.30   1
 -11   4  10 32369.3 3735.86   1
  11  -4 -10 35537.5 3928.81   1
  -4  11 -10 33701.9 3955.06   1
  -7  11 -10 29854.9 3732.64   1
   4 -11  10 27384.6 3490.03   1
   7 -11  10 30995.7 3824.85   1
 -11   4  10 22192.6 3307.60   2
  -4  11  -9-266.736 386.787   1
 -11   7   9 423.548 245.475   1
 -11   4   9 265.974 724.512   1
  11  -7  -9 536.238 598.701   1
  -7  11  -9-107.046 319.296   1
  11  -4  -9 104.718 308.017   1
   4 -11   9 165.075 192.552   1
   7 -11   9 106.958 595.147   1
 -11   4   9 424.838 576.946   2
  11  -7  -8 472686. 14710.7   1
 -11   7   8 457569. 14361.1   1
 -11   4   8 516529. 15313.7   1
  11  -4  -8 473440. 14765.0   1
  -4  11  -8 528856. 15220.6   1
  -7  11  -8 459840. 14504.7   1
   4 -11   8 512013. 15127.2   1
   7 -11   8 441947. 14113.7   1
 -11   4   8 471537. 15070.1   2
  11  -7  -7 21864.3 3066.42   1
 -11   7   7 19737.3 2939.29   1
 -11   4   7 21500.8 3081.34   1
  11  -4  -7 18767.5 2831.11   1
  -4  11  -7 16283.4 2610.96   1
   4 -11   7 20483.3 2980.14   1
  -7  11  -7 16909.8 2774.92   1
   7 -11   7 23771.0 3158.03   1
 -11   7   7 17377.5 2867.75   2
 -11   4   7 20040.8 3019.21   2
 -11   7   6 4933.43 1450.98   1
  -4  11  -6 6128.65 1587.70   1
 -11   4   6 5497.97 1502.61   1
  11  -7  -6 4430.57 1454.14   1
  11  -4  -6 4541.58 1378.02   1
  -7  11  -6 4720.05 1471.87   1
   4 -11   6 4633.75 1425.78   1
 -11   7   6 4140.01 1455.31   2
 -11   4   6 5400.33 1605.63   2
   7 -11   6 4839.04 1438.76   1
 -11   7   5 465.206 661.905   1
 -11   4   5 389.889 631.885   1
  -4  11  -5-263.365 530.644   1
  11  -7  -5 387.535 796.110   1
  11  -4  -5 553.889 381.500   1
   4 -11   5 248.390 634.837   1
 -11   7   5 434.994 269.985   2
 -11   4   5-386.037 232.237   2
   7 -11   5-655.394 741.175   1
  -7  11  -5 822.311 751.629   1
  11  -7  -4 244503. 10226.0   1
  11  -4  -4 242434. 10161.8   1
 -11   4   4 250902. 10552.0   1
  -4  11  -4 281447. 11041.6   1
   4 -11   4 265064. 10607.5   1
   7 -11   4 258512. 10436.7   1
 -11   7   4 215829. 10107.8   2
  -7  11  -4 272626. 10756.5   1
 -11   4   4 245168. 10526.4   2
  -7  11  -3 8034.19 1768.30   1
 -11   4   3 7617.94 1844.26   1
  11  -7  -3 5574.79 1577.48   1
 -11   7   3 6790.93 1693.73   1
  11  -4  -3 7643.37 1855.76   1
  -4  11  -3 7703.24 1765.33   1
 -11   7   3 6728.49 1886.32   2
   4 -11   3 9151.52 1981.70   1
 -11   4   3 4632.20 1418.82   2
   7 -11   3 9024.73 1889.04   1
  -7  -4  -3 5438.08 1463.20   2
  11  -7  -2 38642.2 3974.13   1
  11  -4  -2 36193.3 3922.52   1
 -11   4   2 29701.0 3625.86   1
  -4  11  -2 36301.0 3983.34   1
   4 -11   2 41032.8 4298.67   1
   7 -11   2 38020.7 4026.14   1
 -11   7   2 31246.2 3968.86   2
 -11   4   2 35046.2 3847.43   2
  -7  -4  -2 34210.7 3809.89   2
 -11   7   2 34173.2 3763.46   1
  -7  11  -2 41626.3 4139.87   1
  -7  -4  -1 1803.47 958.990   2
   7 -11   1 555.698 522.420   1
 -11   7   1 413.812 62.1409   1
 -11   4   1 533.567 573.988   1
  11  -7  -1 549.759 496.320   1
  11  -4  -1 1128.78 766.663   1
  -7  11  -1 233.110 360.868   1
  -4  11  -1 891.951 546.186   1
 -11   7   1 652.512 604.230   2
   4 -11   1 684.762 755.531   1
 -11   4   1 392.087 395.972   2
  -7  11   0 518329. 14584.1   1
  11  -7   0 378651. 13030.8   1
  11  -4   0 427703. 13920.7   1
 -11   4   0 477549. 14409.9   1
 -11   7   0 432145. 13734.7   1
  -4  11   0 486894. 14569.4   1
   4 -11   0 503175. 14766.0   1
 -11   7   0 390907. 13477.1   2
   4   7   0 437375. 13708.8   1
   7 -11   0 392935. 13031.4   1
 -11   4   0 434634. 13338.9   2
  -7  -4   0 470161. 14367.1   2
  -4  -7   0 447026. 14267.4   2
  -7  -4   1 6643.45 1707.06   2
   7 -11  -1 7998.55 2017.07   1
  -4  -7   1 3933.66 1387.26   2
 -11   7  -1 6063.07 1610.93   1
 -11   4  -1 5144.08 1381.12   1
  11  -7   1 4480.37 1454.81   1
   4   7  -1 4837.13 1410.54   1
  11  -4   1 6367.93 1684.96   1
  -4  -7   1 4771.92 1459.63   1
  -4  11   1 4974.36 1437.71   1
  -7  11   1 5078.64 1373.18   1
 -11   7  -1 5188.37 1593.51   2
 -11   4  -1 6559.95 1565.79   2
   4 -11  -1 4791.92 1330.74   1
   7   4  -1 5111.56 1428.48   1
  11  -4   2 38188.6 4216.65   1
  -7  11   2 36751.9 3953.87   1
 -11   4  -2 34176.3 3927.81   1
 -11   7  -2 31288.0 3584.58   1
  -7  -4   2 30658.2 3636.01   1
  -4  -7   2 32510.0 3755.09   1
   7   4  -2 33113.6 3804.09   1
  -4  11   2 28362.1 3592.17   1
 -11   7  -2 32319.0 3840.43   2
 -11   4  -2 32805.9 3705.39   2
   4   7  -2 32282.5 3725.48   1
   7 -11  -2 31104.5 3670.30   1
  -7  -4   2 34061.6 3889.10   2
   4 -11  -2 11979.7 2326.93   1
  -4  -7   2 35896.4 3983.98   2
  11  -7   2 34139.6 3938.18   1
  -7  -4   3 590.026 266.548   2
   7 -11  -3 959.387 628.878   1
  -4  -7   3 1097.74 879.051   2
  -7  11   3 2398.52 1181.07   1
  11  -7   3 1142.71 675.714   1
   4   7  -3 472.947 663.865   1
  11  -4   3 453.111 457.887   1
 -11   7  -3 590.681 335.821   1
  -7  -4   3 771.892 602.311   1
  -4  -7   3 1629.29 781.153   1
  -4  11   3 610.811 229.808   1
 -11   7  -3 619.240 626.149   2
 -11   4  -3 766.032 591.284   2
   4 -11  -3-1.27783 506.490   1
   7   4  -3 373.928 263.618   1
  -7  11   4 234357. 10067.1   1
  -7  -4   4 213841. 9791.92   1
  -4  -7   4 218533. 10005.3   1
   7   4  -4 246340. 10388.7   1
  -4  11   4 168662. 8770.98   1
   4 -11  -4 176640. 9004.68   1
 -11   7  -4 233937. 10240.0   2
 -11   4  -4 207691. 9695.29   2
   4   7  -4 229705. 10084.1   1
   7 -11  -4 181653. 9115.58   1
 -11   7  -4 192889. 9077.44   1
  -7  -4   4 215264. 9990.40   2
  11  -7   4 247463. 10376.9   1
  -4  -7   4 172196. 9085.81   2
  -7  11   5 41285.3 4269.16   1
  -7  -4   5 29141.3 3590.67   1
  -4  -7   5 28681.0 3617.01   1
   7   4  -5 32468.3 3764.00   1
  -4  11   5 28799.7 3627.17   1
 -11   7  -5 33350.4 3764.61   1
   4 -11  -5 22587.2 3263.36   1
 -11   7  -5 34561.0 3908.11   2
 -11   4  -5 43780.0 4373.22   2
   4   7  -5 28630.6 3501.11   1
   7 -11  -5 25636.5 3420.33   1
  11  -7   5 28192.6 3569.90   1
  -7  -4   5 31303.0 3692.07   2
  -4  -7   5 31361.1 3844.56   2
   7   4  -6 2974.62 1091.05   1
  -7  -4   6 3492.90 1330.03   2
   7 -11  -6 2867.27 1130.86   1
  -4  -7   6 2876.99 1126.13   2
  11  -7   6 3278.92 1202.46   1
   4   7  -6 4179.27 1334.36   1
  -7  11   6 2755.53 1113.61   1
  -7  -4   6 3352.84 1175.47   1
  -4  -7   6 2047.51 826.094   1
 -11   7  -6 2617.58 983.682   2
 -11   4  -6 3276.71 1212.50   2
   7   4  -7-454.944 301.898   1
  -7  -4   7 673.979 768.927   2
   7 -11  -7 764.616 610.525   1
  -4  -7   7-338.881 648.441   2
   4   7  -7-16.1446 263.536   1
  -7  11   7 388.822 514.205   1
  -7  -4   7 931.504 741.576   1
  -4  -7   7 174.683 162.014   1
 -11   7  -7-186.910 224.894   2
 -11   4  -7 145.883 473.404   2
  -7  11   8 514028. 15776.2   1
  -7  -4   8 474138. 14560.4   1
  -4  -7   8 450201. 14462.3   1
   7   4  -8 468094. 14410.4   1
 -11   7  -8 468332. 14513.8   2
   4   7  -8 481441. 14414.7   1
  -7  -4   8 470486. 14908.7   2
  -4  -7   8 461508. 14730.9   2
  -4  -7   9 14360.6 2497.11   2
  -7  -4   9 14818.7 2609.51   1
  -7  11   9 11399.3 2334.22   1
  -4  -7   9 15628.7 2694.76   1
   7   4  -9 12638.9 2379.22   1
   4   7  -9 15330.8 2510.61   1
 -11   4  -9 11618.6 2355.09   2
  -7  -4   9 13379.4 2536.60   2
  -7  -4  10 8799.49 2035.09   2
  -4  -7  10 10012.3 2089.05   2
   4   7 -10 13145.5 2336.06   1
  -7  -4  10 10858.2 2116.24   1
  -4  -7  10 12067.5 2344.11   1
 -11   4 -10 7803.92 1861.07   2
   7   4 -10 9825.27 2081.46   1
 -11   4 -11 547.593 328.309   2
  -8  11 -10 128307. 7888.89   1
   8 -11  10 138744. 8112.94   1
 -11   3  10 142483. 8365.71   2
  11  -8  -9 18369.6 2968.89   1
 -11   8   9 16170.3 2648.16   1
  -3  11  -9 14576.1 2535.25   1
 -11   3   9 14133.3 2563.20   1
  11  -3  -9 16515.5 2717.58   1
   3 -11   9 16569.6 2706.22   1
  -8  11  -9 13777.7 2580.35   1
   8 -11   9 14288.3 2468.82   1
 -11   3   9 15139.3 2729.22   2
  11  -8  -8 97067.6 6640.54   1
 -11   8   8 87310.8 6203.72   1
 -11   3   8 100186. 6820.21   1
  -3  11  -8 91307.3 6388.84   1
  11  -3  -8 94360.6 6638.73   1
   3 -11   8 104671. 6835.28   1
  -8  11  -8 101617. 6726.90   1
   8 -11   8 87253.8 6337.51   1
 -11   3   8 96668.6 6861.30   2
 -11   8   7 80076.8 5878.45   1
  11  -8  -7 90907.1 6298.13   1
 -11   3   7 82956.3 6194.42   1
  -3  11  -7 90607.2 6336.79   1
  11  -3  -7 80775.4 6139.92   1
   3 -11   7 79042.5 5870.02   1
  -8  11  -7 73468.7 5826.42   1
   8 -11   7 85551.7 6026.45   1
 -11   3   7 79068.0 6091.13   2
  11  -8  -6 262744. 10652.3   1
 -11   3   6 228217. 10341.1   1
  11  -3  -6 256809. 10947.4   1
  -3  11  -6 282782. 11098.7   1
   3 -11   6 258223. 10748.8   1
   8 -11   6 247038. 10451.9   1
 -11   8   6 220261. 10527.5   2
  -8  11  -6 272671. 11040.0   1
 -11   3   6 267284. 11118.4   2
 -11   8   6 245701. 10216.3   1
  11  -8  -5 166911. 8532.10   1
 -11   3   5 122328. 7589.05   1
  11  -3  -5 152936. 8531.52   1
  -3  11  -5 146751. 8009.39   1
   3 -11   5 161898. 8470.25   1
   8 -11   5 156299. 8251.41   1
 -11   8   5 152378. 8658.88   2
 -11   8   5 166476. 8390.45   1
  -8  11  -5 198880. 9345.57   1
 -11   3   5 148267. 8211.18   2
 -11   8   4 2869.22 1083.86   1
  -3  11  -4 4787.43 1489.47   1
  11  -8  -4 2727.12 1065.97   1
 -11   3   4 2412.44 1045.04   1
  -8  11  -4 4170.24 1422.91   1
  11  -3  -4 3838.57 1348.20   1
   3 -11   4 1879.39 688.195   1
 -11   8   4 2362.83 977.796   2
 -11   3   4 2099.19 949.016   2
  -8  -3  -4 2592.97 1146.25   2
   8 -11   4 3279.47 1229.85   1
  11  -8  -3 156078. 8186.43   1
 -11   3   3 108795. 7034.49   1
  11  -3  -3 140662. 7963.37   1
  -3  11  -3 117166. 7113.19   1
 -11   8   3 125168. 7340.30   1
   3 -11   3 125930. 7482.26   1
 -11   8   3 130076. 7805.04   2
   8 -11   3 137704. 7628.56   1
 -11   3   3 138194. 7848.55   2
  -8  -3  -3 128968. 7664.71   2
  -8  11  -3 147289. 7764.37   1
  -8  11  -2 128295. 7226.88   1
 -11   3   2 102031. 6792.58   1
  11  -3  -2 109674. 6843.62   1
 -11   8   2 119950. 7178.73   1
   3 -11   2 107221. 6775.37   1
 -11   8   2 99387.8 6868.50   2
   8 -11   2 124034. 7195.86   1
 -11   3   2 114363. 7144.50   2
  -8  -3  -2 104009. 6903.04   2
  11  -8  -2 117982. 7252.76   1
  -8  11  -1 43261.5 4279.28   1
  11  -3  -1 35495.2 3994.58   1
 -11   3   1 34790.8 3876.55   1
 -11   8   1 41820.3 4237.34   1
  -3  11  -1 42791.5 4350.53   1
   3 -11   1 40108.8 4118.73   1
 -11   8   1 29722.7 3779.08   2
   8 -11   1 45258.3 4419.30   1
 -11   3   1 34236.2 3883.26   2
  -8  -3  -1 38619.0 4053.65   2
  11  -8  -1 41261.7 4209.44   1
  -8  -3   0 6022.12 1643.44   2
   8 -11   0 4899.15 1381.22   1
  -8  11   0 5181.57 1522.70   1
  11  -8   0 5624.56 1563.71   1
 -11   3   0 6172.43 1722.09   1
  -3  11   0 5933.01 1643.02   1
   3   8   0 5637.00 1472.06   1
  11  -3   0 7230.54 1691.15   1
 -11   8   0 6391.60 1560.88   1
 -11   8   0 4020.12 1313.30   2
   3 -11   0 6544.79 1688.88   1
 -11   3   0 4816.62 1334.21   2
  -8  -3   1 7651.32 1851.13   2
   8 -11  -1 8159.28 1840.40   1
  -3  -8   1 6038.52 1794.89   2
  11  -8   1 6996.65 1767.51   1
  -8  11   1 7087.67 1736.51   1
 -11   3  -1 8161.94 1816.74   1
   3   8  -1 8039.43 1855.67   1
  -3  11   1 6456.04 1675.00   1
  11  -3   1 7458.19 1793.60   1
 -11   8  -1 8456.84 1976.37   1
  -3  -8   1 8785.51 2000.69   1
 -11   8  -1 7862.56 1942.45   2
   8   3  -1 6968.55 1725.29   1
   3 -11  -1 4347.95 1444.13   1
 -11   3  -1 6828.91 1657.17   2
  -8  11   2 196252. 9105.76   1
  -8  -3   2 130548. 7670.89   1
  -3  -8   2 183167. 9105.90   1
   8   3  -2 139461. 7983.92   1
  -3  11   2 148917. 8259.22   1
   3 -11  -2 117045. 7342.96   1
 -11   8  -2 154766. 8371.99   2
 -11   3  -2 153381. 8141.11   2
   8 -11  -2 143500. 7966.03   1
   3   8  -2 145232. 7931.06   1
  -8  -3   2 147031. 8025.81   2
 -11   8  -2 127069. 7372.63   1
  11  -8   2 159393. 8430.97   1
  -3  -8   2 165856. 8955.24   2
  -3  -8   3 9401.54 2140.35   2
  11  -8   3 11663.8 2244.25   1
  -8  11   3 13377.9 2410.69   1
  -8  -3   3 9894.49 2132.95   1
   3   8  -3 11377.3 2214.37   1
  -3  11   3 13602.2 2480.46   1
  -3  -8   3 9124.52 2148.31   1
 -11   8  -3 13533.2 2500.62   2
 -11   8  -3 13408.3 2360.79   1
   8 -11  -3 14339.4 2459.37   1
   3 -11  -3 13114.6 2326.86   1
   8   3  -3 11095.8 2206.01   1
 -11   3  -3 11748.3 2346.67   2
  -8  -3   3 14245.5 2473.23   2
  -8  -3   4 114944. 7330.67   1
  -8  11   4 145893. 8054.24   1
  -3  -8   4 100177. 6745.13   1
   8   3  -4 120349. 7278.05   1
  -3  11   4 163637. 8814.39   1
 -11   8  -4 109818. 6875.46   1
   3 -11  -4 125477. 7855.82   1
 -11   8  -4 122978. 7567.51   2
 -11   3  -4 140062. 7905.59   2
   8 -11  -4 137258. 7722.11   1
   3   8  -4 138618. 7776.94   1
  -8  -3   4 131011. 7672.56   2
  11  -8   4 135520. 7814.43   1
  -3  -8   4 114317. 7234.04   2
  -8  -3   5 31231.9 3793.02   1
  -8  11   5 39342.4 4175.44   1
  -3  -8   5 29885.9 3739.60   1
   8   3  -5 36213.9 4008.63   1
 -11   8  -5 35089.6 3957.51   1
 -11   8  -5 35576.5 3990.44   2
 -11   3  -5 35411.2 4052.66   2
   3   8  -5 37056.0 3988.68   1
   8 -11  -5 43646.6 4434.00   1
  11  -8   5 30832.8 3638.86   1
  -8  -3   5 41316.3 4444.34   2
  -3  -8   5 31625.8 3828.85   2
  -3  -8   6 275079. 11412.2   2
  -8  -3   6 265459. 11138.4   1
  -8  11   6 357450. 12800.4   1
 -11   8  -6 262615. 11058.8   1
  -3  -8   6 236848. 10420.4   1
   8   3  -6 283850. 11249.5   1
 -11   8  -6 318927. 12022.1   2
 -11   3  -6 235102. 10593.1   2
   3   8  -6 298869. 11517.4   1
   8 -11  -6 242864. 10468.5   1
  11  -8   6 293274. 11685.6   1
  -8  -3   6 288726. 11586.8   2
  -3  -8   7 112238. 7165.08   2
  -8  -3   7 107038. 7088.22   1
  -8  11   7 130494. 7705.64   1
  -3  -8   7 133823. 7887.23   1
   8   3  -7 116278. 7200.18   1
 -11   3  -7 119091. 7605.85   2
   3   8  -7 108655. 6955.32   1
  11  -8   7 92158.6 6613.38   1
   8 -11  -7 104409. 6899.98   1
  -8  -3   7 134697. 8004.79   2
  -8  -3   8-82.1688 141.326   2
  -3  -8   8 705.022 564.636   2
   8 -11  -8 407.522 514.800   1
   3   8  -8 897.361 740.710   1
  -8  -3   8-32.0121 223.270   1
  -8  11   8 692.863 892.380   1
  -3  -8   8-187.982 83.1685   1
 -11   3  -8 253.619 573.109   2
   8   3  -8-33.0275 370.477   1
  -3  -8   9 104324. 6931.19   2
  -8  -3   9 104117. 6992.03   1
  -8  11   9 98283.8 6869.69   1
   8   3  -9 100419. 6730.47   1
 -11   3  -9 90146.2 6683.05   2
   3   8  -9 116167. 7242.59   1
   8 -11  -9 99327.5 7015.64   1
  -8  -3   9 108079. 7273.12   2
  -8  11  10 37164.3 4289.84   1
 -11   3 -10 37324.1 4322.36   2
  -9  11  -9 3034.37 1244.29   1
   9 -11   9 4798.29 1438.89   1
   2 -11   8 4649.54 1674.31   2
  11  -9  -8 8972.22 1966.84   1
 -11   2   8 8453.02 1916.20   1
  11  -2  -8 6454.92 1814.80   1
   2 -11   8 8818.40 1989.75   1
 -11   9   8 9372.26 2014.91   1
  -2  11  -8 8721.12 1993.65   1
  -9  11  -8 6045.28 1746.06   1
   9 -11   8 8327.82 2014.14   1
 -11   2   8 8682.98 2010.57   2
  11  -9  -7 28396.9 3544.00   1
   2 -11   7 16224.3 2861.98   2
  -2  11  -7 32664.9 3822.10   1
 -11   2   7 25261.9 3565.63   1
  11  -2  -7 24388.3 3364.98   1
 -11   9   7 27729.8 3414.15   1
   2 -11   7 28658.8 3503.70   1
   9 -11   7 28347.3 3510.99   1
  -9  11  -7 25252.2 3354.53   1
 -11   2   7 25143.9 3448.56   2
  -2  11  -6 226570. 10167.2   1
 -11   2   6 191767. 9564.23   1
  11  -2  -6 202427. 9581.67   1
 -11   9   6 228276. 9930.36   1
   2 -11   6 243983. 10633.0   1
   9 -11   6 194233. 9384.08   1
 -11   2   6 209083. 9852.50   2
  -9  11  -6 177323. 9029.63   1
  11  -9  -6 225912. 10121.5   1
  -2  11  -5 81522.3 6087.90   1
 -11   2   5 80404.1 6160.02   1
  11  -2  -5 85462.8 6231.59   1
 -11   9   5 93774.0 6320.04   1
   2 -11   5 99460.6 6626.00   1
   9 -11   5 83704.5 6151.61   1
  -9  -2  -5 78510.5 6087.44   2
 -11   2   5 78482.5 5964.79   2
  -9  11  -5 89319.4 6229.92   1
  11  -9  -5 93298.2 6460.46   1
  -9  11  -4 15274.7 2508.88   1
   2 -11   4 7243.42 1874.19   2
 -11   2   4 11881.7 2404.70   1
  -2  11  -4 12491.4 2444.86   1
  11  -2  -4 12415.2 2325.58   1
   9 -11   4 11821.0 2335.99   1
   2 -11   4 8774.70 1929.67   1
 -11   9   4 11936.3 2426.18   2
 -11   2   4 15350.6 2696.99   2
 -11   9   4 11766.6 2202.19   1
  -9  -2  -4 8682.36 2061.28   2
  11  -9  -4 14723.3 2601.14   1
  -9  11  -3 129076. 7455.80   1
 -11   9   3 111017. 6842.22   1
 -11   2   3 108597. 7136.75   1
  11  -2  -3 119246. 7577.34   1
  -2  11  -3 114897. 7292.23   1
   2 -11   3 164761. 8661.18   1
 -11   9   3 113209. 7697.74   2
   9 -11   3 135311. 7765.05   1
 -11   2   3 135665. 7796.59   2
  -9  -2  -3 106396. 7007.65   2
  11  -9  -3 148087. 8145.31   1
 -11   9   2 100134. 6439.80   1
  -9  11  -2 86507.6 6038.36   1
 -11   2   2 57761.6 5236.64   1
  11  -2  -2 74729.4 6033.34   1
  -2  11  -2 82828.3 6029.04   1
   2 -11   2 78911.3 5988.40   1
 -11   9   2 77698.6 6214.31   2
   9 -11   2 100385. 6680.96   1
 -11   2   2 85390.1 6231.40   2
  -9  -2  -2 73158.7 5868.70   2
  11  -9  -2 88684.3 6207.57   1
 -11   9   1 66235.2 5299.91   1
 -11   2   1 60672.9 5344.78   1
  -9  11  -1 72504.8 5564.11   1
  11  -2  -1 79044.8 6072.80   1
  -2  11  -1 72507.5 5650.19   1
   2 -11   1 61684.9 5429.41   1
 -11   9   1 51140.8 5326.21   2
 -11   2   1 70213.3 5561.50   2
   9 -11   1 70494.7 5518.66   1
  -9  -2  -1 74933.9 5785.26   2
  11  -9  -1 72543.0 5685.33   1
   9 -11   0 7980.80 1818.21   1
  -2  11   0 7138.43 1662.15   1
  11  -9   0 6154.71 1656.87   1
 -11   9   0 7166.81 1650.94   1
 -11   2   0 5802.26 1659.57   1
  -9  11   0 8360.63 1851.84   1
  11  -2   0 4663.28 1389.14   1
   2   9   0 3150.96 1128.04   1
 -11   9   0 6398.61 1662.79   2
   2 -11   0 3187.46 1250.73   1
 -11   2   0 6663.13 1687.21   2
  -9  -2   0 6486.81 1762.63   2
   9 -11  -1 1322.11 955.383   1
  11  -9   1 1500.63 723.040   1
  -2  11   1 754.132 533.708   1
  -9  11   1 1015.07 748.583   1
   2   9  -1 1159.37 759.091   1
  -2  -9   1 1142.63 893.828   1
 -11   9  -1 1242.41 636.126   2
   2 -11  -1 990.891 396.421   1
 -11   2  -1 1049.88 732.881   2
 -11   9  -1 1004.38 708.794   1
  -9  -2   1 519.335 449.036   2
  -9  -2   2 218425. 10236.3   1
  -9  11   2 230407. 10054.9   1
  -2  11   2 285760. 11473.6   1
   9   2  -2 191489. 9259.04   1
  -2  -9   2 157757. 8591.89   1
   2 -11  -2 213647. 10125.2   1
 -11   9  -2 241940. 10058.6   1
 -11   9  -2 208486. 9816.98   2
 -11   2  -2 201489. 9392.87   2
   9 -11  -2 245305. 10305.0   1
  -9  -2   2 179995. 8989.32   2
  11  -9   2 220509. 9886.02   1
   2   9  -2 184238. 9143.40   1
  -2  -9   2 244189. 10849.7   2
  -2  -9   3 28734.8 3785.82   2
  -9  -2   3 28948.6 3713.73   1
  -2  11   3 46353.3 4657.24   1
   9   2  -3 29668.1 3695.34   1
  -9  11   3 37103.8 4066.84   1
  -2  -9   3 27034.8 3536.95   1
 -11   9  -3 37994.8 4056.47   1
 -11   9  -3 36779.2 4163.37   2
 -11   2  -3 30148.0 3703.82   2
   9 -11  -3 36904.6 4029.97   1
  -9  -2   3 42163.8 4285.33   2
  11  -9   3 40578.7 4188.44   1
   2   9  -3 37449.9 4065.43   1
  -2  -9   4 43788.1 4567.62   2
  -9  -2   4 49983.5 4879.52   1
   9   2  -4 59597.7 5085.29   1
  -9  11   4 63030.4 5209.31   1
 -11   9  -4 63296.6 5294.19   1
  -2  -9   4 44135.1 4493.52   1
 -11   2  -4 55782.5 5094.87   2
  11  -9   4 57673.8 5094.19   1
  -9  -2   4 57261.9 5062.32   2
   2   9  -4 55266.7 4976.29   1
  -2  -9   5 103934. 7233.95   2
  -9  -2   5 125122. 7666.20   1
 -11   9  -5 154583. 8529.13   1
   9   2  -5 144435. 7989.34   1
  -2  -9   5 146064. 8272.11   1
  -9  11   5 176340. 8671.73   1
 -11   2  -5 171605. 9063.19   2
  11  -9   5 147195. 8219.05   1
   9 -11  -5 157948. 8343.40   1
  -9  -2   5 188280. 9121.10   2
   2   9  -5 159065. 8416.71   1
  -2  -9   6 209842. 10073.9   2
 -11   9  -6 137671. 8126.94   1
  -9  -2   6 180608. 9215.87   1
   9   2  -6 217433. 9828.37   1
  -2  -9   6 240106. 10501.9   1
  -9  11   6 185056. 9021.36   1
 -11   2  -6 199742. 9861.86   2
  11  -9   6 189789. 9492.99   1
   9 -11  -6 164967. 8582.44   1
  -9  -2   6 220166. 10040.4   2
   2   9  -6 219436. 9790.80   1
  -2  -9   7 18959.9 3056.03   2
 -11   9  -7 16320.3 2797.22   1
  -9  -2   7 20189.5 3001.64   1
   9   2  -7 18088.6 2857.32   1
  -2  -9   7 16547.0 2750.67   1
  -9  11   7 26547.0 3359.56   1
 -11   2  -7 17460.0 2811.90   2
  11  -9   7 17491.2 2843.55   1
   9 -11  -7 26833.6 3563.51   1
   2   9  -7 20151.0 2997.79   1
  -9  -2   7 17141.5 2888.46   2
  -9  -2   8 1740.04 1107.62   2
  11  -9   8 1021.27 705.469   1
  -2  -9   8 821.039 608.119   2
   9 -11  -8 690.226 677.174   1
   2   9  -8 847.694 627.229   1
  -9  -2   8 902.417 540.717   1
  -2  -9   8 1069.15 758.132   1
  -9  11   8 688.662 499.434   1
   9   2  -8 1230.23 870.946   1
 -11   2  -8 1131.48 810.802   2
  -9  11   9 18958.5 2915.76   1
 -11   2  -9 24936.8 3478.31   2
   9 -11  -9 16355.4 2819.86   1
  -9  11  10 41134.7 4462.44   1
   9 -11 -10 30061.2 3894.00   1
   1 -11   7 5403.24 1688.49   2
 -10  11  -7 8550.12 2046.91   1
  11  -1  -7 7397.23 1846.90   1
  10 -11   7 10312.1 2107.59   1
  10 -11   6 1285.64 784.427   1
   1 -11   6 440.278 426.531   2
  11 -10  -6 798.000 828.067   1
 -11   1   6 1343.06 811.769   1
 -10  11  -6 1197.21 785.018   1
 -11  10   6 1537.02 799.101   1
  11  -1  -6 1322.50 910.633   1
   1 -11   6 706.672 481.232   1
  -1  11  -6 1597.67 993.676   1
 -11   1   6 1153.99 714.078   2
  10 -11   5 6297.93 1683.46   1
   1 -11   5 2191.64 1110.06   2
  11 -10  -5 6460.63 1719.05   1
 -11   1   5 5768.19 1648.08   1
 -11  10   5 5189.20 1631.26   1
  11  -1  -5 6093.26 1589.54   1
 -10  11  -5 3300.59 1184.99   1
   1 -11   5 5795.62 1661.97   1
  -1  11  -5 5965.04 1638.75   1
 -10  -1  -5 5920.91 1653.37   2
 -11   1   5 5478.12 1660.97   2
 -10  11  -4 147923. 8175.99   1
  -1  11  -4 188936. 9408.52   1
 -11   1   4 146510. 8544.48   1
  11  -1  -4 168329. 8852.04   1
   1 -11   4 181931. 9261.63   1
  10 -11   4 177021. 8912.01   1
 -10  -1  -4 143519. 8417.41   2
 -11   1   4 170558. 8826.62   2
  11 -10  -4 172703. 8878.79   1
 -11  10   4 176818. 8785.40   1
  10 -11   3 4756.57 1430.30   1
 -11  10   3 6098.55 1498.63   1
  11 -10  -3 6104.70 1599.07   1
 -10  11  -3 5502.98 1535.82   1
 -11   1   3 4944.34 1698.25   1
  11  -1  -3 5336.19 1500.62   1
   1 -11   3 5700.32 1759.68   1
 -11  10   3 4004.43 1424.05   2
  -1  11  -3 4957.16 1552.95   1
 -10  -1  -3 2894.15 1190.18   2
 -11   1   3 7372.80 1962.31   2
 -11  10   2 323.753 344.296   1
  10 -11   2 172.649 144.792   1
  11 -10  -2 346.215 438.102   1
 -10  11  -2-697.107 565.993   1
 -11   1   2 106.229 273.723   1
  11  -1  -2-308.847 395.262   1
   1 -11   2 110.627 176.379   1
  -1  11  -2-592.997 735.620   1
 -10  -1  -2 567.721 358.591   2
 -11   1   2-299.670 387.591   2
  10 -11   1 3035.21 1074.93   1
  11 -10  -1 2642.52 1014.22   1
 -10  11  -1 2755.85 1104.11   1
  11  -1  -1 2295.82 1102.74   1
   1 -11   1 644.864 244.782   1
 -11  10   1 2929.08 975.605   1
  -1  11  -1 2011.00 1052.78   1
 -11   1   1 2146.84 998.860   2
 -10  -1  -1 2018.12 1049.40   2
   1  10   0 315434. 12198.0   1
  -1  11   0 436775. 14420.5   1
 -10  11   0 354965. 12650.6   1
   1 -11   0 298055. 12129.2   1
 -11  10   0 436383. 13639.7   1
 -11   1   0 389239. 13461.8   2
 -10  -1   0 394059. 13583.4   2
  10 -11   0 377225. 12818.6   1
  11 -10   0 362391. 12677.0   1
  10 -11  -1 835.839 580.518   1
  11 -10   1 1362.07 794.093   1
 -10  11   1 1371.84 645.760   1
   1  10  -1 1862.08 848.791   1
  -1 -10   1 856.927 611.067   1
 -11  10  -1 932.820 543.278   1
   1 -11  -1 1597.50 837.121   1
 -11   1  -1 1121.12 756.291   2
  -1  11   1 1599.82 810.489   1
 -10  -1   1 1781.73 992.287   2
  10 -11  -2 1955.59 1014.31   1
  11 -10   2 1746.58 1016.16   1
 -10  11   2 583.202 331.659   1
   1  10  -2 434.321 338.194   1
 -11  10  -2 1199.39 781.138   1
  10   1  -2 1060.42 607.277   1
  -1 -10   2 1081.20 772.684   1
 -11   1  -2 1239.22 876.037   2
 -10  -1   2 770.421 651.645   2
  11 -10   3 719.851 785.685   1
  10 -11  -3-523.513 622.790   1
 -10  -1   3-59.3284 145.941   1
 -11  10  -3 542.111 562.870   1
   1  10  -3-21.2258 300.671   1
  -1 -10   3-331.775 424.792   1
 -10  11   3 184.522 532.613   1
  10   1  -3-92.2165 57.0608   1
 -11   1  -3 239.061 141.925   2
 -10  -1   3 138.166 353.204   2
  -1 -10   4 131934. 8170.07   2
 -10  -1   4 192642. 9736.39   1
 -11  10  -4 227756. 10366.8   1
  10   1  -4 218184. 10270.2   1
  -1 -10   4 277787. 11421.8   1
 -10  11   4 294081. 11253.0   1
 -11   1  -4 269577. 11192.9   2
  11 -10   4 234152. 10395.6   1
 -10  -1   4 255988. 10973.1   2
  10 -11  -4 253824. 10630.8   1
   1  10  -4 280909. 11393.5   1
  11 -10   5 5197.51 1562.33   1
  -1 -10   5 2328.62 1056.48   2
  10 -11  -5 5841.10 1565.98   1
 -11  10  -5 5405.42 1663.16   1
 -10  -1   5 3937.47 1421.11   1
   1  10  -5 4645.56 1506.62   1
  -1 -10   5 3909.76 1343.60   1
  10   1  -5 4315.34 1384.36   1
 -10  11   5 4352.51 1377.71   1
 -11   1  -5 5600.17 1569.95   2
 -10  -1   5 3561.19 1343.91   2
  11 -10   6 8333.97 2034.15   1
 -11  10  -6 6934.42 1858.81   1
  -1 -10   6 6239.68 1656.64   2
  10 -11  -6 7883.38 1905.61   1
 -10  -1   6 7869.11 2066.09   1
   1  10  -6 8496.29 1894.97   1
  -1 -10   6 7407.68 1945.19   1
  10   1  -6 7958.02 1977.13   1
 -10  11   6 8736.87 1904.72   1
 -11   1  -6 8281.43 1934.70   2
  11 -10   7 3326.61 1331.65   1
  -1 -10   7 3850.20 1325.65   2
 -10  -1   7 3315.82 1255.71   1
  10   1  -7 3591.47 1389.10   1
 -11  10  -7 4410.46 1486.37   1
 -11   1  -7 5034.15 1643.04   2
  11 -10   8 109890. 7401.87   1
   0  11   0 23180.0 3358.85   1
 -11   0   0 24137.3 3449.40   2
  11 -11   0 23984.4 3229.25   1
   0  11  -1 15781.6 2730.14   1
 -11  11  -1 13086.3 2470.20   1
   0 -11   1 14383.2 2654.93   1
 -11   0  -1 17259.9 2882.07   2
 -11   0   1 13164.2 2503.27   2
  11 -11   1 15470.2 2609.56   1
   0  11  -2 96546.1 6832.73   1
   0 -11   2 91030.8 6725.01   1
   0  11  -3 59357.9 5248.74   1
 -11   0   3 50797.8 5149.55   1
  11   0  -3 63656.9 5664.39   1
   0 -11   3 60449.1 5478.08   1
 -11   0  -3 63752.9 5556.36   2
   0  11  -4 19511.5 2923.12   1
 -11   0   4 20739.6 3352.85   1
  11   0  -4 17471.3 2877.61   1
   0 -11   4 22474.2 3204.40   1
 -11   0  -4 19269.9 3081.60   2
 -11   0   5 65645.1 5822.48   1
  11   0  -5 69654.6 5891.65   1
 -11   0  -5 63788.7 5545.35   2
 -12   6   8 257904. 11439.8   2
 -12   6   7-342.967 510.106   2
  12  -6  -6 19658.7 2966.78   1
 -12   6   6 17782.4 2829.67   1
  -6  12  -6 21435.8 2986.83   1
   6 -12   6 23858.8 3211.65   1
 -12   6   6 16901.2 2825.49   2
 -12   6   5 480.445 484.427   1
  12  -6  -5 958.463 1030.35   1
  -6  12  -5 825.519 418.158   1
 -12   6   5-375.836 507.212   2
   6 -12   5 848.714 407.342   1
  12  -6  -4 268377. 11276.2   1
 -12   6   4 275419. 11277.7   1
  -6  12  -4 264583. 10906.5   1
   6 -12   4 256463. 10721.2   1
 -12   6   4 286398. 11712.1   2
 -12   6   3 874.664 706.829   1
  12  -6  -3-1.34287 492.352   1
  -6  12  -3-25.3508 86.6190   1
 -12   6   3 131.770 391.501   2
   6 -12   3 288.041 393.224   1
 -12   6   2 1034.96 488.102   1
  12  -6  -2 920.068 616.777   1
  -6  12  -2 1384.35 758.499   1
 -12   6   2 1085.71 605.373   2
   6 -12   2 1097.10 687.538   1
 -12   6   1 1084.43 762.301   1
  12  -6  -1 666.815 700.728   1
 -12   6   1 365.991 523.017   2
  -6  12  -1 245.311 372.626   1
   6 -12   1-285.215 473.165   1
  12  -6   0 166496. 8767.96   1
   6 -12   0 162025. 8483.61   1
  -6  12   0 182078. 9076.77   1
 -12   6   0 173638. 9032.23   2
  -6  -6   0 147285. 8488.97   2
  -6  -6   1 208.548 471.753   2
 -12   6  -1 491.124 685.818   1
  12  -6   1-373.125 491.547   1
 -12   6  -1 187.411 226.424   2
   6 -12  -1 1.30779 67.5570   1
  -6  12   1 625.429 337.669   1
  -6  -6   2 2097.06 1135.16   2
  -6  12   2 2154.00 864.679   1
   6   6  -2 3705.38 1176.94   1
  12  -6   2 1752.69 999.703   1
 -12   6  -2 2062.69 988.466   1
 -12   6  -2 3697.18 1179.38   2
   6 -12  -2 3134.37 1241.56   1
 -12   6  -3-241.355 518.752   1
  -6  -6   3 355.976 671.459   2
   6   6  -3 308.268 422.568   1
  -6  12   3 253.921 310.412   1
  12  -6   3-132.391 512.214   1
  -6  -6   3-23.8528 171.903   1
 -12   6  -3-350.794 596.517   2
   6 -12  -3 123.818 537.398   1
  -6  -6   4 310775. 12287.5   1
   6   6  -4 388852. 13463.0   1
   6 -12  -4 519708. 15743.1   1
 -12   6  -4 408925. 13745.0   2
  -6  12   4 423689. 14193.1   1
  -6  -6   4 423882. 14438.5   2
  -6  -6   5-561.156 674.286   2
   6   6  -5 190.301 335.900   1
  -6  12   5 47.2912 282.879   1
  -6  -6   5 593.982 619.484   1
 -12   6  -5-452.462 760.173   2
   6 -12  -5-285.754 355.305   1
  -6  -6   6 35299.8 4144.32   1
   6   6  -6 37179.8 4166.53   1
 -12   6  -6 36681.4 4117.87   2
   6 -12  -6 24108.7 3563.42   1
  -6  12   6 37606.3 4297.80   1
  -6  -6   6 37989.4 4260.21   2
  -6  -6   7 403.053 587.860   2
   6   6  -7-467.674 550.176   1
  -6  -6   7-45.7576 364.353   1
 -12   6  -7-230.951 228.738   2
 -12   5   8 18138.0 3017.16   2
 -12   7   7 46683.2 4869.12   2
 -12   5   7 53441.1 5167.37   2
  12  -7  -6 370876. 13270.0   1
 -12   7   6 308383. 11857.5   1
  12  -5  -6 356093. 12788.5   1
 -12   5   6 350260. 12780.1   1
  -5  12  -6 354564. 12766.6   1
  -7  12  -6 350846. 12542.3   1
   5 -12   6 375566. 12932.5   1
   7 -12   6 318106. 11860.9   1
 -12   7   6 279279. 12028.7   2
 -12   5   6 328713. 12570.4   2
 -12   7   5 12740.5 2353.45   1
 -12   5   5 11592.0 2262.30   1
  12  -7  -5 12814.9 2441.16   1
  -5  12  -5 10967.9 2147.43   1
  12  -5  -5 12696.8 2298.55   1
   7 -12   5 11912.4 2347.55   1
  -7  12  -5 11626.1 2270.84   1
   5 -12   5 12151.4 2312.87   1
 -12   7   5 11577.7 2434.80   2
 -12   5   5 11207.1 2263.13   2
 -12   5   4 7128.72 1903.29   1
  12  -7  -4 7655.69 1753.90   1
  12  -5  -4 8606.20 1940.67   1
  -5  12  -4 6540.04 1729.10   1
  -7  12  -4 9550.31 1870.52   1
 -12   7   4 6786.24 1837.72   2
   5 -12   4 8526.87 1905.33   1
 -12   5   4 9065.30 2052.92   2
   7 -12   4 10345.4 2113.92   1
 -12   7   3 14267.3 2554.66   1
  12  -7  -3 15178.1 2575.72   1
  12  -5  -3 14739.7 2618.81   1
 -12   5   3 15162.3 2637.83   1
  -5  12  -3 13580.7 2460.16   1
   5 -12   3 17443.2 2860.33   1
   7 -12   3 18342.0 2678.29   1
 -12   7   3 16220.0 2876.04   2
 -12   5   3 13704.0 2489.43   2
  -7  12  -3 11371.5 2281.47   1
  12  -7  -2 71874.4 5641.67   1
  12  -5  -2 62552.6 5378.00   1
 -12   5   2 59073.7 5272.43   1
  -5  12  -2 68249.0 5495.99   1
   5 -12   2 71844.5 5663.65   1
   7 -12   2 79715.7 5960.00   1
  -7  12  -2 61026.8 5283.55   1
 -12   7   2 60781.8 5537.48   2
 -12   5   2 67522.2 5466.85   2
 -12   7   2 70730.0 5661.59   1
  12  -7  -1 124912. 7510.07   1
  12  -5  -1 114479. 7319.61   1
 -12   5   1 84732.3 6387.83   1
  -5  12  -1 104251. 7014.89   1
   5 -12   1 98485.6 6787.31   1
 -12   7   1 114782. 7144.65   1
   7 -12   1 97298.0 6640.31   1
 -12   7   1 100178. 7187.87   2
 -12   5   1 116497. 7361.99   2
  -7  12  -1 130112. 7663.87   1
  -7  -5  -1 107274. 7153.90   2
  12  -7   0 25325.9 3331.64   1
  12  -5   0 28919.3 3735.70   1
 -12   5   0 16450.1 2881.50   1
 -12   7   0 26805.0 3351.40   1
  -5  12   0 29786.0 3669.30   1
   5 -12   0 28158.6 3604.20   1
   7 -12   0 30387.4 3758.25   1
 -12   7   0 30318.3 3874.29   2
 -12   5   0 28062.0 3611.69   2
  -7  12   0 36014.1 3931.01   1
  -7  -5   0 20533.5 3209.74   2
  12  -5   1 31193.3 3877.98   1
 -12   5  -1 23056.1 3267.57   1
 -12   7  -1 30610.3 3760.45   1
  -5  12   1 20422.5 3133.15   1
   5 -12  -1 38282.7 4228.36   1
 -12   7  -1 41959.3 4336.40   2
   7 -12  -1 34923.3 3915.66   1
 -12   5  -1 37746.4 4105.71   2
  -7  12   1 31283.8 3765.62   1
  -7  -5   1 25164.5 3432.18   2
  -5  -7   1 25868.7 3583.49   2
  12  -7   1 30179.1 3798.66   1
  12  -5   2 140188. 8121.32   1
 -12   7  -2 119271. 7291.79   1
  -5  12   2 150836. 8339.04   1
   5   7  -2 140740. 8062.10   1
   5 -12  -2 140841. 8060.96   1
 -12   7  -2 152229. 8467.50   2
   7 -12  -2 169936. 8908.11   1
 -12   5  -2 159765. 8551.97   2
  -7  -5   2 151300. 8494.26   2
  -7  12   2 160510. 8539.05   1
  -5  -7   2 93769.4 7019.86   2
  12  -7   2 127178. 7879.08   1
   7   5  -3 601.109 242.267   1
   7 -12  -3 1228.10 769.093   1
  -7  -5   3 1086.12 795.728   2
  -5  -7   3 2416.37 1152.10   2
   5   7  -3 1325.07 715.590   1
  12  -7   3 632.748 553.324   1
  -7  -5   3 1136.55 691.524   1
 -12   7  -3 1008.92 629.259   1
  -7  12   3 1669.44 884.670   1
  -5  -7   3 1465.19 965.152   1
  -5  12   3 459.947 88.8205   1
 -12   7  -3 1228.57 736.564   2
 -12   5  -3 1270.65 831.908   2
   5 -12  -3 1806.18 906.205   1
   7   5  -4 2499.94 1075.35   1
   7 -12  -4 3197.10 1241.89   1
  -7  -5   4 6606.87 1917.98   2
  -5  -7   4 2799.04 1191.68   2
   5   7  -4 2668.51 1168.53   1
  12  -7   4 2632.47 1118.64   1
 -12   7  -4 3307.46 1297.72   1
  -7  -5   4 2021.57 961.623   1
  -5  -7   4 2781.01 1247.57   1
  -7  12   4 2088.13 951.456   1
 -12   7  -4 2739.14 1089.67   2
 -12   5  -4 4261.80 1444.18   2
  -5  12   4 2910.61 1177.62   1
   5 -12  -4 1513.42 744.459   1
  -7  12   5 118650. 7396.67   1
  -7  -5   5 84290.7 6465.18   1
  -5  -7   5 88209.7 6653.14   1
   7   5  -5 100088. 6857.71   1
   5   7  -5 105825. 7062.74   1
  -5  12   5 116396. 7614.35   1
   5 -12  -5 64086.5 5692.03   1
 -12   7  -5 117226. 7419.31   2
 -12   5  -5 122856. 7607.68   2
   7 -12  -5 87590.6 6582.32   1
  -7  -5   5 133757. 8093.52   2
  -5  -7   5 100373. 7050.14   2
  -7  12   6 162361. 8815.95   1
  -7  -5   6 160317. 8796.41   1
  -5  -7   6 206251. 10108.7   1
   7   5  -6 199207. 9635.90   1
   5   7  -6 198916. 9631.89   1
 -12   7  -6 182664. 9255.64   2
 -12   5  -6 177001. 9234.61   2
   7 -12  -6 117478. 7950.12   1
  -7  -5   6 217996. 10340.1   2
  -5  -7   6 235477. 10860.5   2
  -7  12   7 88497.7 6638.74   1
  -7  -5   7 107938. 7213.30   1
  -5  -7   7 113014. 7538.86   1
   7   5  -7 110583. 7229.92   1
   5   7  -7 102347. 6977.47   1
 -12   5  -7 108746. 7182.71   2
  -5  -7   7 116445. 7580.35   2
  -7  12   8-961.824 682.223   1
  12  -4  -6 140619. 8054.75   1
 -12   4   6 144863. 8258.89   1
 -12   4   6 133356. 8106.41   2
  12  -8  -5 104745. 6752.33   1
  12  -4  -5 109827. 7019.37   1
 -12   4   5 105633. 7013.13   1
  -4  12  -5 109302. 7032.34   1
   4 -12   5 118559. 7285.20   1
   8 -12   5 132062. 7506.61   1
  -8  12  -5 115219. 7254.78   1
 -12   8   5 98302.9 7135.22   2
 -12   4   5 117247. 7506.81   2
 -12   8   5 112882. 7083.38   1
  -8  12  -4 3143.43 1177.57   1
 -12   8   4 3780.26 1351.01   1
  -4  12  -4 1846.40 681.770   1
 -12   4   4 2222.24 926.109   1
  12  -8  -4 2600.66 975.347   1
  12  -4  -4 3080.18 1054.02   1
   4 -12   4 2948.88 1184.62   1
 -12   8   4 3593.45 1412.42   2
 -12   4   4 2895.85 1182.80   2
   8 -12   4 4556.54 1464.86   1
  12  -8  -3 65812.0 5578.13   1
  12  -4  -3 59961.6 5351.47   1
 -12   4   3 57304.3 5233.79   1
  -4  12  -3 64987.7 5523.91   1
 -12   8   3 69197.6 5611.78   1
   4 -12   3 56588.7 5039.70   1
   8 -12   3 42491.1 4389.32   1
 -12   8   3 57258.9 5263.69   2
 -12   4   3 65013.8 5447.86   2
  -8  12  -3 55961.2 5138.63   1
  12  -8  -2 121382. 7405.74   1
  12  -4  -2 115721. 7508.67   1
 -12   4   2 84317.6 6459.02   1
 -12   8   2 119485. 7183.26   1
  -4  12  -2 127153. 7696.04   1
   4 -12   2 104221. 7012.86   1
 -12   8   2 108298. 7309.54   2
   8 -12   2 117081. 7201.43   1
 -12   4   2 119463. 7298.68   2
  -8  -4  -2 89193.3 6595.66   2
  -8  12  -2 112770. 7023.04   1
 -12   8   1 11719.1 2208.81   1
  12  -8  -1 11453.4 2317.35   1
 -12   4   1 8753.03 2026.46   1
  12  -4  -1 10928.6 2286.50   1
  -4  12  -1 17757.2 2718.18   1
 -12   8   1 9926.44 2227.73   2
   4 -12   1 8037.69 1867.88   1
 -12   4   1 10488.0 2120.68   2
  -8  12  -1 10715.6 2219.21   1
  -8  -4  -1 9493.13 2198.14   2
   8 -12   1 9225.06 1989.24   1
  -8  -4   0-270.582 630.193   2
   8 -12   0 837.445 727.995   1
  12  -8   0 703.868 647.063   1
 -12   4   0 842.170 596.366   1
  12  -4   0-279.265 446.141   1
  -4  12   0-68.4365 235.071   1
  -8  12   0 280.557 139.767   1
 -12   8   0-415.071 747.824   1
 -12   8   0 493.762 630.239   2
   4 -12   0 587.407 690.708   1
 -12   4   0 254.606 383.643   2
  -8  12   1 37505.8 4080.82   1
 -12   8  -1 33973.0 3796.75   1
  12  -4   1 34499.6 4133.48   1
  -4  12   1 32290.8 3915.92   1
   4 -12  -1 26596.3 3591.87   1
 -12   8  -1 37316.0 4367.06   2
 -12   4  -1 32924.8 3918.44   2
   8 -12  -1 37702.9 4192.34   1
  -8  -4   1 39139.7 4289.08   2
  12  -8   1 39247.3 4339.91   1
  -8  12   2 130993. 7563.28   1
  -4  12   2 123925. 7726.13   1
   4 -12  -2 104169. 7355.16   1
 -12   8  -2 133109. 7878.18   2
   4   8  -2 113646. 7335.55   1
 -12   4  -2 113260. 7310.68   2
  -8  -4   2 125211. 7809.79   2
  12  -8   2 115097. 7390.84   1
  -4  -8   2 123732. 7949.70   2
 -12   8  -2 124797. 7531.46   1
  -8  12   3 65291.7 5309.39   1
  -8  -4   3 46263.0 4767.79   1
  -4  -8   3 38579.9 4420.88   1
   8   4  -3 52024.9 4955.84   1
  -4  12   3 59655.1 5403.26   1
   4 -12  -3 45413.9 4834.55   1
 -12   8  -3 58150.2 5323.19   2
   4   8  -3 49893.5 4809.22   1
 -12   4  -3 55083.5 5111.11   2
   8 -12  -3 61656.8 5375.58   1
 -12   8  -3 53202.8 4901.05   1
  -8  -4   3 38648.6 4312.50   2
  12  -8   3 52936.0 5017.39   1
  -4  -8   3 40915.1 4597.07   2
  -8  12   4 63798.9 5404.41   1
  -8  -4   4 50934.0 5097.37   1
  -4  -8   4 55587.5 5477.40   1
   8   4  -4 60921.5 5435.41   1
  -4  12   4 51034.9 5064.57   1
 -12   8  -4 55964.2 5060.98   1
 -12   8  -4 67992.0 5729.55   2
   4   8  -4 51733.1 4934.97   1
 -12   4  -4 75686.2 6035.11   2
   8 -12  -4 57939.1 5267.33   1
  -8  -4   4 64326.7 5540.63   2
  12  -8   4 50160.4 4951.97   1
  -4  -8   4 70485.0 6148.01   2
  -8  -4   5 10651.6 2301.05   2
  -4  -8   5 9033.58 2281.52   2
  -8  12   5 15885.1 2694.48   1
  12  -8   5 6737.84 1773.32   1
   4   8  -5 8890.32 2050.44   1
  -8  -4   5 7585.63 1877.54   1
   8   4  -5 10731.2 2264.94   1
  -4  -8   5 10559.5 2215.76   1
 -12   8  -5 8955.17 2085.40   2
   8 -12  -5 15104.0 2621.57   1
 -12   4  -5 9294.44 2070.59   2
  -8  12   6 208956. 10181.5   1
  -8  -4   6 209342. 10113.2   1
  -4  -8   6 239415. 10758.1   1
   8   4  -6 217145. 10106.7   1
 -12   4  -6 219229. 10268.0   2
   4   8  -6 222149. 10080.1   1
  -4  -8   6 248223. 11196.6   2
  -8  12   7 48525.4 4896.77   1
  -8  -4   7 46967.8 4850.96   1
   8   4  -7 49449.1 4760.58   1
   4   8  -7 48780.1 4724.54   1
   8 -12  -7 30563.4 3967.93   1
  -8  12   8 3932.18 1529.38   1
   3 -12   6-163.817 743.446   2
   3 -12   5 1103.06 539.836   2
 -12   3   5 2496.73 1147.70   1
  12  -3  -5 2293.77 1038.73   1
 -12   3   4 262888. 11422.6   1
  12  -3  -4 273556. 11514.3   1
  -3  12  -4 322776. 12242.4   1
   3 -12   4 304518. 11891.2   1
 -12   9   4 228651. 10991.2   2
 -12   3   4 296731. 11823.3   2
   9 -12   3 715.859 545.985   1
  -3  12  -3 815.922 561.581   1
  12  -9  -3 1127.34 807.250   1
 -12   3   3 1530.71 979.781   1
  -9  12  -3 1632.66 891.639   1
  12  -3  -3 1192.95 864.170   1
   3 -12   3 1018.18 745.567   1
 -12   9   3 436.042 613.809   2
 -12   9   3 813.414 640.182   1
 -12   3   3 818.247 489.814   2
  -9  -3  -3 96.8449 181.760   2
   9 -12   2 5313.67 1536.25   1
  -3  12  -2 7701.99 1823.67   1
  12  -9  -2 9704.34 2028.44   1
 -12   3   2 4672.06 1443.85   1
  12  -3  -2 5505.26 1612.64   1
  -9  12  -2 5975.06 1682.57   1
 -12   9   2 7038.55 1705.55   1
   3 -12   2 6752.98 1844.51   1
 -12   9   2 5281.79 1585.13   2
 -12   3   2 7541.13 1768.90   2
  -9  -3  -2 5070.62 1599.86   2
   9 -12   1-133.336 341.832   1
  -3  12  -1-457.735 499.946   1
  12  -9  -1-283.755 354.261   1
 -12   3   1-653.759 691.407   1
  12  -3  -1 480.790 592.884   1
 -12   9   1 366.195 417.358   1
  -9  12  -1 134.225 459.608   1
 -12   9   1-427.533 638.579   2
   3 -12   1-359.695 385.318   1
 -12   3   1 493.943 509.008   2
  -9  -3  -1 142.933 241.443   2
  -9  12   0 125815. 7505.01   1
  12  -3   0 109383. 7341.33   1
  -3  12   0 110679. 7199.78   1
   3 -12   0 88119.4 6559.74   1
 -12   9   0 116563. 7868.03   2
 -12   3   0 139476. 7827.14   2
   9 -12   0 147127. 8205.62   1
  -9  -3   0 122704. 7754.79   2
  12  -9   0 122786. 7566.66   1
 -12   9   0 116394. 7301.61   1
   9 -12  -1 715.124 785.005   1
  -9  12   1 1046.53 794.832   1
 -12   9  -1 713.545 698.222   1
  12  -9   1 1163.51 665.531   1
  -3  12   1 1487.53 899.856   1
 -12   9  -1 1386.64 864.281   2
   3 -12  -1 349.759 510.075   1
 -12   3  -1 1602.65 960.945   2
  -9  -3   1 1010.53 547.383   2
   9 -12  -2 464.296 390.297   1
  12  -9   2 767.897 757.398   1
  -9  12   2 1375.48 624.857   1
  -3  12   2 442.445 701.382   1
   3   9  -2 513.088 608.162   1
 -12   9  -2 1511.88 734.679   2
   3 -12  -2 553.341 695.123   1
 -12   3  -2 257.819 345.736   2
 -12   9  -2 145.960 185.754   1
  -9  -3   2 453.981 103.159   2
  -9  -3   3 7112.86 1676.85   2
   9 -12  -3 8704.05 2099.72   1
  -3  -9   3 5510.79 1586.34   2
  12  -9   3 6585.99 1619.06   1
  -9  12   3 9074.84 1952.99   1
   3   9  -3 5748.07 1620.82   1
  -3  -9   3 6907.18 1823.09   1
 -12   9  -3 6997.86 1846.16   1
 -12   9  -3 5948.42 1554.26   2
   9   3  -3 5976.07 1696.31   1
 -12   3  -3 5638.17 1412.99   2
  -9  12   4 282699. 11618.3   1
  -9  -3   4 278159. 11737.2   1
   9   3  -4 333151. 12643.0   1
  -3  -9   4 305065. 12456.9   1
 -12   9  -4 357353. 12958.5   1
 -12   9  -4 321416. 12305.2   2
 -12   3  -4 351051. 13103.3   2
   3   9  -4 338533. 12611.5   1
   9 -12  -4 300524. 11929.8   1
  -9  -3   4 370911. 13297.8   2
  12  -9   4 379070. 13388.2   1
  -3  -9   4 355111. 13670.2   2
   9 -12  -5 3141.97 1225.20   1
  -3  -9   5 2165.14 1189.00   2
  12  -9   5 2069.61 980.874   1
   3   9  -5 1312.87 616.994   1
  -9  12   5 123.919 573.639   1
  -9  -3   5 2372.59 1100.21   1
 -12   9  -5 1117.01 734.199   1
  -3  -9   5 1019.80 607.902   1
   9   3  -5 2316.03 988.934   1
  12  -9   6 7758.40 1887.61   1
  -3  -9   6 6518.50 1820.81   2
  -9  -3   6 5657.50 1699.97   1
   9   3  -6 6714.45 1815.40   1
 -12   2   4 20972.4 3393.28   1
  12  -2  -4 26890.3 3675.50   1
 -12   2   3 14211.7 2660.33   1
  12  -2  -3 18818.6 3112.26   1
 -10  -2  -3 22209.6 3407.60   2
 -12   2   2 85002.7 6812.64   1
  -2  12  -2 93738.0 6775.71   1
  12  -2  -2 74825.4 6130.82   1
   2 -12   2 79343.5 6391.29   1
 -12  10   2 84402.4 6696.47   2
 -10  -2  -2 68373.7 5884.81   2
   2 -12   1 1360.66 882.809   1
 -12  10   1 956.432 748.253   2
 -10  -2  -1 1318.16 794.984   2
  -2  12  -1 1163.56 879.304   1
  -2  12   0 12149.6 2478.15   1
   2 -12   0 5760.30 1658.25   1
 -12  10   0 9157.49 2214.75   2
 -10  -2   0 11177.9 2334.48   2
  -2  12   1 29289.3 3924.69   1
 -10  -2   1 35725.4 4194.67   2
   2  10  -2 76558.4 6217.98   1
  -2 -10   3 92345.6 6868.25   1
   2  10  -3 81588.2 6328.55   1
   2  10  -4 3531.89 1210.62   1
  -2 -10   4 1865.89 800.515   1
 -13   6   1 2814.19 1210.36   1
  13  -6  -1 3525.94 1341.38   1
  13  -7   0-17.1889 350.988   1
  13  -6   0 140.807 194.611   1
 -13   7   0-269.889 715.196   1
 -13   6   0-285.735 435.061   1
  -7  -6   1 7344.40 2113.73   2
 -13   7  -1 3447.59 1236.61   1
  13  -7   1 3427.56 1327.25   1
  13  -6   1 4627.17 1564.53   1
  -7  -6   2 72839.2 6215.96   2
  13  -7   2 70188.4 5980.40   1
  -6  -7   3 73770.1 6378.77   2
 -13   5   1 802.354 1073.04   1
  13  -5  -1 7.55590 367.190   1
  13  -5   0 335.767 683.864   1
  -8  -5   1 914.087 487.958   2
   0   0   0    0.00    0.00   0
;
_shelx_hkl_checksum              3032
loop_
_space_group_symop_operation_xyz
'x, y, z'
'-y, x-y, z'
'-x+y, -x, z'
'-y, -x, -z+1/2'
'-x+y, y, -z+1/2'
'x, x-y, -z+1/2'
'-x, -y, -z'
'y, -x+y, -z'
'x-y, x, -z'
'y, x, z-1/2'
'x-y, -y, z-1/2'
'-x, -x+y, z-1/2'
loop_
_atom_site_label
_atom_site_type_symbol
_atom_site_fract_x
_atom_site_fract_y
_atom_site_fract_z
_atom_site_U_iso_or_equiv
_atom_site_adp_type
_atom_site_occupancy
_atom_site_site_symmetry_order
_atom_site_calc_flag
_atom_site_refinement_flags_posn
_atom_site_refinement_flags_adp
_atom_site_refinement_flags_occupancy
Co1 Co 0.6667 0.3333 0.2500 0.0148(2) Uani 1 6 d S T P
Fe1 Fe 1.0000 0.0000 0.0000 0.0137(2) Uani 1 6 d S T P
O1 O 0.88324(19) 0.34320(16) 0.16820(11) 0.0275(4) Uani 1 1 d . . .
O2 O 1.01287(16) 0.20890(18) 0.08287(9) 0.0238(3) Uani 1 1 d . . .
C1 C 0.8736(2) 0.2097(2) 0.12094(14) 0.0225(4) Uani 1 1 d . . .
H1 H 0.7559 0.1032 0.1131 0.047(10) Uiso 1 1 calc R . .
C2 C 1.3333 0.6667 0.151(3) 0.265(18) Uani 1 3 d S T P
N1 N 1.2784(7) 0.5568(15) 0.2500 0.183(16) Uani 0.334 2 d S T P
loop_
_atom_site_aniso_label
_atom_site_aniso_U_11
_atom_site_aniso_U_22
_atom_site_aniso_U_33
_atom_site_aniso_U_23
_atom_site_aniso_U_13
_atom_site_aniso_U_12
Co1 0.0126(2) 0.0126(2) 0.0191(4) 0.000 0.000 0.00630(12)
Fe1 0.0120(2) 0.0120(2) 0.0171(4) 0.000 0.000 0.00598(12)
O1 0.0233(6) 0.0218(6) 0.0367(8) -0.0073(4) 0.0068(5) 0.0108(4)
O2 0.0209(5) 0.0217(5) 0.0303(8) -0.0047(4) 0.0029(4) 0.0116(4)
C1 0.0203(6) 0.0216(6) 0.0283(9) -0.0050(5) 0.0003(5) 0.0125(6)
C2 0.037(2) 0.037(2) 0.72(5) 0.000 0.000 0.0183(11)
N1 0.051(5) 0.019(4) 0.47(5) 0.000 -0.115(14) 0.0097(19)
loop_
_atom_type_symbol
_atom_type_description
_atom_type_scat_dispersion_real
_atom_type_scat_dispersion_imag
_atom_type_scat_source
C C 0.0030 0.0010 'International Tables Vol C Tables 4.2.6.8 and 6.1.1.4'
H H 0.0000 0.0000 'International Tables Vol C Tables 4.2.6.8 and 6.1.1.4'
N N 0.0050 0.0030 'International Tables Vol C Tables 4.2.6.8 and 6.1.1.4'
O O 0.0090 0.0050 'International Tables Vol C Tables 4.2.6.8 and 6.1.1.4'
Fe Fe 0.3380 0.7600 'International Tables Vol C Tables 4.2.6.8 and 6.1.1.4'
Co Co 0.3460 0.8760 'International Tables Vol C Tables 4.2.6.8 and 6.1.1.4'
loop_
_geom_angle_atom_site_label_1
_geom_angle_atom_site_label_2
_geom_angle_atom_site_label_3
_geom_angle
_geom_angle_site_symmetry_1
_geom_angle_site_symmetry_3
O1 Co1 O1 93.45(6) 4_665 6
O1 Co1 O1 83.78(7) 4_665 3_665
O1 Co1 O1 176.11(6) 6 3_665
O1 Co1 O1 176.11(6) 4_665 2_655
O1 Co1 O1 89.45(8) 6 2_655
O1 Co1 O1 93.45(6) 3_665 2_655
O1 Co1 O1 93.45(6) 4_665 5_655
O1 Co1 O1 93.45(6) 6 5_655
O1 Co1 O1 89.45(8) 3_665 5_655
O1 Co1 O1 83.78(7) 2_655 5_655
O1 Co1 O1 89.45(8) 4_665 .
O1 Co1 O1 83.78(7) 6 .
O1 Co1 O1 93.45(6) 3_665 .
O1 Co1 O1 93.45(6) 2_655 .
O1 Co1 O1 176.11(6) 5_655 .
O2 Fe1 O2 91.39(5) 7_755 8_665
O2 Fe1 O2 88.61(5) 7_755 2_645
O2 Fe1 O2 180.00(9) 8_665 2_645
O2 Fe1 O2 180.0 7_755 .
O2 Fe1 O2 88.61(5) 8_665 .
O2 Fe1 O2 91.39(5) 2_645 .
O2 Fe1 O2 91.39(5) 7_755 9_545
O2 Fe1 O2 91.38(5) 8_665 9_545
O2 Fe1 O2 88.62(5) 2_645 9_545
O2 Fe1 O2 88.61(5) . 9_545
O2 Fe1 O2 88.61(5) 7_755 3_765
O2 Fe1 O2 88.62(5) 8_665 3_765
O2 Fe1 O2 91.38(5) 2_645 3_765
O2 Fe1 O2 91.39(5) . 3_765
O2 Fe1 O2 180.00(9) 9_545 3_765
C1 O1 Co1 125.03(11) . .
C1 O2 Fe1 125.17(11) . .
O1 C1 O2 124.28(17) . .
N1 C2 N1 51.2(12) 3_775 .
N1 C2 N1 51.2(12) 3_775 2_755
N1 C2 N1 51.2(12) . 2_755
N1 N1 N1 60.001(1) 3_775 2_755
N1 N1 C2 64.4(6) 3_775 4_775
N1 N1 C2 64.4(6) 2_755 4_775
N1 N1 C2 64.4(6) 3_775 .
N1 N1 C2 64.4(6) 2_755 .
C2 N1 C2 120.1(15) 4_775 .
loop_
_geom_bond_atom_site_label_1
_geom_bond_atom_site_label_2
_geom_bond_distance
_geom_bond_site_symmetry_2
Co1 O1 2.0688(13) 4_665
Co1 O1 2.0688(14) 6
Co1 O1 2.0688(13) 3_665
Co1 O1 2.0688(13) 2_655
Co1 O1 2.0688(13) 5_655
Co1 O1 2.0689(13) .
Fe1 O2 2.0150(12) 7_755
Fe1 O2 2.0151(12) 8_665
Fe1 O2 2.0151(12) 2_645
Fe1 O2 2.0151(12) .
Fe1 O2 2.0151(12) 9_545
Fe1 O2 2.0151(12) 3_765
O1 C1 1.2413(18) .
O2 C1 1.2595(18) .
C2 N1 1.57(3) 3_775
C2 N1 1.57(3) .
C2 N1 1.57(3) 2_755
N1 N1 1.354(18) 3_775
N1 N1 1.354(18) 2_755
N1 C2 1.57(3) 4_775
