#------------------------------------------------------------------------------
#$Date: 2017-02-04 00:27:03 +0200 (Sat, 04 Feb 2017) $
#$Revision: 191260 $
#$URL: file:///home/coder/svn-repositories/cod/cif/4/34/51/4345112.cif $
#------------------------------------------------------------------------------
#
# This file is available in the Crystallography Open Database (COD),
# http://www.crystallography.net/
#
# All data on this site have been placed in the public domain by the
# contributors.
#
data_4345112
loop_
_publ_author_name
'Mazzuca, Lidia'
'Ca\~nadillas-Delgado, Laura'
'Rodr\'iguez-Velamaz\'an, J Alberto'
'Fabelo, Oscar'
'Scarrozza, Marco'
'Stroppa, Alessandro'
'Picozzi, Silvia'
'Zhao, Jiong-Peng'
'Bu, Xian-He'
'Rodr\'iguez-Carvajal, Juan'
_publ_section_title
;
 Magnetic Structures of Heterometallic M(II)-M(III) Formate Compounds.
;
_journal_issue                   1
_journal_name_full               'Inorganic chemistry'
_journal_page_first              197
_journal_page_last               207
_journal_paper_doi               10.1021/acs.inorgchem.6b01866
_journal_volume                  56
_journal_year                    2017
_chemical_formula_sum            'C8 H14 Fe Mn N O12'
_chemical_formula_weight         426.98
_chemical_name_systematic
;
 ?
;
_space_group_crystal_system      trigonal
_space_group_IT_number           163
_space_group_name_Hall           '-P 3 2c'
_space_group_name_H-M_alt        'P -3 1 c'
_symmetry_space_group_name_Hall  '-P 3 2c'
_symmetry_space_group_name_H-M   'P -3 1 c'
_atom_sites_solution_hydrogens   geom
_audit_creation_method           SHELXL-2014
_cell_angle_alpha                90
_cell_angle_beta                 90
_cell_angle_gamma                120
_cell_formula_units_Z            2
_cell_length_a                   8.27770(10)
_cell_length_b                   8.27770(10)
_cell_length_c                   13.8953(2)
_cell_measurement_reflns_used    6707
_cell_measurement_temperature    30(2)
_cell_measurement_theta_max      32.4210
_cell_measurement_theta_min      2.7100
_cell_volume                     824.552(18)
_computing_cell_refinement       'CrysAlis PRO software program'
_computing_data_collection       'CrysAlis PRO software program'
_computing_data_reduction        'CrysAlis PRO software program'
_computing_molecular_graphics    'Mercury (McRae, 2006)'
_computing_publication_material  'WINGX (Farrugia, 1999)'
_computing_structure_refinement  'SHELXL-2014 (Sheldrick, 2014)'
_computing_structure_solution    'SHELXL-2014 (Sheldrick, 2014)'
_diffrn_ambient_temperature      30(2)
_diffrn_measured_fraction_theta_full 0.918
_diffrn_measured_fraction_theta_max 0.933
_diffrn_measurement_device_type  'CRISTAL beamline, SOLEIL synchrotron'
_diffrn_radiation_type           synchrotron
_diffrn_radiation_wavelength     0.66951
_diffrn_reflns_av_R_equivalents  0.0391
_diffrn_reflns_av_unetI/netI     0.0171
_diffrn_reflns_Laue_measured_fraction_full 0.918
_diffrn_reflns_Laue_measured_fraction_max 0.933
_diffrn_reflns_limit_h_max       12
_diffrn_reflns_limit_h_min       -12
_diffrn_reflns_limit_k_max       12
_diffrn_reflns_limit_k_min       -11
_diffrn_reflns_limit_l_max       22
_diffrn_reflns_limit_l_min       -22
_diffrn_reflns_number            10382
_diffrn_reflns_point_group_measured_fraction_full 0.918
_diffrn_reflns_point_group_measured_fraction_max 0.933
_diffrn_reflns_theta_full        23.685
_diffrn_reflns_theta_max         32.595
_diffrn_reflns_theta_min         2.762
_diffrn_source                   synchrotron
_exptl_absorpt_coefficient_mu    1.435
_exptl_absorpt_correction_T_max  1.00000
_exptl_absorpt_correction_T_min  0.82320
_exptl_absorpt_correction_type   multi-scan
_exptl_absorpt_process_details
;
CrysAlisPro, Agilent Technologies,
Version 1.171.37.33 (release 27-03-2014 CrysAlis171 .NET)
(compiled Mar 27 2014,17:12:48)
Empirical absorption correction using spherical harmonics,
 implemented in SCALE3 ABSPACK scaling algorithm.
;
_exptl_crystal_colour            dark-yellow
_exptl_crystal_density_diffrn    1.720
_exptl_crystal_description       prism
_exptl_crystal_F_000             432
_exptl_crystal_size_max          0.08
_exptl_crystal_size_mid          0.07
_exptl_crystal_size_min          0.06
_refine_diff_density_max         0.385
_refine_diff_density_min         -0.455
_refine_diff_density_rms         0.068
_refine_ls_extinction_method     none
_refine_ls_goodness_of_fit_ref   1.252
_refine_ls_hydrogen_treatment    refU
_refine_ls_matrix_type           full
_refine_ls_number_parameters     41
_refine_ls_number_reflns         1125
_refine_ls_number_restraints     0
_refine_ls_restrained_S_all      1.252
_refine_ls_R_factor_all          0.0257
_refine_ls_R_factor_gt           0.0242
_refine_ls_shift/su_max          0.000
_refine_ls_shift/su_mean         0.000
_refine_ls_structure_factor_coef Fsqd
_refine_ls_weighting_details
'w=1/[\s^2^(Fo^2^)+(0.0283P)^2^+0.4891P] where P=(Fo^2^+2Fc^2^)/3'
_refine_ls_weighting_scheme      calc
_refine_ls_wR_factor_gt          0.0681
_refine_ls_wR_factor_ref         0.0746
_reflns_Friedel_coverage         0.000
_reflns_number_gt                1089
_reflns_number_total             1125
_reflns_threshold_expression     'I > 2\s(I)'
_cod_data_source_file            FeMn_35K.cif
_cod_data_source_block           shelx
_cod_original_cell_volume        824.55(2)
_cod_database_code               4345112
_shelx_space_group_comment
;
The symmetry employed for this shelxl refinement is uniquely defined
by the following loop, which should always be used as a source of
symmetry information in preference to the above space-group names.
They are only intended as comments.
;
_shelxl_version_number           2014-3
_shelx_res_file
;
TITL FeMn_30K in P-31c
CELL  0.66951   8.2777   8.2777  13.8953   90.000   90.000  120.000
ZERR     2.00   0.0001   0.0001   0.0002    0.000    0.000    0.000
LATT   1
SYMM  - Y,   X - Y,   Z
SYMM  - X + Y, - X,   Z
SYMM  - Y, - X, 1/2 - Z
SYMM  - X + Y,   Y, 1/2 - Z
SYMM    X,   X - Y, 1/2 - Z
SFAC  C        2.31000 20.84392  1.02000 10.20751   1.58860   0.56870 =
         0.86500  51.65125   0.21560   0.003   0.001    10.064   0.770  12.011
SFAC  H        0.49300 10.51091  0.32291 26.12573   0.14019   3.14236 =
         0.04081  57.79977   0.00304   0.000   0.000     0.666   0.320   1.008
SFAC  N       12.21261  0.00570  3.13220  9.89331   2.01250  28.99754 =
         1.16630   0.58260 -11.52901   0.005   0.003    16.889   0.700  14.007
SFAC  O        3.04850 13.27711  2.28680  5.70111   1.54630   0.32390 =
         0.86700  32.90894   0.25080   0.009   0.005    27.551   0.660  15.999
SFAC  FE      11.76951  4.76111  7.35731  0.30720   3.52220  15.35351 =
         2.30450  76.88058   1.03690   0.338   0.762  2939.485   1.260  55.845
SFAC  MN      11.28191  5.34091  7.35731  0.34320   3.01930  17.86742 =
         2.24410  83.75438   1.08960   0.324   0.657  2538.176   1.370  54.938
UNIT  16   28   2    24   2    2
MERG   2
FMAP   2
PLAN   20
ACTA
L.S.  15
WGHT    0.028300    0.489100
FVAR      14.96860
MN2   6    0.666667    0.333333    0.250000    10.16667    0.00671    0.00671 =
         0.01053    0.00000    0.00000    0.00336
FE1   5    1.000000    0.000000    0.000000    10.16667    0.00639    0.00639 =
         0.00875    0.00000    0.00000    0.00319
O1    4    0.889585    0.342718    0.165920    11.00000    0.01675    0.01475 =
         0.02817   -0.00708    0.00625    0.00662
O2    4    1.016296    0.207748    0.081656    11.00000    0.01193    0.01227 =
         0.01703   -0.00272    0.00140    0.00655
C1    1    0.878100    0.211814    0.117463    11.00000    0.01264    0.01444 =
         0.01711   -0.00415   -0.00042    0.00793
AFIX  43
H1    2    0.760033    0.109848    0.106733    11.00000    0.03686
AFIX   0
C2    1    1.333333    0.666667    0.160909    10.33333    0.02253    0.02253 =
         0.31393    0.00000    0.00000    0.01127
N1    3    1.277907    0.555815    0.250000    10.16667    0.01465    0.01035 =
         0.21183    0.00000   -0.02909    0.00518
HKLF    4  1.0  0.00  1.00  0.00  1.00  0.00  0.00  0.00  0.00 -1.00

REM  FeMn_30K in P-31c
REM R1 =  0.0242 for    1089 Fo > 4sig(Fo)  and  0.0257 for all    1125 data
REM     41 parameters refined using      0 restraints

END

WGHT      0.0284      0.4894

REM Highest difference peak  0.385,  deepest hole -0.455,  1-sigma level  0.068
Q1    1   1.3254  0.5614  0.1696  11.00000  0.05    0.34
Q2    1   0.8652  0.2799  0.1430  11.00000  0.05    0.33
Q3    1   1.0000  0.0000  0.0612  10.33333  0.05    0.31
Q4    1   0.9411  0.2163  0.0881  11.00000  0.05    0.30
Q5    1   1.2592  0.7048  0.1078  11.00000  0.05    0.29
Q6    1   0.8036  0.2959  0.1783  11.00000  0.05    0.23
Q7    1   0.9769  0.1522  0.0419  11.00000  0.05    0.22
Q8    1   0.9180  0.3876  0.1525  11.00000  0.05    0.21
Q9    1   0.6667  0.3333  0.3184  10.33333  0.05    0.20
Q10   1   1.2339  0.3862  0.1099  11.00000  0.05    0.20
Q11   1   0.8919  0.3036  0.2082  11.00000  0.05    0.20
Q12   1   0.6435  0.4928  0.2903  11.00000  0.05    0.20
Q13   1   1.3246  0.7043  0.0828  11.00000  0.05    0.20
Q14   1   0.8295  0.1705  0.2500  10.50000  0.05    0.20
Q15   1   0.8001  0.3375  0.2149  11.00000  0.05    0.19
Q16   1   1.3655  0.6190  0.2790  11.00000  0.05    0.19
Q17   1   1.1343  0.2685  0.2500  10.50000  0.05    0.19
Q18   1   1.3159  0.5206  0.2726  11.00000  0.05    0.18
Q19   1   0.6152  0.0500  0.1816  11.00000  0.05    0.18
Q20   1   1.0185  0.1737  0.0245  11.00000  0.05    0.18
;
_shelx_res_checksum              76256
_shelx_hkl_file
;
   0   0  -2 33557.8 919.013   1
   0   0   2 34088.1 945.261   1
   0   0   2 33323.5 809.858   2
   0   0  -3 31.3134 139.541   1
   0   0   3-102.426 120.525   2
   0   0   3 66.4161 158.379   1
   0   0   5-77.5514 141.440   2
   0   0   5 154.910 221.889   1
   0   0  -5 218.313 211.610   1
   0   0   6 48947.4 1573.30   2
   0   0   6 50908.9 1846.13   1
   0   0  -6 46178.4 1725.09   1
   0   0  -7 53.8860 185.724   1
   0   0   7-390.595 315.207   1
   0   0   7-141.934 140.023   2
   0   0   8 484008. 9134.52   1
   0   0   9-115.390 186.411   2
   0   0  -9 207.846 266.084   1
   0   0   9 91.3193 285.028   1
   0   0  10 18474.3 1401.24   1
   0   0  10 21480.2 1306.92   2
   0   0 -10 20694.4 1447.32   1
   0   0 -11 121.465 246.490   1
   0   0  11-42.0371 235.171   1
   0   0  11-54.3873 277.192   2
   0   0  13 239.690 356.010   2
   0   0 -13 477.110 390.684   1
   0   0  13 256.805 375.562   1
   0   0  14 1792.73 459.487   2
   0   0 -14 1110.17 289.498   1
   0   0  14 1830.30 616.616   1
   0   0 -15-286.157 354.551   1
   0   0  15 149.729 339.559   1
   0   0  15 51.6087 355.969   2
   0   0  16 174765. 5816.64   1
   0   0 -16 169727. 5572.53   1
   0   0  17-87.7477 288.709   1
   0   0 -17-436.059 298.829   1
   0   0 -18 5600.36 995.181   1
   0   0  18 5886.07 1108.86   1
   0   0  19 757.822 621.219   1
   0   0 -19-503.231 508.782   1
   0   0  20 15286.8 1803.26   1
   0   0 -20 18264.0 1814.17   1
   0   0  21-876.858 675.315   1
   0   0 -21 323.725 377.610   1
   0   0  22 3771.63 939.892   1
   0   0 -22 5028.41 1030.41   1
   0   1   3 98637.5 2326.13   1
  -1   0  -3 95178.4 2317.85   1
   1   0   3 98485.0 2377.43   1
  -1   1   3 97449.2 2200.69   1
  -1   1  -3 102607. 2378.00   1
   0  -1  -3 102031. 2345.01   1
   0   1   3 97192.8 2231.50   2
   1  -1   3 102323. 2219.79   2
   0  -1   3 96043.7 2240.48   1
   0   1  -3 100771. 2240.61   1
   1  -1   3 101609. 2424.73   1
   1   0   3 104879. 2328.54   2
   1  -1  -4 9295.26 586.355   1
   0   1  -4 10430.4 690.930   1
   0   1   4 9582.40 624.463   2
  -1   1   4 8568.56 564.608   2
   1   0   4 9273.69 672.517   1
   0  -1   4 9050.85 641.477   1
   1  -1   4 9160.33 680.778   1
   1   0   4 10602.4 673.976   2
  -1   0   4 9021.14 550.238   1
  -1   1   4 7980.17 588.611   1
   0  -1   4 9404.51 465.763   2
   0  -1  -4 9628.94 695.149   1
  -1   0   4 7714.25 407.298   2
   0   1   4 9009.17 671.198   1
   1  -1   4 9184.44 582.455   2
  -1   0  -4 9394.75 699.314   1
  -1   1  -4 9597.60 717.566   1
   1   0  -4 10094.7 573.485   1
   0   1   5 7224.80 626.930   1
  -1   1  -5 5836.41 603.736   1
  -1   1   5 6755.09 591.197   1
   1   0  -5 8790.66 600.149   1
  -1   1   5 6883.12 514.939   2
   1  -1   5 6103.28 541.392   2
   0   1   5 7409.72 597.052   2
   1  -1   5 7131.13 682.210   1
   0  -1   5 6047.96 429.055   2
   1   0   5 6519.79 607.565   2
   0  -1  -5 8781.60 720.692   1
  -1   0  -5 7167.28 690.312   1
   1  -1  -5 8350.81 643.135   1
   0   1  -5 7292.73 588.933   1
   0  -1   5 6986.74 614.332   1
  -1   0   5 6833.89 416.638   2
   1   0   5 7443.06 713.953   1
  -1   0   5 7290.26 564.193   1
   1   0   6 10972.7 895.444   1
  -1   1   6 11603.8 756.194   2
  -1   0   6 10985.1 780.595   1
   0  -1  -6 9419.33 802.100   1
  -1   1   6 9633.33 775.837   1
   0   1   6 10930.3 875.317   1
   1  -1  -6 8992.17 728.034   1
  -1   0   6 11534.3 601.136   2
   1   0  -6 8747.99 672.879   1
   1   0   6 9968.35 793.346   2
  -1   0  -6 9152.82 793.020   1
   1  -1   6 12268.8 772.176   2
   1  -1   6 11848.8 891.122   1
  -1   1  -6 9464.20 808.184   1
   0  -1   6 11849.7 637.610   2
   0  -1   6 9793.13 789.022   1
   0   1  -6 9040.40 733.999   1
   0   1   6 11291.8 804.453   2
   1   0   7 82429.2 2743.21   1
  -1   1   7 81355.4 2298.04   2
   1  -1   7 79751.9 2373.39   2
   1  -1  -7 76816.8 2451.38   1
   1  -1   7 82208.3 2734.52   1
   1   0   7 79821.1 2520.23   2
  -1   0   7 74118.5 2036.77   2
   1   0  -7 78398.0 2404.20   1
   0   1   7 77216.8 2686.97   1
   0  -1  -7 75597.5 2559.09   1
  -1   0  -7 80694.8 2688.24   1
  -1   1   7 79835.2 2587.42   1
  -1   0   7 77903.5 2466.90   1
   0  -1   7 83435.3 2621.99   1
   0  -1   7 76138.8 2083.59   2
  -1   1  -7 80470.9 2649.94   1
   0   1   7 83644.2 2542.10   2
   0   1  -7 78402.6 2512.79   1
   1   0   8 26797.1 1428.76   2
   1   0  -8 22684.2 1301.26   1
  -1   1   8 24535.4 1272.22   2
  -1   1   8 25158.1 1441.30   1
   1  -1  -8 26870.3 1423.71   1
   1  -1   8 25819.5 1549.12   1
   0  -1   8 26105.3 1467.63   1
   0  -1  -8 27689.9 1530.64   1
   1  -1   8 26639.3 1351.57   2
   0   1   8 27027.3 1421.91   2
   1   0   8 27949.1 1597.96   1
  -1   0   8 25172.1 1160.47   2
  -1   0  -8 24798.8 1502.58   1
  -1   0   8 25191.9 1409.45   1
  -1   1  -8 28374.2 1573.90   1
   0  -1   8 24969.6 1166.23   2
   0   1   8 27285.4 1535.18   1
   0   1  -8 26283.6 1432.11   1
  -1   0   9 160624. 4303.95   1
   1   0   9 162802. 4563.58   1
   1  -1  -9 154324. 4169.61   1
   0   1  -9 159174. 4254.08   1
   1  -1   9 159094. 4488.93   1
  -1   0  -9 152002. 4360.03   1
   0   1   9 165124. 4563.98   1
  -1   1   9 162953. 4025.47   2
   0  -1   9 160160. 3769.76   2
   0  -1   9 167159. 4442.69   1
   0   1   9 159818. 4222.06   2
  -1   1  -9 164088. 4411.31   1
  -1   0   9 158193. 3655.94   2
   1   0  -9 154168. 4096.23   1
   1   0   9 165209. 4234.53   2
   1  -1   9 160974. 4048.98   2
  -1   1   9 162019. 4370.95   1
   0  -1  -9 173728. 4483.26   1
  -1   0 -10 587698. 11228.4   1
   1   0  10 610064. 10965.8   2
   1  -1 -10 599116. 10952.9   1
   1  -1  11 125387. 3772.09   2
   1   0  11 128774. 3919.30   2
   0   1  11 125787. 4166.94   1
   0   1 -11 125660. 3985.17   1
   1   0  11 123618. 4177.66   1
  -1   0  11 136063. 3497.87   2
   1  -1 -11 117349. 3797.06   1
  -1   0 -11 128966. 4114.32   1
   0   1  11 123437. 3843.47   2
   1  -1  11 116437. 4078.83   1
  -1   1  11 127801. 3690.58   2
   0  -1 -11 122874. 3960.73   1
   0  -1  11 122506. 4057.80   1
  -1   0  11 124741. 4030.73   1
  -1   1  11 116467. 4002.68   1
   0  -1  11 131496. 3528.65   2
  -1   1 -11 125924. 4080.22   1
   1   0 -11 114272. 3756.30   1
   0   1  12 70515.4 2891.78   2
   0  -1 -12 72210.2 3035.06   1
   0   1 -12 71980.2 3008.15   1
  -1   0  12 66308.7 2967.39   1
   0   1  12 70886.9 3126.98   1
   1  -1  12 69753.9 3101.81   1
  -1   1  12 70657.3 3084.97   1
  -1   1 -12 74060.4 3108.97   1
  -1   1  12 69742.1 2726.06   2
   1  -1  12 72328.6 2830.47   2
   0  -1  12 73763.7 3128.70   1
   1   0  12 67252.6 3104.44   1
  -1   0 -12 75454.3 3109.37   1
   1   0  12 70643.6 2920.34   2
   1  -1 -12 71622.2 2920.23   1
   0  -1  12 75926.0 2709.17   2
   1   0 -12 75079.2 2960.72   1
  -1   0  12 71473.3 2553.81   2
   1  -1 -13 115106. 3923.07   1
   0  -1 -13 103352. 3856.22   1
   0  -1  13 103868. 3410.97   2
   0   1  13 110444. 3813.87   2
   1   0 -13 112662. 3919.86   1
  -1   0  13 103340. 3359.84   2
   0   1 -13 101916. 3816.37   1
  -1   1  13 104676. 4009.03   1
   0  -1  13 107338. 4042.87   1
   1  -1  13 108486. 3707.58   2
  -1   1 -13 107328. 3921.42   1
   1   0  13 108795. 3808.89   2
   1  -1  13 98753.8 3896.03   1
   0   1  13 102154. 4001.11   1
  -1   0 -13 110002. 4021.36   1
   1   0  13 97380.3 3940.91   1
  -1   0  13 101432. 3884.84   1
  -1   1  13 109395. 3645.82   2
   0  -1 -14 253286. 6847.27   1
   1  -1  14 263379. 7220.00   1
  -1   0  14 242069. 6887.99   1
   0   1  14 276594. 6891.73   2
   1  -1 -14 267117. 6947.64   1
  -1   0 -14 281039. 7179.43   1
   1   0  14 269915. 7247.96   1
   1   0 -14 271880. 6897.36   1
  -1   1  14 268956. 6617.46   2
  -1   1 -14 272138. 7066.36   1
   0   1  14 264479. 7208.75   1
   1   0  14 272946. 6957.12   2
   1  -1  14 279436. 6779.41   2
  -1   1  14 269643. 7217.73   1
   0   1 -14 264604. 6903.73   1
   0  -1  14 250997. 7067.64   1
   1   0  15 65004.0 3287.61   1
  -1   0  15 65923.4 3239.47   1
   1  -1 -15 58168.1 2978.76   1
   0  -1 -15 62175.7 3090.14   1
   0   1  15 69416.2 3124.77   2
   0   1 -15 65552.3 3149.16   1
   1   0 -15 62469.5 3014.00   1
   1  -1  15 62687.6 3238.38   1
   1  -1  15 64224.7 2971.29   2
   0  -1  15 62994.6 3191.08   1
  -1   1  15 62542.1 3246.01   1
   1   0  15 66599.6 3154.24   2
   0   1  15 62410.6 3221.64   1
  -1   0 -15 62480.4 3183.73   1
  -1   1 -15 61431.1 3141.17   1
   0  -1  16 20983.5 1904.92   1
   1   0  16 17769.9 1667.44   2
   1   0 -16 20181.6 1759.93   1
   0   1  16 19111.3 1695.28   2
   0  -1 -16 17384.4 1679.81   1
   1  -1  16 17998.2 1815.07   1
   0   1 -16 19702.8 1705.87   1
  -1   0  16 19792.1 1809.38   1
  -1   0 -16 19327.7 1752.52   1
   1   0  16 17969.1 1795.34   1
  -1   1 -16 21578.5 1844.18   1
   0   1  16 16745.3 1685.19   1
  -1   1  16 16956.6 1702.38   1
   1  -1 -16 20988.5 1818.92   1
  -1   0 -17 10631.9 1361.01   1
   0  -1 -17 11798.2 1405.91   1
  -1   1  17 11715.1 1438.34   1
  -1   0  17 12597.0 1471.95   1
   1  -1  17 11162.0 1443.73   1
   1  -1 -17 12399.9 1433.75   1
   0   1 -17 12767.1 1479.48   1
   1   0 -17 12058.5 1397.43   1
   0   1  17 13336.5 1532.47   1
  -1   1 -17 13658.8 1492.54   1
   1   0  17 11643.8 1504.69   1
   0  -1  17 12004.1 1492.63   1
   1   0  18 39156.7 2740.34   1
   0   1  18 38463.2 2711.03   1
   1  -1 -18 39771.5 2624.72   1
  -1   0  18 41931.9 2823.15   1
   1  -1  18 36359.9 2694.86   1
  -1   1  18 41221.0 2786.19   1
  -1   1 -18 38397.3 2594.87   1
   0  -1 -18 42851.6 2737.77   1
   0  -1  18 38679.3 2789.82   1
  -1   0 -18 35709.6 2494.75   1
   0   1 -18 35061.5 2524.74   1
   1   0 -18 40330.3 2626.92   1
  -1   1  19 8102.79 1285.90   1
   0   1  19 6698.27 1161.69   1
  -1   1 -19 7369.05 1177.52   1
   1   0  19 6621.54 1196.89   1
   1  -1  19 5806.55 1108.76   1
   1  -1 -19 7006.20 1117.52   1
   0  -1  19 6253.80 1178.53   1
   0   1 -19 6202.39 1079.92   1
   1   0 -19 5778.85 1047.18   1
   0  -1 -19 7073.54 1130.98   1
  -1   0  19 6685.04 1165.90   1
  -1   0 -19 6625.03 1150.84   1
   1  -1 -20 1792.69 627.113   1
   1  -1  20 2192.15 730.280   1
  -1   1 -20 1663.08 589.548   1
   0  -1  20 1700.50 645.997   1
   0  -1 -20 1865.08 583.617   1
  -1   0 -20 1839.20 685.525   1
  -1   0  20 1033.61 565.995   1
   0   1  20 2378.74 686.838   1
   1   0 -20 1732.24 605.656   1
   1   0  20 1005.44 502.432   1
  -1   1  20 898.869 472.492   1
   0   1 -20 2109.81 653.130   1
  -1   0 -21 25775.6 2171.76   1
   1  -1 -21 21672.3 2046.45   1
   0  -1  21 22894.9 2296.33   1
  -1   0  21 20862.4 2201.94   1
   0  -1 -21 22445.4 2115.40   1
   0   1 -21 20452.7 1981.84   1
   1  -1  21 25531.2 2343.11   1
   1   0  21 25508.7 2278.54   1
   0   1  21 23404.5 2269.91   1
  -1   1  21 17287.9 1992.02   1
  -1   1 -21 20030.6 2007.19   1
  -1   1 -22 52934.3 3352.81   1
   1  -1  22 55074.2 3575.67   1
   0  -1 -22 57455.6 3389.43   1
   0   1  22 51655.7 3420.57   1
   1  -2  22 1464.42 653.052   1
  -1  -1 -21-212.734 338.994   1
   1   1  21-391.021 408.769   1
  -1   2 -21-519.552 374.519   1
   1  -2  21 144.545 358.187   1
   1  -2  20 158438. 6163.46   1
  -1   2 -20 162303. 6046.97   1
  -1  -1 -20 184718. 6200.55   1
   1   1  20 185252. 6458.65   1
  -2   1  19 505.048 523.956   1
  -1   2 -19-513.754 562.446   1
   1  -2  19 519.477 570.325   1
  -1  -1 -19 25.3512 423.397   1
   1   1  19 427.515 473.939   1
   1   1  18 68.3532 365.609   1
  -2   1  18-322.198 354.785   1
   2  -1 -18 182.814 404.326   1
  -1   2 -18 449.656 454.175   1
   1  -2  18 691.279 518.709   1
  -1  -1 -18 755.176 437.946   1
   1   1  18-134.368 396.727   2
   1   1  17-476.181 458.701   1
  -1   2 -17-72.5750 420.564   1
   1  -2  17 499.870 463.567   1
   2  -1 -17 200.411 336.219   1
  -2   1  17-42.1540 287.160   1
   1   1  17 374.533 300.831   2
  -1  -1 -17 56.1007 309.958   1
  -2   1  16 161609. 5569.86   1
   1   1  16 164618. 5683.17   1
   2  -1 -16 177827. 5583.41   1
  -1   2 -16 160783. 5395.46   1
   1   1  16 165979. 5466.47   2
  -1  -1 -16 158413. 5454.93   1
   1  -2  16 157969. 5626.21   1
  -1  -1 -15-239.926 422.063   1
   2  -1 -15-540.690 403.726   1
   1   1  15 415.116 308.807   1
  -2   1  15-196.433 347.308   1
   1   1  15 225.490 245.985   2
  -1   2 -15-46.1080 335.511   1
   1  -2  15 295.443 387.617   1
  -1  -1 -14 50184.9 2725.54   1
  -2   1  14 47164.2 2666.08   1
   1   1  14 46361.0 2670.15   1
   1   1  14 50344.6 2652.13   2
   1  -2  14 46320.9 2735.02   1
   2  -1 -14 55456.5 2738.25   1
   1  -2  14 45355.5 2366.05   2
  -1   2 -14 46660.2 2599.14   1
   1   1  13 104.298 327.611   2
   2  -1 -13-206.608 267.278   1
  -2   1  13 560.815 447.582   1
   1  -2  13 575.870 343.447   1
  -1  -1 -13 395.805 325.645   1
   1  -2  13 250.962 331.505   2
  -2   1  13 129.991 263.020   2
  -1   2 -13 278.611 324.679   1
   1   1  13-34.5940 374.390   1
  -1  -1 -12 438979. 9529.43   1
   1   1  12 453139. 9467.43   2
   1  -2  12 449368. 8965.34   2
   1   1  12 436635. 9696.18   1
  -2   1  12 420039. 9324.57   1
   2  -1 -12 442273. 9154.24   1
  -1   2 -12 427843. 9368.27   1
   1  -2  12 434158. 9701.38   1
   1   1  11-84.7896 269.524   2
   2  -1 -11-58.4234 240.397   1
   1   1  11 125.675 300.342   1
   1  -2  11 48.4789 234.768   1
  -1  -1 -11 43.4122 240.662   1
  -2   1  11 255.382 203.083   2
  -1   2 -11-4.14300 309.633   1
   1  -2  11 15.7298 197.010   2
  -2   1  11-96.8129 301.379   1
  -2   1  10 83053.5 3032.84   1
  -1   2 -10 92453.1 3252.74   1
   1   1  10 87914.5 3386.61   1
   1   1  10 94519.0 3206.49   2
   2  -1 -10 89753.0 2962.32   1
   1  -2  10 82458.6 2784.30   2
  -2   1  10 78354.1 2581.31   2
  -1  -1 -10 91526.4 3302.77   1
   1  -2  10 83141.2 3237.56   1
   1   1   9 145.760 316.876   1
   1  -2   9 66.5389 187.844   2
   1  -2   9 462.799 229.106   1
  -1  -1  -9 410.542 275.511   1
   1   1   9 384.796 310.108   2
  -2   1   9-72.9325 217.997   2
  -2   1   9-6.26184 189.698   1
   2  -1  -9-138.541 173.947   1
  -1   2  -9-61.1875 251.066   1
   2  -1  -7 257.680 228.925   1
   1  -2   7 446.888 219.584   2
   1   1   7 529.391 361.184   2
  -1   2  -7-34.2014 190.160   1
  -1  -1  -7 8.68957 261.137   1
   1   1   7 111.031 227.082   1
  -2   1   7 407.478 199.138   2
  -2   1   7 317.249 208.377   1
   1  -2   7 633.469 320.378   1
   1  -2   6 6914.54 761.800   1
  -1  -1  -6 7964.26 795.358   1
   1   1   6 10014.4 893.472   1
  -1   2  -6 7434.65 766.810   1
   1  -2   6 8205.97 668.418   2
   2  -1  -6 8090.36 623.237   1
  -2   1   6 8068.07 658.409   1
   1   1   6 9500.96 815.393   2
  -2   1   6 9593.15 632.464   2
   2  -1  -5 769.546 231.701   1
  -2   1   5 859.195 268.130   1
  -1   2  -5 871.112 301.258   1
   1  -2   5 671.269 215.642   2
  -1  -1  -5 409.269 178.529   1
   1   1   5 607.481 266.727   1
   1   1   5 409.011 243.630   2
   1  -2   3-291.269 215.284   1
   1   1   3 131.263 160.146   1
   1  -2   3-56.3556 140.303   2
  -1   2  -3 46.8275 178.465   1
  -1  -1  -3 36.9881 191.345   1
  -2   1   3 82.4080 98.4621   1
   1   1   3 106.703 191.853   2
   2  -1  -3 97.0589 90.7496   1
  -2   1   1 379.588 118.351   1
   1  -2   1 66.1411 168.422   1
  -1   2  -1 426.903 175.805   1
  -1  -1  -1 15.6321 130.289   1
   2  -1  -1 398.268 113.887   1
   2  -1  -1 355.380 146.438   2
   1   1   1 165.183 117.880   1
   1   1   1 152.049 159.816   2
   2  -1   1 983.264 222.363   1
  -1   2   1 1014.28 197.666   1
   1  -2  -1 1776.88 326.922   1
   2  -1   1 1128.63 247.629   2
  -1  -1   1 698.989 119.429   1
   1   1  -1 802.266 143.118   2
  -2   1  -1 1541.71 223.429   1
   1   1  -1 962.410 174.125   1
  -1   2   3 1550.50 328.089   1
  -1  -1   3 1455.36 238.506   1
   1  -2  -3 2276.58 364.120   1
   1   1  -3 1290.50 222.497   1
   2  -1   3 1437.58 356.463   1
  -2   1  -3 1167.81 315.572   1
   2  -1   3 1705.40 339.157   2
   2  -1   5 822.508 342.760   1
   2  -1   5 728.846 286.377   2
  -1  -1   5 825.158 258.517   1
  -1   2   5 224.797 203.885   1
   1   1  -5 424.840 177.863   1
  -1   2   5 877.052 309.618   2
   1  -2  -5 1031.77 311.929   1
  -2   1  -5 764.817 303.353   1
   2  -1   6 18745.2 1112.45   2
  -1   2   6 16694.5 1096.38   1
   1  -2  -6 22032.3 1226.51   1
   1   1  -6 18459.1 987.366   1
   2  -1   6 16853.3 1168.24   1
  -1  -1   6 20937.6 1077.72   1
  -2   1  -6 20852.5 1256.19   1
  -1   2   6 18092.6 1075.49   2
  -1   2   7 115.449 217.716   2
  -1  -1   7 29.4702 82.1854   2
   1  -2  -7 172.335 178.678   1
  -2   1  -7 284.504 248.666   1
  -1   2   7 108.211 232.297   1
   2  -1   7 107.093 245.695   1
   2  -1   7 222.004 224.048   2
   1   1  -7 241.524 190.157   1
  -1  -1   7-140.690 174.886   1
   2  -1   8 701902. 12247.5   2
   1  -2  -9 152.067 256.957   1
  -1  -1   9 89.7492 124.422   2
  -1  -1   9-160.482 251.521   1
  -2   1  -9 430.689 390.621   1
  -1   2   9-130.748 229.253   2
   1   1  -9 295.912 260.241   1
   2  -1   9 259.079 238.085   1
  -1   2   9-608.788 341.872   1
   2  -1   9 106.943 288.386   2
  -2   1 -10 68724.4 2849.89   1
   1  -2 -10 60000.4 2599.63   1
  -1  -1  10 68872.0 2739.87   1
   1   1 -10 71512.1 2650.81   1
  -1   2  10 68645.5 2829.96   1
  -1  -1  10 66326.0 1998.29   2
  -1   2  10 74031.0 2750.27   2
   2  -1  10 69409.3 2749.53   2
   2  -1  10 71382.9 2964.96   1
  -1  -1  11-96.9791 217.244   1
   1  -2 -11 258.527 298.366   1
   1   1 -11 300.050 186.726   1
  -1  -1  11 57.0356 134.592   2
   2  -1  11-25.0172 284.840   2
  -2   1 -11 112.751 347.267   1
  -1   2  11-34.5660 289.233   1
   2  -1  11 153.301 282.352   1
  -1   2  11-373.578 332.821   2
  -1   2  12 392467. 8347.31   2
  -1   2  12 379135. 8666.28   1
  -2   1 -12 389963. 8688.60   1
   2  -1  12 383245. 8380.39   2
   1   1 -12 387954. 8294.42   1
   1  -2 -12 389733. 8442.08   1
   2  -1  12 367117. 8734.42   1
  -1  -1  12 360556. 8434.54   1
   1  -2 -13-301.624 302.568   1
  -1  -1  13-158.166 347.841   1
   2  -1  13 239.437 299.511   1
   2  -1  13 509.246 408.533   2
  -1   2  13 336.406 295.731   2
  -2   1 -13-135.054 332.365   1
  -1   2  13 129.237 272.336   1
   1   1 -13 44.5219 249.424   1
  -2   1 -14 2874.24 730.434   1
  -1   2  14 3039.17 766.869   1
  -1   2  14 2679.51 585.843   2
   1   1 -14 2530.56 564.877   1
  -1  -1  14 3504.53 747.586   1
   1  -2 -14 2609.80 627.893   1
   2  -1  14 3615.59 741.037   2
   2  -1  14 3040.53 698.936   1
   2  -1  15-285.135 395.727   2
  -1   2  15-157.661 229.550   2
   1   1 -15 192.470 311.747   1
   1  -2 -15-573.254 541.328   1
  -1   2  15 719.698 331.672   1
  -2   1 -15 297.347 359.221   1
  -1  -1  15-128.814 247.438   1
   2  -1  15 597.375 500.222   1
   2  -1  16 222281. 6462.63   2
  -1  -1  16 214304. 6602.10   1
  -1   2  16 221190. 6400.23   2
  -2   1 -16 208404. 6373.86   1
   2  -1  16 209632. 6556.87   1
   1  -2 -16 207126. 6283.68   1
   1   1 -16 208363. 6285.06   1
  -1   2  16 200137. 6400.26   1
  -1   2  17 1459.19 718.981   1
  -1  -1  17-110.241 349.757   1
   2  -1  17 41.2622 323.395   1
  -2   1 -17-44.5193 340.507   1
   1   1 -17 665.071 459.278   1
   1  -2 -17-2.28782 285.711   1
   2  -1  17 365.621 385.697   2
  -1  -1  18 8417.51 1294.73   1
  -1   2  18 7595.86 1222.32   1
   2  -1  18 6973.05 1142.25   1
   1   1 -18 7843.42 1210.41   1
   1  -2 -18 8443.68 1237.22   1
  -2   1 -18 7269.73 1139.82   1
   1   1 -19 500.165 478.703   1
   1  -2 -19-47.7942 326.227   1
   2  -1  19 482.946 570.684   1
  -2   1 -19-3.39314 278.299   1
  -1   2  19-249.746 482.213   1
  -1  -1  19-1283.86 661.052   1
  -2   1 -20 126894. 5085.02   1
   2  -1  20 127473. 5317.36   1
  -1   2  20 117001. 5138.43   1
   1  -2 -20 111425. 4885.56   1
  -2   1 -21-520.475 474.347   1
   1  -2 -21-31.7240 416.082   1
   2  -1  21 735.442 525.013   1
  -1   2  21 457.130 526.232   1
  -1   2  22 23528.0 2331.84   1
   2   0   0 94629.6 2074.32   2
   2  -2   0 85642.5 2126.97   1
   0   2   0 93543.5 2253.49   1
   0  -2   0 88782.8 2217.99   1
  -2   2   0 91273.7 2225.74   1
   2   0  -1 111642. 2209.85   2
  -2   2   1 109041. 2459.28   1
   2  -2  -1 111952. 2481.21   1
   0   2  -1 116169. 2542.00   1
   0   2   1 102971. 2551.98   1
   2  -2   1 110972. 2570.72   1
   0  -2   1 104718. 2480.86   1
  -2   2  -1 109138. 2585.07   1
   2   0   1 104329. 2247.55   1
   0  -2  -1 106567. 2553.11   1
   2  -2   1 115844. 2716.24   2
   2   0  -7 60489.7 1887.69   1
  -2   0  -7 56759.7 2289.68   1
   0   2   7 58600.4 2191.91   2
  -2   2   7 56095.1 2049.18   2
   2  -2   7 55136.7 2324.54   1
   2  -2   7 54560.8 2102.72   2
   2  -2  -7 58882.6 2094.38   1
   0   2  -7 61283.8 2205.25   1
   0  -2   7 50563.1 1586.11   2
   0  -2   7 57099.6 2194.44   1
   2   0   7 58038.0 2216.05   2
  -2   0   7 53604.5 1864.12   1
  -2   2   7 55300.7 2087.74   1
   0   2   7 56943.7 2316.26   1
  -2   0   7 51613.0 1367.34   2
   0  -2  -7 58542.6 2292.13   1
   2   0   7 62367.5 2443.48   1
  -2   2  -7 56453.6 2287.26   1
  -2   2   8 8874.67 855.769   1
   0   2   8 10509.8 1014.50   1
  -2   2   8 8552.74 817.124   2
   2   0   8 9551.72 894.537   2
  -2   0   8 8812.68 793.370   1
  -2   0  -8 9383.29 997.710   1
   0  -2   8 8930.07 906.778   1
   2   0  -8 7968.32 709.833   1
   2   0   8 9669.27 974.891   1
  -2   2  -8 10437.6 969.930   1
   0  -2   8 8934.96 629.818   2
   0  -2  -8 9331.75 944.905   1
   2  -2  -8 9306.80 847.342   1
  -2   0   8 8362.26 535.107   2
   0   2  -8 9953.68 900.202   1
   2  -2   8 8492.83 830.879   2
   0   2   8 10852.5 929.871   2
   2  -2   8 9728.03 981.981   1
  -2   0  -9 34622.6 1943.43   1
   0   2  -9 34439.9 1826.94   1
   0  -2  -9 38450.9 2013.78   1
  -2   2   9 37030.1 1731.04   2
  -2   2   9 37857.4 1911.77   1
   0  -2   9 35906.2 1442.01   2
   2  -2   9 39040.9 1871.11   2
  -2   0   9 36730.4 1283.20   2
   2   0   9 38988.2 1943.11   2
   0  -2   9 39254.3 1984.69   1
  -2   0   9 36237.5 1760.40   1
   2   0   9 40275.6 2128.97   1
   2  -2   9 38108.9 2080.72   1
   0   2   9 36119.9 2025.96   1
   0   2   9 35839.9 1838.00   2
   2  -2  -9 32916.7 1723.89   1
   2   0  -9 38179.8 1727.10   1
  -2   2  -9 34562.5 1910.68   1
   2  -2  10 177577. 5068.01   1
   2  -2 -10 171110. 4601.48   1
  -2   0  10 172387. 4543.01   1
  -2   2  10 183139. 4841.84   1
  -2   0 -10 179920. 4959.20   1
   2   0  10 171439. 4712.27   2
  -2   2  10 174042. 4446.03   2
   2   0 -10 159148. 4277.98   1
   0  -2  10 167550. 3906.90   2
   0   2 -10 169415. 4667.35   1
   2  -2  10 179367. 4650.94   2
   0   2  10 161549. 4855.70   1
  -2   0  10 159993. 3565.91   2
   2   0  10 177910. 5066.49   1
  -2   2 -10 170397. 4864.62   1
   0  -2  10 156709. 4655.25   1
   0   2  10 174386. 4718.64   2
   0  -2 -10 172135. 4847.02   1
   0  -2  11 216276. 5814.81   1
  -2   0  11 213185. 4509.33   2
  -2   0  11 216041. 5553.35   1
   0  -2 -11 211515. 5722.59   1
  -2   0 -11 215037. 5864.92   1
  -2   2  11 211286. 5321.94   2
   0   2  11 224353. 5710.52   2
  -2   2 -11 201048. 5676.20   1
   0   2  11 213931. 5882.60   1
   2   0  11 216828. 5755.57   2
   0   2 -11 216577. 5610.85   1
   2  -2 -11 228588. 5660.90   1
   2   0  11 210511. 5964.86   1
   2  -2  11 227124. 5607.08   2
   2  -2  11 220951. 6037.84   1
   0  -2  11 219780. 4856.97   2
  -2   2  11 227161. 5790.96   1
  -2   2  12 72899.8 2904.13   2
   2  -2  12 65010.1 2840.88   2
   0  -2  12 65897.3 3041.31   1
   0  -2  12 67998.1 2404.28   2
  -2   2  12 59379.3 2861.68   1
   0   2  12 68826.5 3135.95   1
   0   2 -12 63901.7 2844.81   1
   0   2  12 69195.2 2944.24   2
   2   0  12 69837.2 3209.01   1
  -2   2 -12 63622.0 2934.77   1
   2  -2 -12 73774.4 2972.33   1
  -2   0  12 70667.5 2932.93   1
   2   0  12 67702.6 2987.60   2
   0  -2 -12 67297.7 2989.25   1
   2   0 -12 62468.6 2681.61   1
   2  -2  12 64309.4 3112.22   1
  -2   0 -12 71063.6 3106.77   1
  -2   2 -13 54832.7 2810.86   1
   2  -2  13 58051.3 2706.73   2
   2   0 -13 56788.7 2629.90   1
   2  -2 -13 54346.6 2646.83   1
  -2   0 -13 58676.7 2930.88   1
   0   2 -13 56834.7 2752.17   1
   2   0  13 54464.1 2922.56   1
   2  -2  13 55174.2 2910.06   1
   2   0  13 60630.1 2824.51   2
  -2   0  13 54667.0 2761.57   1
  -2   2  13 54829.7 2801.75   1
  -2   2  13 57495.6 2647.25   2
   0   2  13 58005.9 2795.68   2
   0  -2  13 55909.0 2876.56   1
   0   2  13 57023.6 2952.29   1
   0  -2 -13 52618.7 2734.86   1
  -2   2  14 170222. 5095.45   2
  -2   2  14 161762. 5323.43   1
   2   0  14 162873. 5492.79   1
   2  -2 -14 174401. 5227.67   1
  -2   0 -14 165748. 5377.40   1
   0  -2  14 161185. 5376.11   1
  -2   2 -14 172060. 5402.21   1
   2  -2  14 165514. 5535.82   1
   2  -2  14 178806. 5287.72   2
   0  -2 -14 165177. 5231.38   1
  -2   0  14 173862. 5408.44   1
   0   2 -14 173442. 5306.11   1
   0   2  14 173866. 5578.04   1
   2   0 -14 165581. 5076.92   1
   0   2  14 177250. 5341.29   2
   2   0  14 169616. 5345.24   2
   0   2 -15 404.243 399.123   1
  -2   0  15 636.713 382.135   1
   2   0  15 1003.56 527.096   2
   0  -2  15 1125.76 450.970   1
   2   0  15 530.506 559.036   1
   2   0 -15 201.187 265.116   1
   0   2  15 856.217 481.168   1
   2  -2  15 771.814 397.967   2
   2  -2 -15 510.859 363.749   1
  -2   0 -15 149.834 268.248   1
   2  -2  15 440.581 387.614   1
   0   2  15 966.863 432.073   2
  -2   2  15 792.732 510.442   1
  -2   2 -15 1034.31 504.629   1
   0  -2 -15 743.685 338.462   1
   0   2  16 4179.79 881.617   2
   0   2 -16 4231.18 793.414   1
  -2   2  16 4979.53 925.301   1
  -2   0 -16 3048.36 796.184   1
   0   2  16 3948.93 800.367   1
   2   0  16 4296.19 876.048   2
  -2   0  16 4793.64 942.412   1
   2  -2  16 3562.89 904.575   1
   2   0  16 3194.67 761.748   1
   2   0 -16 3516.42 808.883   1
   0  -2  16 3802.47 872.832   1
   0  -2 -16 4370.44 885.703   1
   2  -2 -16 3661.69 802.622   1
  -2   2 -16 3307.68 726.415   1
   2  -2  17 41598.5 2879.08   1
  -2   2  17 46444.8 2882.49   1
  -2   0 -17 43158.1 2736.42   1
   2   0  17 44744.2 2891.06   1
   2   0 -17 43336.3 2698.81   1
   0  -2  17 44969.2 2892.44   1
   0   2  17 46956.1 2830.63   2
  -2   2 -17 43285.9 2731.61   1
   0   2 -17 45559.2 2785.53   1
   2  -2 -17 44629.4 2732.64   1
   2   0  17 46223.9 2888.13   2
   0  -2 -17 48544.0 2825.73   1
   0   2  17 43433.6 2831.97   1
  -2   0  17 42714.6 2807.93   1
   2   0  18 107182. 4591.24   1
   0  -2 -18 106307. 4442.15   1
   2   0  18 104168. 4521.01   2
   0  -2  18 94245.8 4457.51   1
   2  -2  18 91822.9 4403.88   1
  -2   2 -18 95840.0 4265.17   1
   2  -2 -18 102290. 4384.26   1
   0   2 -18 104714. 4470.11   1
  -2   2  18 104292. 4578.78   1
  -2   0 -18 99426.1 4338.55   1
  -2   0  18 97683.1 4514.80   1
   0   2  18 102694. 4512.51   1
   2   0  19 83204.0 4116.46   1
   0  -2 -19 82782.4 3941.70   1
   2  -2  19 81954.1 4089.25   1
  -2   2  19 72046.1 3939.46   1
   0   2 -19 77671.8 3940.25   1
   0  -2  19 80525.4 4118.89   1
   2  -2 -19 77141.8 3845.14   1
  -2   2 -19 74960.7 3836.86   1
  -2   0 -19 83230.1 3992.50   1
   0   2  19 79784.1 4068.16   1
  -2   2  20 19465.2 2038.88   1
   0  -2  20 19016.6 2014.66   1
  -2   2 -20 23276.1 2138.23   1
   2  -2 -20 23191.9 2086.10   1
   2  -2  20 24169.8 2266.78   1
   0  -2 -20 22876.9 2076.15   1
  -2   0 -20 25291.6 2178.95   1
   2   0  20 22194.0 2156.36   1
   0   2 -20 21734.9 2052.09   1
   0   2  20 21670.4 2121.58   1
  -2   0 -21 9610.75 1416.99   1
   0   2  21 9905.59 1435.97   1
   0  -2 -21 10245.4 1398.65   1
   2   0  21 11079.7 1502.78   1
   0  -2  21 10056.2 1479.06   1
  -2   2 -21 10685.1 1492.34   1
   2  -2  21 9943.55 1529.87   1
   1   2  21 46676.2 3160.58   1
  -2   3 -21 42504.6 2933.26   1
  -1  -2 -21 45350.0 2995.89   1
   2   1  21 48426.3 3198.05   1
   1  -3  21 42248.7 3089.50   1
  -1   3 -21 41989.0 2956.19   1
  -2  -1 -21 48296.8 3020.69   1
  -1  -2 -20 1832.89 639.716   1
   1  -3  20 1742.34 656.360   1
  -1   3 -20 614.098 485.720   1
  -2  -1 -20 1078.78 476.182   1
  -2   3 -20 2084.82 762.916   1
   2  -3  20 1279.55 584.488   1
   2   1  20 1590.91 486.299   1
   1   2  20 1775.43 594.704   1
  -1  -2 -19 37114.4 2605.89   1
   1   2  19 37861.6 2764.54   1
   2   1  19 36538.4 2667.87   1
   2   1  19 37863.7 2729.51   2
  -2  -1 -19 37196.0 2611.12   1
  -2   3 -19 37451.6 2684.39   1
   2  -3  19 34392.7 2622.16   1
  -1   3 -19 33796.3 2519.71   1
   1   2  19 37031.7 2736.50   2
   2   1  18 210300. 6922.57   1
  -1  -2 -18 221076. 6797.05   1
   1  -3  18 213022. 6955.98   1
   2  -3  18 205743. 6876.50   1
   1   2  18 215111. 6817.66   2
  -1   3 -18 213935. 6815.56   1
  -2  -1 -18 226923. 6861.24   1
   2   1  18 212083. 6790.81   2
   1   2  18 210482. 6870.98   1
  -2   3 -18 202485. 6638.12   1
   1  -3  17 17458.6 1773.64   1
  -3   2  17 16595.0 1738.18   1
   1   2  17 16356.4 1737.93   1
  -1   3 -17 13925.9 1561.56   1
   1   2  17 16576.9 1709.06   2
  -1  -2 -17 16347.5 1614.92   1
   2  -3  17 15576.2 1628.03   1
  -2  -1 -17 15051.1 1632.42   1
   2   1  17 17754.4 1786.68   1
  -2   3 -17 16207.8 1646.94   1
   2   1  17 18421.8 1790.15   2
  -2   3 -16 112295. 4552.64   1
   1  -3  16 106398. 4513.64   1
   2   1  16 117444. 4699.63   1
   3  -2 -16 115889. 4432.09   1
   1   2  16 108333. 4376.68   2
   2  -3  16 104729. 4491.47   1
   2   1  16 114434. 4489.74   2
   1   2  16 111924. 4591.21   1
  -1   3 -16 120072. 4618.28   1
  -3   1  16 113059. 4551.14   1
  -2  -1 -16 108965. 4428.03   1
  -3   2  16 110494. 4517.69   1
  -1  -2 -16 111691. 4431.07   1
   3  -1 -15 26730.0 1915.31   1
   3  -2 -15 26870.0 1946.73   1
  -2  -1 -15 22800.4 1915.24   1
  -2   3 -15 23165.0 1940.94   1
   1  -3  15 26729.6 2122.66   1
   1   2  15 27399.4 1991.20   2
   2   1  15 26543.4 2048.21   2
   1   2  15 24610.1 2048.74   1
  -3   2  15 28065.7 2105.52   1
   2  -3  15 26027.1 2123.39   1
  -1  -2 -15 27164.0 2048.71   1
  -1   3 -15 24043.3 1908.86   1
   2   1  15 26356.4 2153.15   1
  -3   1  15 24648.2 1961.87   1
   1   2  14 106411. 4308.10   1
  -1  -2 -14 103446. 4075.57   1
   2   1  14 102132. 4048.58   2
  -2   3 -14 107192. 4227.01   1
   2  -3  14 104401. 3960.40   2
  -3   1  14 107126. 4089.41   1
   2  -3  14 106431. 4321.48   1
   1  -3  14 105314. 4224.57   1
   3  -1 -14 115577. 4055.80   1
   2   1  14 107484. 4355.63   1
  -3   2  14 103614. 4069.97   1
  -2  -1 -14 109909. 4227.61   1
  -1   3 -14 107911. 4179.96   1
   3  -2 -14 115080. 4112.82   1
   1   2  14 108163. 4127.93   2
   2  -3  13 14972.4 1308.74   2
  -3   2  13 14430.1 1411.94   1
  -1   3 -13 15365.1 1478.74   1
   2  -3  13 13524.6 1451.37   1
   2   1  13 16268.5 1610.24   1
  -1  -2 -13 15606.3 1452.42   1
  -2  -1 -13 14525.7 1438.89   1
   3  -1 -13 14607.3 1300.43   1
  -2   3 -13 13896.7 1417.43   1
   2   1  13 14471.9 1418.69   2
   1   2  13 15355.7 1437.95   2
   1  -3  13 13984.6 1396.89   1
  -3   1  13 14693.2 1363.15   1
   3  -2 -13 15436.0 1337.07   1
   1   2  13 16826.6 1555.11   1
  -2  -1 -12 2385.35 567.639   1
   3  -1 -12 3220.20 583.720   1
   2  -3  12 3045.05 571.897   2
  -1   3 -12 2492.78 572.517   1
   2   1  12 3084.53 738.563   1
   2  -3  12 2543.24 691.818   1
   1   2  12 2275.31 642.660   1
   3  -2 -12 3303.56 622.307   1
  -3   2  12 3635.15 725.047   1
   1  -3  12 2638.14 645.774   1
  -2   3 -12 3128.87 692.154   1
   2   1  12 3368.64 670.590   2
   1   2  12 2985.29 686.859   2
   1  -3  12 2608.77 515.141   2
  -1  -2 -12 3504.56 779.078   1
  -3   2  12 3646.31 614.422   2
  -3   1  12 3842.52 674.622   1
  -3   2  11 22386.0 1382.43   2
  -1  -2 -11 19215.3 1580.11   1
  -3   1  11 20338.4 1443.32   1
   2  -3  11 24248.4 1606.82   2
  -3   2  11 25379.1 1656.88   1
   1   2  11 23077.4 1720.74   1
  -2   3 -11 19772.5 1578.27   1
   3  -2 -11 22616.4 1504.09   1
  -1   3 -11 22136.8 1616.93   1
  -2  -1 -11 19897.3 1560.50   1
   1  -3  11 21886.9 1400.13   2
  -3   1  11 20686.4 1179.49   2
   1   2  11 20355.0 1531.18   2
   3  -1 -11 20350.0 1404.92   1
   2   1  11 20936.7 1603.26   2
   1  -3  11 20245.0 1621.35   1
   2  -3  11 19862.8 1625.66   1
   2   1  11 22339.6 1717.76   1
   2  -3  10 121083. 3755.18   2
  -2  -1 -10 122101. 4037.34   1
  -1  -2 -10 123567. 4103.84   1
   1  -3  10 124969. 3527.07   2
   1   2  10 125161. 4152.69   1
   2   1  10 135813. 4342.34   1
   2  -3  10 124897. 4215.06   1
   2   1  10 128016. 4059.39   2
  -1   3 -10 120013. 3956.87   1
   3  -1 -10 141118. 3711.41   1
   1   2  10 122761. 3968.42   2
  -3   2  10 124840. 3503.50   2
  -3   1  10 126988. 3699.01   1
   1  -3  10 125428. 4115.05   1
  -3   1  10 114395. 3043.88   2
   3  -2 -10 108184. 3484.36   1
  -2   3 -10 118023. 4018.85   1
  -3   2  10 130440. 3856.99   1
  -1  -2  -9 322169. 7302.90   1
   1   2   9 334763. 7202.01   2
   1   2   9 332444. 7501.02   1
   2   1   9 312847. 7139.55   2
  -2  -1  -9 324912. 7287.10   1
  -1   3  -9 334072. 7276.01   1
   2  -3   9 347466. 7602.03   1
   1  -3   9 328323. 6527.77   2
  -3   2   9 334413. 6847.06   1
   2  -3   9 314188. 6828.80   2
   2   1   9 326000. 7455.03   1
   3  -2  -9 314446. 6601.71   1
  -2   3  -9 333783. 7352.04   1
  -2   3  -8 23994.2 1556.48   1
   1  -3   8 23828.5 1288.88   2
  -3   1   8 23874.2 1277.89   1
  -3   2   8 23230.7 1337.11   1
   1  -3   8 20886.5 1456.59   1
   2  -3   8 22491.7 1523.29   1
   2   1   8 24875.6 1538.31   2
   2  -3   8 23660.6 1385.82   2
   1   2   8 24015.5 1508.58   2
   2   1   8 23930.7 1602.96   1
   1   2   8 26798.8 1676.67   1
   3  -2  -8 24476.6 1363.00   1
  -1  -2  -8 25570.9 1627.76   1
  -2  -1  -8 24038.0 1558.51   1
  -3   2   8 26889.2 1375.21   2
   3  -1  -8 22852.6 1188.16   1
  -3   1   8 21144.6 1011.32   2
  -1   3  -8 24513.9 1562.81   1
  -3   1   5 249196. 4467.39   1
  -2   3  -5 256669. 5623.56   1
   1   2   5 246415. 5483.00   2
   2  -3   5 251036. 5599.21   1
  -1   3  -5 272232. 5613.79   1
   2   1   5 246806. 5479.05   1
  -1  -2  -5 248238. 5458.11   1
   2   1   5 236010. 5352.87   2
   2  -3   5 263237. 5366.23   2
   1   2   5 246530. 5469.83   1
   1  -3   5 255276. 5523.45   1
  -1  -2  -3 40828.6 1631.14   1
  -2  -1  -3 35145.5 1477.34   1
   3  -2  -3 42515.5 1345.04   1
   1   2   3 38613.1 1635.61   1
  -3   2   3 39929.3 1329.74   1
  -3   1   3 42104.2 978.765   1
   2   1   3 40769.1 1620.29   2
   2  -3   3 38059.0 1644.27   1
   1  -3   3 40678.3 1666.36   1
   1   2   3 42814.8 1634.23   2
   2   1   3 39634.5 1582.60   1
  -1   3  -3 38667.2 1633.47   1
   3  -1  -3 40471.0 945.141   1
  -2   3  -3 37795.1 1658.04   1
   2  -3   3 44363.2 1695.35   2
   1  -3   1 167696. 3739.23   1
   3  -1  -1 172774. 3496.81   2
   1   2   1 163122. 3513.76   1
  -1   3  -1 168249. 3771.60   1
   1   2   1 162603. 3441.72   2
  -2   3  -1 165112. 3783.80   1
  -1  -2  -1 173948. 3588.11   1
   2  -3   1 155663. 3697.79   1
  -1   3   0 1071.50 328.061   1
  -1  -2   0 800.890 217.113   1
   2   1   0 1095.91 209.328   2
   2   1   0 1156.74 215.374   1
  -3   2   0 1193.26 260.980   1
   2  -3   0 1096.09 280.043   1
  -3   1   0 1116.93 203.174   1
   3  -2   0 949.541 229.457   1
   3  -1   0 1389.77 295.185   2
   3  -1   0 1649.57 221.794   1
   1   2   0 999.448 210.338   2
   1  -3   0 1450.79 312.074   1
  -2   3   0 931.106 221.010   1
  -2  -1   0 1085.09 200.815   1
   3  -2   0 819.260 228.772   2
   1   2   0 920.025 250.920   1
   1  -3  -1 155725. 3776.58   1
   2  -3  -1 169824. 3800.51   1
  -1   3   1 151289. 3719.30   1
   1   2  -1 165183. 3415.82   1
  -1  -2   1 167483. 3438.98   1
   3  -1   1 170031. 3700.54   2
   3  -2   1 158978. 3471.94   1
  -2   3   1 165940. 3769.48   1
   3  -2   1 184237. 3889.79   2
   1   2  -2 68149.7 1691.38   2
   3  -1   2 74485.5 2227.29   2
  -2   3   2 65849.0 2173.82   1
   1  -3  -2 72203.3 2279.48   1
  -3   1  -2 70854.8 2006.84   1
  -1   3   2 72080.5 2289.03   1
   2  -3  -2 72670.1 2225.12   1
   1   2  -2 73319.4 1938.01   1
   3  -2   2 75759.0 2293.81   2
   2   1  -2 76490.0 1562.57   1
   3  -1   2 74701.2 2068.23   1
   2   1  -2 74523.8 1630.55   2
  -1  -2   2 71231.1 1944.44   1
  -3   2  -2 70432.0 2126.93   1
   3  -2   2 64689.9 2067.33   1
  -2  -1   2 75013.4 1582.33   1
  -2   3   4 238076. 5108.12   1
  -1   3   4 237821. 5192.11   1
   3  -1   4 246791. 5236.15   2
  -3   1  -4 238880. 5116.39   1
   3  -1   4 251406. 5226.61   1
  -3   2  -4 243619. 5169.73   1
   2  -3  -4 222883. 4961.66   1
   3  -2   4 255583. 5339.92   1
  -1  -2   4 245197. 4753.86   1
   3  -2   4 255240. 5314.87   2
   1   2  -4 234311. 4697.85   1
   1  -3  -4 238396. 5214.56   1
   3  -1   7 137014. 4058.46   1
  -1   3   7 132550. 3861.28   1
   2   1  -7 132987. 3257.57   1
   1   2  -7 134427. 3528.77   1
  -3   1  -7 139497. 3997.88   1
   2  -3  -7 132028. 3746.72   1
  -2   3   7 134872. 3808.73   2
   1  -3  -7 144785. 3965.32   1
   3  -2   7 137972. 3882.88   2
  -1  -2   7 140915. 3621.78   1
  -2  -1   7 134095. 3329.50   1
   3  -1   7 140361. 3921.09   2
  -3   2  -7 147607. 4089.40   1
  -1   3   7 137958. 3783.83   2
  -2   3   7 137036. 3812.28   1
   3  -2   7 144697. 4155.55   1
  -3   1  -8 744694. 13415.7   1
  -2   3   9 34704.8 1800.62   2
  -2   3   9 34933.3 1909.90   1
   3  -1   9 35243.1 2030.61   1
  -3   2  -9 30937.2 1849.41   1
   1   2  -9 32643.7 1688.24   1
   3  -2   9 35260.7 2025.15   1
  -1  -2   9 36460.1 1854.61   1
   3  -2   9 31975.6 1823.04   2
   2  -3  -9 34166.5 1821.52   1
  -1   3   9 36696.2 1862.24   2
   1  -3  -9 31203.8 1812.44   1
  -2  -1   9 33259.0 1669.73   1
   3  -1   9 32928.6 1879.08   2
  -1   3   9 32357.3 1869.92   1
  -3   1  -9 31271.2 1891.49   1
   2   1  -9 28653.0 1507.12   1
   3  -2  10 324425. 7384.82   2
   3  -1  10 333068. 7830.43   1
  -2  -1  10 333215. 7064.16   1
  -1   3  10 311938. 7467.46   1
   1  -3 -10 313197. 7315.11   1
  -3   2 -10 312540. 7494.96   1
   2  -3 -10 307162. 7190.68   1
   3  -2  10 318907. 7726.25   1
  -2   3  10 340647. 7255.28   2
  -2   3  10 310265. 7331.88   1
   2   1 -10 347653. 6962.33   1
  -3   1 -10 312184. 7559.31   1
  -1   3  10 334187. 7364.99   2
   1   2 -10 333604. 7138.87   1
   3  -1  10 339470. 7547.70   2
  -1  -2  10 347837. 7347.29   1
  -1  -2  11 634.756 349.931   1
   3  -2  11 534.808 409.361   1
   1  -3 -11 787.595 449.173   1
  -3   2 -11 794.569 406.226   1
  -2  -1  11 1077.22 362.740   1
  -3   1 -11 190.074 255.065   1
   1   2 -11 720.540 395.710   1
  -1   3  11 230.397 306.760   1
  -2   3  11 386.493 255.396   1
   3  -1  11 23.0538 290.462   1
   3  -1  11 701.498 361.459   2
  -2   3  11 542.330 271.987   2
  -1   3  11-313.465 283.888   2
   2  -3 -11 782.225 393.196   1
   3  -2  11 1223.49 476.321   2
   2   1 -11 424.795 257.381   1
   3  -1  12 2517.22 636.048   2
  -2   3  12 3547.82 698.469   2
  -3   2 -12 2990.07 703.384   1
   1  -3 -12 2975.75 638.730   1
  -2   3  12 2845.97 659.205   1
  -3   1 -12 3526.42 744.247   1
   2   1 -12 3003.71 566.357   1
   3  -1  12 2834.93 709.498   1
   1   2 -12 2463.88 557.151   1
  -2  -1  12 3068.23 645.921   1
   2  -3 -12 2208.03 527.174   1
   3  -2  12 3468.30 759.606   1
  -1   3  12 3480.57 672.033   2
  -1   3  12 3048.83 697.047   1
   3  -2  12 3314.40 669.020   2
  -1  -2  12 3502.15 649.882   1
  -1   3  13 20586.0 1727.30   1
  -2   3  13 21631.0 1773.79   1
   1   2 -13 23236.7 1702.58   1
   1  -3 -13 20596.6 1704.02   1
  -3   2 -13 23541.0 1803.19   1
   2  -3 -13 22907.9 1727.84   1
  -1  -2  13 22216.6 1716.17   1
  -2  -1  13 22816.6 1735.57   1
  -3   1 -13 21321.2 1756.40   1
   3  -1  13 20183.5 1764.28   1
  -2   3  13 23161.1 1724.08   2
   3  -2  13 24328.8 1912.97   1
   3  -1  13 20516.0 1718.20   2
  -1   3  13 19809.1 1663.65   2
   2   1 -13 21778.0 1577.39   1
   3  -2  13 21179.5 1713.55   2
  -2  -1  14 64616.0 3074.77   1
  -3   2 -14 57315.2 3012.09   1
  -3   1 -14 61679.8 3133.16   1
   1   2 -14 62919.2 3013.88   1
   2  -3 -14 61404.5 2989.66   1
  -1  -2  14 63695.3 3101.46   1
  -1   3  14 58394.5 3090.62   1
   1  -3 -14 55991.8 2915.29   1
   3  -2  14 56952.0 3077.99   1
   3  -1  14 61607.2 3093.20   2
  -1   3  14 60478.9 2998.76   2
  -2   3  14 61870.7 3087.44   2
   3  -1  14 56526.9 3094.20   1
  -2   3  14 56157.9 2988.00   1
   3  -2  14 62850.2 3069.86   2
   2   1 -14 63728.1 2921.61   1
   3  -2  15 153249. 5221.93   2
   1  -3 -15 160313. 5197.21   1
   1   2 -15 155218. 5176.48   1
  -1   3  15 154052. 5368.55   1
   2  -3 -15 142711. 4989.30   1
   3  -1  15 157875. 5308.67   2
   3  -1  15 154245. 5453.88   1
   2   1 -15 154792. 5064.18   1
  -1  -2  15 160341. 5378.85   1
  -1   3  15 154410. 5130.60   2
  -3   2 -15 151496. 5220.84   1
  -2   3  15 153672. 5188.09   2
   3  -2  15 155097. 5446.11   1
  -3   1 -15 147686. 5205.85   1
  -2  -1  15 156489. 5323.27   1
  -2   3  15 149719. 5334.44   1
  -2  -1  16 449.101 278.124   1
   3  -1  16 330.121 358.693   1
   1   2 -16 8.20385 304.137   1
  -2   3  16 218.428 355.303   2
   3  -2  16 995.852 443.112   2
  -1   3  16 653.918 433.556   2
   3  -2  16-414.325 371.474   1
  -1  -2  16 251.084 273.519   1
  -3   1 -16 318.591 371.673   1
  -1   3  16 149.852 257.399   1
   1  -3 -16 843.021 350.496   1
  -3   2 -16 399.580 333.607   1
   3  -1  16 785.330 584.379   2
   2  -3 -16 799.236 377.926   1
  -2   3  16-50.8341 351.975   1
   3  -1  17 85633.3 4112.99   1
  -3   2 -17 93979.9 4102.67   1
   1   2 -17 84648.1 3961.91   1
   3  -2  17 85366.0 4174.32   1
  -1   3  17 93878.7 4179.04   1
   3  -1  17 91845.1 4220.91   2
   1  -3 -17 85335.0 3910.93   1
  -1  -2  17 93397.3 4243.05   1
   2  -3 -17 97979.7 4163.68   1
  -1   3  17 92402.9 4110.68   2
  -2   3  17 89258.9 4170.77   1
  -3   1 -17 93157.0 4095.28   1
   3  -2  17 96091.2 4231.70   2
   3  -2  18 120210. 5088.14   1
   3  -1  18 127822. 5237.51   1
  -3   2 -18 131944. 5087.47   1
  -2   3  18 126971. 5187.52   1
   2  -3 -18 142194. 5153.68   1
   1  -3 -18 130007. 5017.69   1
  -1   3  18 126736. 5130.78   1
  -3   1 -18 127637. 4994.57   1
   3  -1  18 128273. 5183.62   2
  -1  -2  18 130151. 5294.95   1
  -3   1 -19 10172.5 1325.75   1
   3  -2  19 11064.4 1452.66   1
   1  -3 -19 7733.75 1173.86   1
  -2   3  19 8457.34 1321.55   1
  -3   2 -19 7365.68 1165.35   1
  -1   3  19 7908.25 1239.72   1
   2  -3 -19 7857.39 1221.10   1
   3  -1  19 8120.06 1275.84   1
   1  -3 -20 46039.3 3024.51   1
   3  -1  20 56057.3 3404.30   1
  -1   3  20 45949.4 3111.49   1
  -3   2 -20 50691.5 3168.95   1
   3  -2  20 48649.9 3227.74   1
  -2   3  20 40891.5 2970.94   1
   2  -3 -20 43444.0 2939.31   1
  -3   1 -20 49898.2 3075.82   1
   3  -2  21 2483.11 643.172   1
  -3   1 -21 3327.88 769.283   1
  -2   3  21 3026.39 883.666   1
   3  -1  21 2400.23 809.045   1
  -1   3  21 2714.24 736.785   1
  -3   2 -21 2794.21 754.063   1
   1  -3 -21 3278.34 823.003   1
   3   0   1 1184.87 296.138   2
   3  -3   1 1103.50 354.624   2
   3   0   1 1774.12 282.811   1
   0   3  -1 1531.43 378.784   1
  -3   3  -1 1424.90 323.297   1
   0  -3   1 1648.94 362.406   1
  -3   0  -1 1480.58 244.859   1
   3  -3   1 1519.88 364.674   1
   0   3   1 1346.41 339.151   1
   0   3   1 1659.39 298.669   2
   3  -3  -1 1318.83 307.271   1
   0  -3  -1 1140.92 307.902   1
   3   0  -1 1445.26 141.519   1
   3   0  -1 1331.99 245.515   2
  -3   0   1 1683.97 155.197   1
  -3   3   1 1469.22 344.584   1
   3   0   2 25364.2 1132.55   1
   0  -3   2 23844.8 1222.59   1
   0   3   2 24821.4 1295.08   1
   3  -3  -2 26041.6 1232.69   1
   3   0   2 25577.0 1226.52   2
  -3   3   2 24256.1 1210.99   1
  -3   3  -2 21348.6 1240.98   1
   3   0  -2 26469.6 1003.89   2
   0   3   2 28012.6 1285.56   2
   3  -3   2 25249.1 1375.42   2
  -3   0  -2 24341.2 1112.60   1
   3  -3   2 27326.7 1346.83   1
   0  -3  -2 26273.6 1333.20   1
   0   3  -2 26072.8 1242.25   1
   0   3   3 35840.6 1546.85   2
   3   0   3 33875.8 1461.28   1
  -3   3   3 33432.0 1423.31   1
   3  -3   3 35583.1 1611.62   1
   0   3   3 34019.4 1607.78   1
   0  -3  -3 36452.6 1634.50   1
  -3   3  -3 33309.0 1588.65   1
   3   0   3 33974.2 1551.46   2
   3  -3   3 31140.2 1553.60   2
  -3   0  -3 36502.8 1481.21   1
   3   0  -3 34037.0 1148.71   2
   0   3  -3 34985.9 1517.74   1
   3  -3  -3 32628.9 1396.71   1
   0  -3   3 32254.9 1459.19   1
   0   3  -5 13839.1 986.339   1
  -3   3  -5 15232.8 1156.63   1
  -3   0  -5 13174.9 1002.11   1
   3   0   5 16150.1 1149.47   2
   3  -3   5 15340.2 1099.58   2
   3  -3   5 14244.0 1115.98   1
   0   3   5 17272.5 1114.82   2
   0   3   5 14137.1 1082.49   1
   3   0   5 15260.6 1114.23   1
   0  -3   5 13189.3 982.902   1
   3  -3  -5 16230.4 1013.40   1
  -3   0   5 15148.7 607.658   1
  -3   3   5 14687.8 989.460   1
   0  -3  -5 14170.1 1064.71   1
   3   0  -5 15366.1 589.458   1
   3  -3   6 31952.7 1685.33   2
   0  -3   6 41898.9 1845.16   1
  -3   0  -6 35851.8 1817.08   1
   0   3  -6 33663.9 1661.40   1
   3   0  -6 39396.9 1193.25   1
   0   3   6 33263.4 1696.41   2
   3  -3  -6 40179.6 1696.37   1
  -3   0   6 34303.8 1195.64   1
  -3   3  -6 35831.7 1880.44   1
   3   0   6 32466.7 1737.36   2
   3  -3   6 34112.4 1859.52   1
   0  -3  -6 41561.8 1950.56   1
  -3   3   6 35613.0 1661.23   1
   0   3   6 35528.3 1821.54   1
   3   0   6 35857.4 1848.90   1
  -3   0   7 7315.70 591.151   1
   0   3  -7 7572.19 773.332   1
  -3   3  -7 6721.54 841.740   1
   0  -3   7 6833.29 778.200   1
   3  -3   7 7545.82 897.896   1
   0  -3  -7 7146.56 845.971   1
   0   3   7 6342.86 761.878   1
  -3   0  -7 7234.26 851.569   1
   3   0   7 6964.09 816.258   2
   3   0   7 7484.79 901.715   1
  -3   3   7 7633.90 807.914   1
   3  -3  -7 8028.06 768.538   1
   3  -3   7 7630.41 780.991   2
   3   0  -7 6852.74 535.258   1
   0   3   7 7404.31 825.034   2
   3  -3   8 678335. 12287.5   2
   0  -3  -9 12526.1 1216.94   1
  -3   3   9 14567.9 1164.87   2
   3  -3   9 13974.5 1231.54   2
   3   0   9 13223.7 1205.04   2
   3  -3  -9 14828.3 1157.17   1
  -3   0  -9 14413.9 1310.14   1
   0   3   9 15408.2 1325.89   1
   3   0   9 14903.9 1378.89   1
  -3   3   9 14976.7 1217.96   1
   0  -3   9 13538.9 1165.59   1
   0   3   9 12661.7 1173.05   2
  -3   0   9 13000.5 997.360   1
   0   3  -9 13093.2 1142.10   1
  -3   3  -9 13709.5 1254.17   1
   3  -3   9 12910.5 1267.42   1
   3   0  -9 15285.7 995.163   1
   3   0  10 403.189 435.272   1
   0  -3  10-115.835 260.312   1
   3  -3  10-169.026 334.630   1
   0   3  10 91.2323 265.240   1
   0  -3 -10 221.272 337.205   1
   3  -3 -10 159.444 221.145   1
   3   0  10 91.5819 290.341   2
   3   0 -10-18.2523 178.693   1
  -3   3  10 0.45330 282.531   2
  -3   0 -10 152.904 278.880   1
   0  -3  10-77.8964 150.427   2
   3  -3  10 392.508 369.322   2
  -3   3  10 122.524 307.987   1
   0   3 -10 88.7731 205.022   1
  -3   0  10 322.013 257.932   1
  -3   3 -10-14.1243 304.825   1
   0   3  10 298.314 351.185   2
   3  -3  11-63.6879 241.832   2
   0   3 -11 335.879 307.978   1
  -3   3  11 174.528 305.242   2
   3  -3 -11 239.925 289.066   1
   3  -3  11 73.9277 368.423   1
  -3   3 -11-268.972 307.711   1
   0   3  11 723.242 434.501   2
   3   0  11 11.3967 290.973   1
  -3   0 -11 223.779 348.420   1
   0   3  11 135.931 284.037   1
   0  -3 -11 219.133 284.144   1
   3   0  11 11.5855 298.518   2
   0  -3  11 175.617 230.952   1
  -3   0  11 118.639 186.753   1
  -3   3  11-41.0303 227.429   1
   3   0 -11 174.398 202.738   1
   0  -3 -12 292371. 7234.96   1
  -3   0  12 277827. 6826.44   1
  -3   3 -12 294883. 7406.29   1
  -3   0 -12 280064. 7270.29   1
   3   0  12 262020. 7305.68   1
   0   3  12 289812. 7134.08   2
   3   0  12 286877. 7224.57   2
   3  -3 -12 279722. 6851.38   1
   0   3 -12 277730. 6984.46   1
   0  -3  12 277159. 7117.46   1
  -3   3  12 307255. 7295.08   1
   0   3  12 285052. 7409.53   1
  -3   3  12 304023. 6944.39   2
   3   0 -12 300371. 6713.21   1
   3  -3  12 285575. 7126.10   2
   3  -3  12 270678. 7385.12   1
   0   3 -13 539.489 377.022   1
  -3   3  13 552.193 428.662   2
  -3   3 -13 204.209 294.461   1
  -3   0 -13 360.161 314.517   1
   3   0  13-115.021 353.660   2
   3  -3  13 417.363 463.889   2
   3  -3 -13 626.740 381.179   1
   3   0 -13 1015.08 334.507   1
  -3   3  13 900.838 424.844   1
   3   0  13 398.073 321.156   1
   3  -3  13 756.403 457.440   1
   0  -3 -13 977.986 451.236   1
  -3   0  13 728.409 375.385   1
   0   3  13 826.862 431.350   1
   0   3  13 1061.97 382.318   2
   0  -3  13 682.587 324.665   1
   3  -3  14-174.285 246.703   2
   0   3  14 136.686 283.842   1
   0   3  14 109.910 350.342   2
  -3   0 -14 808.536 415.846   1
  -3   0  14 164.608 223.186   1
   0  -3 -14-92.1079 261.482   1
   3   0  14 194.142 374.508   2
   3  -3 -14 313.427 312.611   1
  -3   3  14-418.216 446.894   1
   0  -3  14 403.813 302.367   1
  -3   3 -14-404.414 356.213   1
   3   0  14 156.970 418.160   1
   3  -3  14 521.535 306.646   1
  -3   3  14 142.059 322.073   2
   0   3 -14 700.258 372.550   1
   0   3 -15 1061.64 487.558   1
   0  -3  15 859.230 519.234   1
   3   0  15 979.193 545.137   2
   0   3  15 1594.77 579.429   1
   3  -3  15 914.659 496.309   2
  -3   3 -15 971.023 467.689   1
   0  -3 -15 1009.73 457.742   1
   3  -3  15 749.938 402.766   1
  -3   3  15 1784.21 694.619   1
  -3   0 -15 313.283 334.661   1
   3  -3 -15 932.980 320.002   1
   3   0  15 1232.23 579.428   1
   0   3  15 797.772 384.314   2
  -3   3 -16 223774. 6766.15   1
   0  -3 -16 223232. 6593.03   1
   3  -3  16 202676. 6745.13   1
   3  -3 -16 234159. 6710.59   1
   0   3  16 219615. 6843.65   1
  -3   0 -16 229656. 6781.67   1
   0   3  16 225146. 6707.00   2
   0   3 -16 225990. 6782.94   1
   3   0  16 226739. 6900.13   1
   0  -3  16 239058. 7012.86   1
   3   0  16 230101. 6848.78   2
  -3   3  16 216136. 6830.62   1
  -3   3 -17 557.450 406.849   1
   0   3 -17 1314.36 607.198   1
   3  -3  17 430.337 490.483   1
   3   0  17 1628.01 667.875   2
  -3   0 -17 605.609 410.514   1
   0  -3  17 788.202 326.566   1
   3   0  17 1603.76 733.432   1
   0   3  17 2415.45 741.806   1
   0  -3 -17 1063.87 492.625   1
   3  -3 -17 251.673 256.200   1
   0   3  17 1311.61 565.757   2
  -3   3  17 1163.58 496.843   1
  -3   0 -18 594.705 540.203   1
   0   3  18 1397.63 647.604   2
   0   3  18 1881.64 637.860   1
  -3   3 -18 1775.24 667.097   1
   0  -3 -18 1400.68 526.880   1
   3   0  18 1318.43 616.817   2
   0  -3  18 2288.25 772.770   1
   3  -3 -18 1955.96 624.806   1
   0   3 -18 1090.06 532.256   1
   3  -3  18 1896.68 800.639   1
   3   0  18 2361.65 674.289   1
  -3   3  18 2371.34 612.503   1
   0   3  19-313.294 452.379   1
  -3   3 -19-156.470 452.851   1
   3  -3  19-212.564 466.897   1
   3   0  19 31.7138 422.724   1
  -3   3  19-163.121 437.217   1
   0   3 -19 410.860 395.811   1
   0  -3 -19 283.197 433.008   1
   3   0  19-87.5321 323.675   2
  -3   0 -19 602.126 501.967   1
   0  -3  19-21.6467 357.199   1
  -3   0 -20 121749. 5050.88   1
  -3   3 -20 126766. 5198.59   1
   3  -3  20 111049. 5089.13   1
   3   0  20 127746. 5340.00   1
   0  -3 -20 122766. 5064.74   1
   0   3  20 124305. 5239.92   1
   0   3  21 1182.31 672.918   1
   0  -3 -21 1232.68 586.920   1
   3  -3  21 656.865 602.821   1
  -3   3 -21 163.869 363.551   1
   2  -4  21-36.4852 379.667   1
  -2   4 -21-904.856 569.684   1
   2   2  20 89130.0 4371.52   1
   2   2  20 75476.6 4107.27   2
  -2  -2 -20 92024.1 4280.40   1
   2  -4  20 86501.1 4317.26   1
  -2   4 -20 82555.1 4146.41   1
   2   2  19 324.438 502.175   1
  -2   4 -19-34.2782 483.933   1
   2  -4  19 922.292 602.477   1
   2   2  19-191.543 357.522   2
  -2  -2 -19 752.723 494.742   1
  -2   4 -18 9621.62 1335.48   1
  -2  -2 -18 9997.68 1359.73   1
   2   2  18 9036.23 1349.51   2
   2   2  18 10381.9 1485.09   1
   2  -4  18 9953.84 1367.41   1
   2   2  17 194.667 396.291   1
  -2   4 -17-184.518 295.241   1
  -2  -2 -17-312.414 366.598   1
   2   2  17-359.123 482.109   2
   2  -4  17 814.057 629.477   1
   2  -4  16 450437. 10874.9   1
  -2  -2 -16 447441. 10549.6   1
   2   2  16 485234. 11150.8   1
  -2   4 -16 456643. 10829.3   1
   2   2  16 457573. 10639.0   2
   2   2  15 444.676 381.681   1
   2   2  15 197.689 399.927   2
  -2  -2 -15 99.4514 256.816   1
   2  -4  15-100.021 467.152   1
  -2   4 -15 823.341 440.911   1
   2   2  14 23866.0 1902.95   2
   2  -4  14 24570.2 1992.54   1
  -2   4 -14 23966.8 1924.20   1
   2   2  14 24311.6 2028.36   1
  -2  -2 -14 24339.4 1955.85   1
  -4   2  13 321.414 331.008   1
   2  -4  13-135.839 384.989   1
  -2   4 -13-98.2198 352.416   1
   2   2  13 467.861 390.939   1
   4  -2 -13-27.7253 178.021   1
  -2  -2 -13-383.648 329.029   1
   2   2  13-477.469 417.946   2
   2   2  12 28214.8 2035.04   1
  -2   4 -12 20657.2 1713.94   1
   2   2  12 24641.8 1824.88   2
  -2  -2 -12 26930.7 1868.85   1
   2  -4  12 26785.5 1755.75   2
   2  -4  12 22767.7 1828.79   1
  -4   2  12 27599.5 1764.57   1
   4  -2 -12 25628.3 1627.87   1
  -2   4 -11 288.005 343.821   1
   2  -4  11-278.277 227.817   2
  -2  -2 -11 192.520 316.151   1
  -4   2  11 127.787 270.780   1
   2   2  11-196.742 360.836   1
   4  -2 -11 216.284 219.465   1
   2  -4  11-200.606 315.777   1
   2   2  11-319.653 338.968   2
  -4   2  11 209.761 288.127   2
  -2  -2 -10 69520.9 3013.28   1
   2  -4  10 72369.1 2791.38   2
   2  -4  10 70598.9 3082.98   1
   2   2  10 68556.5 2912.38   2
   2   2  10 66486.9 3023.06   1
  -4   2  10 60438.7 2312.25   2
  -2   4 -10 61008.8 2841.02   1
  -4   2  10 74395.8 2723.84   1
   4  -2 -10 84554.0 2738.21   1
   4  -2  -9 535.052 258.449   1
   2   2   9 891.402 469.076   1
  -2  -2  -9 561.489 451.151   1
  -2   4  -9 111.042 264.355   1
   2  -4   9 193.032 197.585   2
   2  -4   9 292.682 377.669   1
  -4   2   9 146.690 196.647   2
  -4   2   9 374.101 278.780   1
   2   2   9-103.540 309.322   2
   2  -4   7 691.525 312.742   1
  -2   4  -7 436.537 287.264   1
   4  -2  -7 609.411 297.121   1
   2   2   7 825.541 452.009   1
  -2  -2  -7 435.309 350.130   1
  -4   2   7 243.693 188.777   1
   2   2   7 160.619 221.846   2
   2  -4   7 1049.77 344.945   2
  -2   4  -6-36.9375 254.915   1
   2   2   6 453.529 341.588   1
  -2  -2  -6 513.977 280.121   1
   2   2   6 42.0953 243.570   2
   4  -2  -6 476.654 176.671   1
   2  -4   6 1025.63 400.029   1
  -4   2   6 179.708 147.000   1
   2   2   5 319.320 218.978   2
  -2   4  -5 194.761 277.808   1
   4  -2  -5 851.812 228.746   1
  -2  -2  -5 685.708 354.023   1
  -4   2   5 407.657 185.059   1
   2  -4   5 447.289 323.911   1
   2   2   5 706.411 295.164   1
  -2   4  -3-133.423 215.172   1
   2  -4   3 505.947 375.156   1
   4  -2  -3 583.911 212.350   1
  -2  -2  -3 141.577 177.737   1
   2   2   3 284.255 298.530   2
  -4   2   3 425.020 179.298   1
   2   2   3 244.738 226.843   1
   2  -4   1-150.448 202.816   1
  -2  -2  -1 50.3091 203.148   1
  -4   2   1 114.948 153.685   1
   2   2   1 50.8390 159.534   1
   2   2   1-128.530 159.122   2
   4  -2  -1 245.454 197.819   1
  -2   4  -1-158.099 296.865   1
   4  -2  -1-89.7896 267.996   2
  -4   2  -1 654.843 241.806   1
   4  -2   1 1073.51 363.127   2
   2  -4  -1 979.740 350.675   1
  -2   4   1 1314.75 395.763   1
   2   2  -1 1183.80 266.106   1
   2   2  -1 752.968 228.979   2
   4  -2   1 958.473 281.416   1
  -2  -2   1 1257.03 266.516   1
  -4   2  -3 428.836 252.645   1
  -2   4   3 797.313 340.188   1
   4  -2   3 147.373 240.206   2
   2   2  -3 530.314 161.984   2
  -2  -2   3 333.022 177.869   1
   2  -4  -3 316.030 234.987   1
   4  -2   3 357.472 260.185   1
   2   2  -3 542.708 181.736   1
  -4   2  -4 466456. 8718.75   1
   4  -2   4 464010. 8955.12   2
   4  -2   5 93.5226 196.137   2
   4  -2   5 563.324 312.461   1
   2  -4  -5 209.241 243.222   1
  -2   4   5 944.803 324.422   1
  -2  -2   5 208.724 128.513   1
  -4   2  -5 164.524 215.811   1
   2   2  -5 529.747 210.488   1
  -2   4   6-1.74117 237.094   1
  -4   2  -6 427.014 212.469   1
   4  -2   6 78.3721 279.242   2
   4  -2   6 75.1675 207.058   1
   2   2  -6 469.325 167.644   1
   4  -2   7 600.145 391.401   2
   4  -2   7 887.976 397.456   1
   2  -4  -7 751.162 380.216   1
  -4   2  -7 969.334 435.615   1
   2   2  -7 601.819 267.600   1
  -2  -2   7 1028.90 302.927   1
  -2   4   7 963.091 322.061   1
  -2   4   7 669.146 398.609   2
   2  -4  -9-393.431 358.972   1
  -2   4   9 144.107 281.581   1
   4  -2   9 780.435 473.717   1
   2   2  -9-92.0511 257.029   1
  -2   4   9 212.673 282.787   2
   4  -2   9-290.472 372.115   2
  -4   2  -9 376.842 397.907   1
  -2  -2   9 394.454 255.257   1
  -2   4  10 243438. 6272.67   2
  -4   2 -10 256638. 6642.82   1
  -2  -2  10 264392. 6082.51   1
  -2   4  10 242503. 6427.93   1
   4  -2  10 246393. 6671.80   1
   4  -2  10 250185. 6484.44   2
   2   2 -10 286080. 6194.36   1
   2  -4 -10 280701. 6579.19   1
   4  -2  11 425.004 400.448   1
   2   2 -11-322.336 274.023   1
  -4   2 -11 365.255 355.766   1
  -2   4  11-71.5569 424.655   1
  -2   4  11-123.172 246.861   2
  -2  -2  11 955.694 332.472   1
   2  -4 -11 14.5050 217.657   1
   4  -2  11-136.312 296.746   2
  -2   4  12 82284.5 3366.11   2
   4  -2  12 85063.6 3693.81   1
   4  -2  12 76000.3 3414.30   2
   2  -4 -12 80581.5 3408.89   1
  -4   2 -12 80870.8 3482.14   1
  -2  -2  12 83412.1 3273.06   1
  -2   4  12 76460.1 3437.08   1
   2   2 -12 86281.7 3269.52   1
  -2   4  13 984.717 519.690   1
  -2  -2  13 848.846 348.142   1
   2   2 -13 527.684 329.311   1
  -2   4  13 487.834 365.541   2
   2  -4 -13 492.113 365.921   1
   4  -2  13 428.921 326.451   1
  -4   2 -13-117.843 318.890   1
   4  -2  13-342.725 383.541   2
   4  -2  14 110371. 4534.34   1
  -4   2 -14 122599. 4586.65   1
   2  -4 -14 117927. 4348.13   1
   2   2 -14 118731. 4260.75   1
  -2   4  14 112395. 4419.71   1
   4  -2  14 113207. 4409.79   2
  -2   4  14 115904. 4379.00   2
  -2  -2  14 123294. 4430.28   1
   4  -2  15 385.642 437.740   1
   4  -2  15 173.164 404.435   2
  -2   4  15-350.325 340.827   1
  -4   2 -15 158.306 315.266   1
   2  -4 -15-339.181 358.173   1
  -2   4  15-141.865 414.377   2
  -2   4  16 267480. 7418.99   2
   2  -4 -16 241111. 7086.35   1
   4  -2  16 244805. 7454.81   1
  -4   2 -16 261180. 7389.90   1
   4  -2  16 255896. 7479.35   2
  -2   4  16 252790. 7422.39   1
   4  -2  17-448.247 448.554   2
   2  -4 -17-27.1230 386.756   1
  -4   2 -17-235.424 315.953   1
   4  -2  17-361.406 475.101   1
  -2   4  17 6.56810 376.651   2
  -2   4  17 452.634 464.865   1
   4  -2  18 16455.6 1830.40   2
   2  -4 -18 14623.0 1606.03   1
   4  -2  18 15418.0 1820.24   1
  -2   4  18 14359.3 1708.03   1
  -4   2 -18 16640.4 1692.15   1
  -4   2 -19-208.692 348.867   1
   4  -2  19-141.105 389.463   1
   2  -4 -19-460.584 525.904   1
  -2   4  19 92.9384 294.920   1
   4  -2  20 124258. 5330.40   1
  -2   4  20 116848. 5160.65   1
  -4   2 -20 137834. 5293.74   1
   2  -4 -20 104956. 4748.58   1
  -2   4  21 842.902 506.929   1
   2  -4 -21 14.4038 356.892   1
   3   1  20 131.376 300.475   2
  -3   4 -20 1123.15 474.471   1
   3  -4  20 642.338 546.125   1
   1  -4  20 2.08137 325.307   1
  -3  -1 -20 1129.92 506.738   1
  -1  -3 -20 920.104 450.180   1
   3   1  20 473.590 558.280   1
   1   3  20 247.680 385.032   2
  -1   4 -20 440.897 498.809   1
   1   3  20-174.321 317.268   1
   1  -4  19 6387.04 1084.69   1
  -1  -3 -19 7690.88 1194.28   1
  -1   4 -19 5944.43 1093.21   1
   3   1  19 8572.37 1341.59   1
   3  -4  19 8623.86 1302.99   1
   3   1  19 9623.62 1384.51   2
   1   3  19 8825.13 1307.18   1
  -3  -1 -19 9997.68 1362.57   1
  -3   4 -19 9102.72 1332.22   1
   1   3  19 6644.52 1173.27   2
   1  -4  18 87911.8 4260.67   1
   1   3  18 92575.5 4284.28   1
  -3   4 -18 87751.2 4182.10   1
   1   3  18 88766.7 4190.88   2
   3   1  18 82877.0 4072.86   2
  -1   4 -18 80474.1 4016.49   1
   3  -4  18 98273.4 4493.46   1
  -1  -3 -18 92215.8 4197.10   1
   3   1  18 88384.0 4259.54   1
  -3  -1 -18 93859.6 4215.57   1
   3   1  17 68324.6 3575.02   2
   1   3  17 66929.3 3527.40   2
  -1  -3 -17 66675.6 3419.50   1
   1  -4  17 65887.3 3579.09   1
  -3  -1 -17 66215.6 3460.43   1
   3  -4  17 68722.5 3636.88   1
   1   3  17 65287.9 3536.30   1
  -1   4 -17 58466.4 3365.18   1
  -3   4 -17 66553.6 3479.03   1
   3   1  17 69425.1 3591.74   1
   1  -4  16 76347.8 3761.23   1
  -1  -3 -16 74869.4 3558.31   1
   3  -4  16 77139.4 3842.85   1
  -3  -1 -16 79622.7 3703.41   1
   1   3  16 76450.1 3681.46   2
   1   3  16 78975.6 3818.84   1
   3   1  16 72885.9 3656.19   2
   3   1  16 76194.2 3690.38   1
  -1   4 -16 77277.1 3709.28   1
  -3   4 -16 75792.5 3714.56   1
  -3  -1 -15 32679.3 2334.62   1
  -4   3  15 37630.2 2438.03   1
   1   3  15 33967.8 2291.43   2
   1  -4  15 35424.9 2448.29   1
  -3   4 -15 33304.4 2397.82   1
  -1  -3 -15 31375.2 2255.17   1
   3   1  15 34547.1 2396.27   2
   1   3  15 34957.2 2430.63   1
  -1   4 -15 37172.1 2393.97   1
   3   1  15 35200.7 2492.85   1
   3   1  14 241410. 7036.00   1
  -4   3  14 256375. 6932.14   1
   1   3  14 230319. 6870.95   1
   1  -4  14 235571. 6821.27   1
   3   1  14 234363. 6757.93   2
  -1   4 -14 238801. 6762.12   1
  -3  -1 -14 240193. 6883.60   1
  -3   4 -14 230124. 6770.03   1
   3  -4  14 232884. 6609.70   2
   1   3  14 243056. 6776.35   2
   4  -3 -14 242667. 6454.93   1
  -1  -3 -14 249417. 6874.62   1
   1  -4  13 3615.41 777.017   1
  -1   4 -13 3995.19 756.894   1
   3   1  13 3191.76 741.516   1
  -4   3  13 4336.34 763.751   1
   1   3  13 3443.75 715.378   1
  -3   4 -13 3350.91 776.853   1
   4  -3 -13 4056.39 703.977   1
   3  -4  13 2880.81 677.118   2
  -3  -1 -13 3672.20 845.391   1
   1   3  13 3437.24 667.537   2
  -1  -3 -13 4727.00 831.383   1
   3   1  13 3250.70 705.414   2
   3  -4  12 2384.17 527.990   2
   3   1  12 1699.28 524.539   1
  -4   3  12 1933.92 473.431   1
   1   3  12 2751.28 662.513   2
   1  -4  12 2375.15 638.768   1
  -3  -1 -12 2721.27 680.268   1
  -1   4 -12 1701.28 553.446   1
   3   1  12 3162.96 713.876   2
   4  -3 -12 2108.97 514.338   1
  -1  -3 -12 1836.60 616.281   1
  -4   3  12 1453.67 456.783   2
   3  -4  12 2741.85 725.964   1
  -3   4 -12 1977.94 589.788   1
   1   3  12 2449.62 623.646   1
   3  -4  11 91585.0 3772.49   1
  -1   4 -11 94026.7 3655.36   1
  -3  -1 -11 95819.7 3745.02   1
   1  -4  11 98826.0 3792.73   1
   4  -3 -11 103713. 3467.25   1
  -3   4 -11 91172.6 3729.79   1
  -4   3  11 95066.6 3319.32   2
  -1  -3 -11 100506. 3795.74   1
   1   3  11 97450.0 3868.06   1
  -4   1  11 105179. 3353.48   1
  -4   3  11 100181. 3522.68   1
   3   1  11 89874.2 3766.96   1
   3   1  11 94812.9 3698.17   2
   3  -4  11 93752.0 3597.60   2
   1   3  11 98921.8 3682.20   2
   3   1  10 95121.6 3730.98   1
   4  -3 -10 106252. 3381.65   1
  -4   3  10 90717.2 3206.87   2
  -4   3  10 98767.9 3375.08   1
   1  -4  10 95835.4 3625.09   1
  -1   4 -10 97528.2 3586.81   1
   1   3  10 95708.3 3583.15   2
  -3   4 -10 98441.4 3754.86   1
  -4   1  10 100339. 3069.56   1
   3   1  10 93178.1 3562.37   2
   3  -4  10 95947.2 3755.90   1
   3  -4  10 95484.3 3532.86   2
  -3  -1 -10 93264.5 3590.23   1
   1   3  10 96799.1 3732.32   1
   4  -1 -10 94037.7 2919.33   1
  -1  -3 -10 92716.7 3590.99   1
   4  -3  -9 303783. 6398.54   1
  -3  -1  -9 288581. 6958.73   1
  -4   1   9 306109. 6009.41   1
   3   1   9 287099. 6902.30   2
  -1  -3  -9 287844. 6960.67   1
   3  -4   9 290033. 6788.55   2
   3  -4   9 278137. 7008.03   1
   3   1   9 281708. 7009.15   1
   1   3   9 297123. 7108.45   1
  -4   3   9 278103. 6380.09   1
   1  -4   9 267536. 6766.80   1
   1   3   9 297795. 6924.03   2
  -1   4  -9 296263. 6889.46   1
   4  -1  -9 290685. 5764.94   1
  -3   4  -9 289430. 7014.30   1
   1   3   8 18091.9 1411.26   2
  -1  -3  -8 17170.1 1352.02   1
  -4   1   8 20548.1 1062.35   1
   3   1   8 18425.4 1425.68   2
   3  -4   8 17209.1 1425.62   1
   1  -4   8 18265.3 1410.57   1
  -4   3   8 18584.0 1238.08   1
  -1   4  -8 18618.0 1377.83   1
   4  -3  -8 18486.0 1190.04   1
   1   3   8 17693.5 1448.00   1
   3  -4   8 17485.0 1348.40   2
  -3  -1  -8 17169.9 1369.93   1
  -3   4  -8 17153.7 1402.94   1
   4  -1  -8 21216.5 1022.21   1
   3   1   8 16410.8 1369.31   1
   4  -1  -7 166597. 3397.32   1
   1   3   7 173787. 4756.28   1
   1  -4   7 176059. 4707.16   1
  -3  -1  -7 166895. 4648.08   1
   3  -4   7 164113. 4517.93   2
  -1   4  -7 165134. 4558.55   1
  -3   4  -7 172222. 4801.08   1
   4  -3  -7 153020. 3952.40   1
   3   1   7 162933. 4580.57   2
   3  -4   7 184822. 4951.65   1
  -4   1   7 168951. 3513.39   1
  -4   3   7 167624. 4129.79   1
  -1  -3  -7 177667. 4764.24   1
   1   3   7 169160. 4629.31   2
   3   1   7 178215. 4803.04   1
   3  -4   6 558769. 10432.8   2
  -4   3   5 32222.1 1455.57   1
  -4   1   5 29107.2 849.640   1
   3  -4   5 29714.2 1644.16   2
   4  -1  -5 30807.1 830.561   1
   1   3   5 31484.6 1703.65   1
   1  -4   5 37740.2 1859.25   1
  -3   4  -5 31891.4 1752.77   1
   3   1   5 33121.8 1717.71   2
  -3  -1  -5 33439.6 1702.31   1
   3  -4   5 39109.9 1906.05   1
   4  -3  -5 36498.7 1490.31   1
  -1   4  -5 35067.1 1777.28   1
  -1  -3  -5 35451.4 1791.75   1
   1   3   5 32518.2 1685.09   2
   3   1   5 30928.5 1623.25   1
   3  -4   4 275347. 5949.97   2
   1   3   4 264129. 5637.65   2
   1   3   4 255526. 5701.55   1
   3   1   4 232424. 5425.47   1
  -3   4  -4 255707. 5887.22   1
  -1  -3  -4 259751. 5726.14   1
   3   1   4 258888. 5683.93   2
   1  -4   4 250795. 5736.88   1
  -1   4  -4 250070. 5692.47   1
  -3  -1  -4 266579. 5613.80   1
   3  -4   4 257735. 5864.75   1
   3  -4   3 26947.0 1523.96   1
   1   3   3 25719.2 1387.21   2
   3   1   3 24634.4 1291.09   1
   1   3   3 22919.3 1331.56   1
   4  -3  -3 24410.2 1165.35   1
   3   1   3 26794.6 1418.02   2
  -1  -3  -3 25282.1 1400.36   1
  -4   3   3 26241.7 1236.12   1
   4  -1  -3 31376.1 1335.74   2
  -1   4  -3 31120.7 1565.19   1
  -3   4  -3 25267.0 1499.61   1
   1  -4   3 26636.4 1470.99   1
  -3  -1  -3 24959.4 1307.53   1
   4  -1  -1 306060. 5971.87   2
  -3   4  -1 307989. 6404.27   1
   3   1   1 312140. 5616.98   1
   1  -4   1 318681. 6405.88   1
  -1  -3  -1 305238. 6117.37   1
   3   1   0 38862.5 1278.17   1
  -1  -3   0 31823.3 1518.74   1
  -4   1   0 37760.9 1221.23   1
   1  -4   0 35559.9 1692.55   1
   1   3   0 36996.0 1575.59   1
  -3  -1   0 38033.5 1267.98   1
  -1   4   0 39217.5 1761.28   1
   1   3   0 39393.5 1532.08   2
  -4   3   0 37240.5 1564.50   1
   4  -3   0 34949.3 1474.66   1
   3   1   0 35058.3 1424.84   2
  -3   4   0 36933.4 1703.85   1
   4  -3   0 40218.6 1851.83   2
   3  -4   0 33748.8 1630.64   1
   4  -1   0 40388.1 1641.61   2
   4  -1   3 107529. 3249.38   2
   1   3  -3 123268. 2710.14   2
   3  -4  -3 106766. 3183.48   1
   4  -3   3 116998. 3446.35   2
  -1   4   3 110839. 3375.46   1
   4  -3   3 101236. 3124.76   1
   4  -1   3 109863. 3034.26   1
  -3  -1   3 116560. 2115.79   1
  -4   1  -3 102918. 2962.91   1
  -3   4   3 98496.4 3136.98   1
   3   1  -3 116725. 2447.65   2
   1   3  -3 118200. 3018.87   1
  -1  -3   3 102792. 2929.46   1
  -4   3  -3 107733. 3237.78   1
   1  -4  -3 104966. 3289.08   1
   4  -3   4 7484.63 842.115   2
   4  -1   4 7285.31 802.991   2
   3   1  -4 7175.20 379.867   1
   3   1  -4 7573.84 420.556   2
   1   3  -4 6574.34 519.017   2
  -1   4   4 7233.66 809.515   2
  -4   1  -4 7575.21 738.480   1
   1  -4  -4 6766.64 776.783   1
  -1  -3   4 7195.57 686.310   1
   4  -3   4 7706.02 788.911   1
  -3   4   4 8197.97 846.446   1
   4  -1   4 7194.01 734.526   1
  -1   4   4 5968.13 770.539   1
   1   3  -4 7090.78 695.686   1
  -4   3  -4 7281.04 762.608   1
  -3  -1   4 6445.24 386.873   1
   3  -4  -4 7919.63 786.881   1
   3  -4  -5 266369. 5776.38   1
   4  -1   5 252485. 5881.26   2
   4  -1   5 261081. 5825.48   1
  -4   1  -5 259342. 5803.01   1
  -4   3  -5 260798. 5930.63   1
   1   3  -5 249838. 5377.42   1
   1  -4  -5 264178. 5968.90   1
  -3   4   5 246600. 5776.55   1
  -1   4   5 257372. 5882.43   2
  -1  -3   5 263207. 5505.93   1
   4  -3   5 248275. 5899.71   2
  -1   4   5 255103. 5927.64   1
  -4   1  -6 278576. 6423.78   1
   1  -4  -6 278428. 6396.72   1
  -4   3  -6 283061. 6526.48   1
  -1   4   6 301746. 6605.07   1
  -1  -3   6 267975. 5957.51   1
   4  -3   6 289918. 6584.16   1
  -3   4   6 269482. 6220.25   1
   4  -3   6 297638. 6615.71   2
  -1   4   6 304036. 6468.74   2
   4  -1   6 290386. 6544.52   1
   3  -4  -6 269045. 6147.28   1
   4  -1   6 309793. 6658.31   2
   1   3  -6 299077. 6099.92   1
   3  -4  -7 263350. 5932.33   1
   1  -4  -7 262782. 6180.75   1
  -1   4   7 266054. 6113.69   2
   4  -3   7 247388. 6125.29   2
  -4   3  -7 262397. 6284.86   1
   1   3  -7 249012. 5647.21   1
  -1   4   7 257933. 6185.38   1
  -3  -1   7 262881. 4954.40   1
   4  -1   7 244888. 6101.84   2
  -3   4   7 259919. 6045.78   1
   4  -1   7 257816. 6254.24   1
  -1  -3   7 258412. 5759.31   1
  -4   1  -7 246566. 6085.30   1
   4  -3   7 252297. 6299.18   1
   4  -1   8 213675. 5660.54   2
  -4   1  -8 209281. 5597.73   1
  -3   4   8 198942. 5299.35   1
  -3  -1   8 209935. 4561.70   1
   1   3  -8 221959. 5241.12   1
  -1  -3   8 235835. 5383.87   1
  -1   4   8 214698. 5627.88   1
  -3   4   8 224356. 5587.06   2
   3   1  -8 223460. 4551.70   1
   4  -3   8 202601. 5694.86   1
   4  -1   8 206490. 5624.70   1
  -4   3  -8 211168. 5643.01   1
   3  -4  -8 223200. 5420.26   1
   4  -3   8 214641. 5618.42   2
  -1   4   8 213308. 5484.51   2
   1  -4  -8 216483. 5622.30   1
  -4   1  -9 1309.89 471.005   1
   3   1  -9 1883.63 373.313   1
   4  -1   9 1148.89 471.753   1
  -3   4   9 1083.73 302.927   2
   4  -3   9 1701.99 567.300   1
   3  -4  -9 1023.19 384.625   1
  -1   4   9 680.761 422.774   1
  -3   4   9 1232.85 357.206   1
   1  -4  -9 1716.50 458.782   1
  -4   3  -9 963.303 450.844   1
  -3  -1   9 981.586 259.040   1
   1   3  -9 1511.50 459.984   1
  -1   4   9 1581.59 498.147   2
   4  -3   9 1141.97 418.643   2
   4  -1   9 1388.95 454.970   2
  -1  -3   9 697.496 339.848   1
   4  -3  10 503520. 10444.0   2
  -1   4  10 505078. 10209.9   2
   4  -1  10 493605. 10552.7   1
  -1   4  10 488564. 10428.0   1
  -4   3 -10 495190. 10491.9   1
   3   1 -10 496786. 9323.28   1
  -4   1 -10 501499. 10524.9   1
   3  -4 -10 502534. 10065.9   1
   4  -3  10 519644. 10791.7   1
   1  -4 -10 502897. 10327.9   1
   4  -1  10 481223. 10315.3   2
  -3   4  10 522324. 10342.7   1
   1   3 -10 512327. 10020.5   1
  -1   4  11 13369.4 1353.71   2
  -1   4  11 15156.2 1434.82   1
   4  -3  11 13410.7 1403.31   1
  -3   4  11 15378.4 1363.99   1
   3   1 -11 13219.8 1113.32   1
  -3  -1  11 17239.6 1314.07   1
   1  -4 -11 16700.8 1478.47   1
   3  -4 -11 15837.7 1358.60   1
   4  -1  11 14565.7 1413.24   2
  -3   4  11 15788.9 1390.29   2
  -1  -3  11 17576.6 1439.67   1
   4  -3  11 13549.8 1381.77   2
  -4   3 -11 14397.3 1423.37   1
  -4   1 -11 16367.7 1495.10   1
   1   3 -11 14877.9 1302.09   1
   4  -1  11 14836.1 1490.34   1
  -4   1 -12 23576.3 1827.98   1
   4  -1  12 22287.1 1785.84   1
  -1   4  12 23758.5 1757.13   2
  -1  -3  12 22969.5 1707.64   1
  -1   4  12 18479.4 1619.90   1
   1  -4 -12 22620.9 1740.28   1
   4  -3  12 21890.6 1758.74   2
   3  -4 -12 19259.6 1578.30   1
   4  -1  12 21049.1 1724.83   2
   4  -3  12 20988.9 1777.40   1
  -3   4  12 18487.4 1537.31   2
  -3   4  12 22308.6 1740.70   1
   1   3 -12 23180.4 1705.94   1
  -3  -1  12 19336.0 1484.23   1
  -4   3 -12 21703.7 1793.62   1
   4  -3  13 205113. 6074.16   2
  -4   3 -13 207290. 6200.44   1
   1  -4 -13 192631. 5837.32   1
   4  -3  13 201584. 6317.13   1
  -3   4  13 210679. 6012.19   2
  -4   1 -13 195599. 6060.77   1
  -1  -3  13 222169. 6168.43   1
  -1   4  13 214087. 6141.21   2
   4  -1  13 196212. 6009.21   2
  -1   4  13 196610. 6085.41   1
   3  -4 -13 218770. 6078.29   1
   4  -1  13 203404. 6315.66   1
   1   3 -13 240370. 6246.25   1
  -3   4  13 209682. 6104.86   1
   4  -1  14 54690.1 3109.71   1
   4  -3  14 62615.0 3202.59   2
  -4   1 -14 53259.9 3000.68   1
  -1   4  14 59029.7 3026.99   2
   3  -4 -14 64354.0 3068.98   1
  -1  -3  14 61057.0 3047.98   1
  -3   4  14 57792.8 3104.29   1
   4  -3  14 62408.1 3298.70   1
   1  -4 -14 55650.5 2955.45   1
  -1   4  14 55238.2 3071.60   1
   1   3 -14 58075.5 2958.18   1
  -3   4  14 64455.3 3130.53   2
  -4   3 -14 56761.7 3064.09   1
   4  -1  14 59674.5 3095.93   2
  -4   1 -15 83258.6 3889.24   1
  -1   4  15 84140.4 3820.47   2
   3  -4 -15 87576.8 3750.00   1
   1  -4 -15 80716.7 3684.10   1
  -1  -3  15 84244.9 3827.03   1
   1   3 -15 93760.8 3913.31   1
   4  -1  15 81807.4 3863.88   2
  -1   4  15 82560.5 3889.04   1
  -3   4  15 87905.9 3952.32   1
  -3   4  15 92869.7 3911.13   2
   4  -1  15 83477.1 4002.30   1
   4  -3  15 86432.1 3864.41   2
  -4   3 -15 85156.0 3872.47   1
   4  -3  15 80412.3 3936.48   1
   3  -4 -16 746.889 410.502   1
  -4   1 -16 213.842 401.005   1
   4  -3  16 1928.92 778.360   1
  -1   4  16 1444.32 529.246   2
   4  -1  16 1795.77 710.188   1
  -1  -3  16 406.648 437.192   1
  -3   4  16 820.981 458.467   1
   4  -1  16 905.571 451.416   2
   1  -4 -16 1104.49 546.485   1
   4  -3  16 1212.93 578.352   2
  -1   4  16 1516.22 714.330   1
  -4   3 -16 29.0305 350.002   1
   1   3 -16 992.411 433.388   1
   4  -3  17 3759.08 860.353   1
   4  -1  17 2680.14 777.482   1
   4  -3  17 5153.89 1015.24   2
  -1   4  17 3149.83 809.540   1
   1  -4 -17 2877.75 789.317   1
  -4   1 -17 2581.75 673.339   1
   3  -4 -17 3028.84 812.727   1
   4  -1  17 3542.96 776.059   2
  -1   4  17 3621.56 821.884   2
  -4   3 -17 3893.65 882.694   1
  -3   4  17 3715.07 927.333   1
  -4   1 -18 111496. 4671.85   1
  -3   4  18 110826. 4797.07   1
   1  -4 -18 123164. 4813.19   1
   3  -4 -18 97674.1 4352.77   1
   4  -1  18 112617. 4885.44   1
   4  -1  18 109026. 4781.38   2
  -4   3 -18 114494. 4782.83   1
  -1   4  18 108180. 4776.88   1
   4  -3  18 107492. 4821.87   1
  -1   4  18 109827. 4754.87   2
   4  -3  19 8609.81 1302.08   1
  -4   3 -19 9343.72 1313.95   1
   4  -1  19 9335.33 1388.80   1
   3  -4 -19 7513.66 1144.81   1
  -4   1 -19 8232.71 1267.82   1
   4  -1  19 8276.29 1330.32   2
  -1   4  19 9784.75 1431.31   1
  -3   4  19 7142.10 1274.85   1
   1  -4 -19 10707.2 1399.87   1
  -3   4  20 26194.0 2405.99   1
  -1   4  20 30696.8 2543.67   1
   1  -4 -20 32652.6 2444.43   1
  -4   3 -20 28613.6 2381.57   1
  -4   1 -20 30755.6 2454.06   1
   4  -3  20 27632.4 2384.54   1
   4  -1  20 30633.6 2549.43   1
   4   0   0 39501.7 1254.60   1
   0   4   0 38443.7 1757.31   1
   4   0   0 36111.8 1599.15   2
   4  -4   0 43594.1 1838.45   1
   0  -4   0 40925.0 1808.20   1
  -4   4   0 38775.6 1777.50   1
  -4   0   0 35105.9 1221.59   1
   0   4   1 292564. 5953.84   2
  -4   0  -1 284493. 5301.48   1
   0  -4  -1 268768. 6011.61   1
   0  -4   1 282375. 6065.63   1
   4   0   1 287691. 5846.14   2
   4  -4   1 276024. 5980.62   1
  -4   4   1 291638. 5978.41   1
  -4   4  -1 277734. 6051.52   1
   0   4  -1 278552. 5985.08   1
   0  -4  -3 416085. 8244.82   1
   4  -4   3 408730. 8186.89   1
   4   0   3 418114. 8113.83   2
  -4   4  -3 416418. 8293.36   1
   0   4  -3 415573. 8025.16   1
   4  -4   4 171520. 4509.04   1
   4  -4  -4 168852. 4159.40   1
   4   0   4 162597. 4239.22   1
  -4   0  -4 156443. 4176.78   1
   0   4   4 168251. 4498.04   1
   4   0  -4 180859. 3633.11   2
  -4   4   4 184712. 4391.43   1
   0   4   4 173060. 4385.63   2
  -4   4  -4 160117. 4506.58   1
   4  -4   4 167431. 4586.71   2
   4   0   4 166028. 4432.53   2
   0  -4   4 180960. 4444.59   1
   0  -4  -4 162912. 4458.50   1
   0   4  -4 166733. 4312.10   1
   0   4   5 28380.1 1684.84   1
  -4   4   5 26633.3 1504.07   1
  -4   4  -5 29245.6 1732.03   1
   0  -4   5 29797.8 1632.77   1
  -4   0  -5 27004.0 1549.65   1
   0  -4  -5 28008.2 1644.71   1
   4   0   5 26983.3 1619.19   2
   4  -4   5 26176.3 1641.79   2
   4  -4   5 30491.5 1760.47   1
   4   0   5 27113.2 1576.95   1
   0   4  -5 29716.5 1611.07   1
   4  -4  -5 25247.9 1438.31   1
   0   4   5 27969.0 1561.90   2
   0   4   6 20841.4 1488.23   1
  -4   4  -6 21530.3 1501.60   1
   0  -4   6 19081.6 1353.02   1
   0   4  -6 21334.2 1396.31   1
  -4   4   6 24354.8 1422.75   1
   4   0   6 25223.8 1603.58   2
   0   4   6 21234.0 1454.07   2
  -4   0  -6 20121.8 1420.39   1
   4   0   6 22709.8 1497.04   1
   4  -4   6 24592.5 1605.88   2
   4  -4   6 16985.6 1390.45   1
   4  -4  -6 21384.5 1328.27   1
   0  -4  -6 21457.6 1475.73   1
   4   0   7 13114.4 1213.48   1
  -4   0  -7 12482.4 1176.11   1
   0   4   7 13561.3 1152.19   2
   0   4   7 13331.4 1183.93   1
   4   0   7 13594.2 1205.22   2
   4  -4   7 12078.7 1177.87   1
   0  -4   7 13931.0 1186.42   1
   4  -4   7 13020.6 1203.35   2
  -4   0   7 12025.1 619.593   1
  -4   4   7 13807.0 1130.39   1
   0   4  -7 12359.5 1123.29   1
   4  -4  -7 13570.9 1073.63   1
  -4   4  -7 13696.3 1253.11   1
   0  -4  -7 13064.4 1193.72   1
   4   0  -7 11034.4 564.593   1
  -4   4  -8 5816.75 883.648   1
   4   0   8 5065.45 840.240   1
   0   4   8 7666.21 911.930   1
   0  -4  -8 8457.20 951.947   1
   4  -4   8 5848.07 930.302   1
  -4   4   8 6634.52 757.619   1
   4  -4   8 5164.28 785.009   2
  -4   0  -8 6054.22 883.664   1
   0  -4   8 7329.15 874.174   1
   4   0   8 4973.54 819.510   2
   4  -4  -8 6562.78 740.470   1
   0   4   8 5333.10 790.989   2
   0   4  -8 6283.14 758.420   1
   4  -4  -9 58272.8 2505.82   1
   4   0   9 65459.9 3015.54   1
  -4   4  -9 66079.9 2970.72   1
   0   4   9 64088.4 2914.87   1
  -4   4   9 62677.2 2658.69   1
   4   0   9 66488.1 2973.46   2
   0  -4   9 60483.6 2700.65   1
   0  -4  -9 67464.9 2866.84   1
   4  -4   9 61828.6 2918.94   1
  -4   0  -9 63328.3 2881.41   1
   0   4  -9 66086.5 2787.90   1
   0   4   9 71475.1 2900.33   2
   4  -4   9 64442.7 2875.91   2
  -4   0 -10 328580. 7893.51   1
   0   4  10 329108. 7914.16   1
  -4   4  10 328921. 7475.72   1
   4  -4 -10 351630. 7449.41   1
   0  -4 -10 323422. 7756.38   1
   4   0  10 306678. 7715.67   2
   0  -4  10 349508. 7748.63   1
   4  -4  10 317045. 7697.75   2
   0   4  10 328412. 7652.26   2
  -4   4 -10 332362. 7966.84   1
   0   4 -10 323101. 7484.77   1
   4  -4  10 316015. 7949.81   1
  -4   4  10 309541. 7448.03   2
   4   0  10 324967. 7956.60   1
   0  -4 -11 254896. 6800.74   1
  -4   4  11 254084. 6566.51   1
   0   4  11 268430. 6976.38   1
   4   0  11 254137. 7011.69   1
  -4   4 -11 258955. 6964.75   1
   4  -4 -11 275699. 6563.82   1
   0  -4  11 260186. 6751.10   1
   4   0  11 264032. 6899.00   2
  -4   0 -11 256171. 6927.70   1
  -4   4  11 248425. 6467.02   2
   0   4 -11 274869. 6755.17   1
   4  -4  11 263445. 6852.22   2
   0   4  11 266353. 6789.83   2
   0  -4 -12 71929.4 3208.89   1
   4  -4  12 67310.4 3188.86   2
   0   4  12 66829.0 3204.08   1
   0   4 -12 69026.2 3112.03   1
   0  -4  12 66561.2 3126.35   1
  -4   4  12 66598.3 3083.31   1
   0   4  12 67834.1 3141.49   2
  -4   4  12 66027.5 3012.28   2
   4   0  12 67605.8 3189.31   2
  -4   4 -12 72241.2 3344.25   1
  -4   0 -12 68723.2 3288.15   1
   4  -4 -12 70489.0 3083.85   1
   4  -4  12 65722.3 3207.36   1
   4   0  12 69956.3 3342.94   1
   0  -4  13 128588. 4664.58   1
   0   4  13 130752. 4801.46   1
   4  -4  13 122964. 4585.80   2
   4  -4 -13 135413. 4504.62   1
   0  -4 -13 133862. 4635.87   1
  -4   4  13 128010. 4544.27   1
  -4   0 -13 122554. 4650.52   1
   0   4  13 134895. 4682.20   2
   4   0  13 120589. 4709.61   1
  -4   4 -13 120242. 4628.48   1
  -4   4  13 134789. 4523.23   2
   4  -4  13 124616. 4756.63   1
   0   4 -13 119232. 4420.46   1
   4   0  13 127101. 4644.68   2
   4   0  14 274694. 7712.91   1
  -4   4  14 289216. 7578.46   1
  -4   4 -14 282794. 7729.62   1
   0  -4 -14 275235. 7451.62   1
   0   4 -14 274044. 7436.35   1
   0   4  14 283806. 7480.33   2
   4  -4 -14 280028. 7308.20   1
   4   0  14 274737. 7558.62   2
   0   4  14 266599. 7549.07   1
   4  -4  14 285906. 7687.58   2
  -4   4  14 264173. 7214.62   2
  -4   0 -14 281591. 7590.64   1
   0  -4  14 287167. 7697.61   1
   4  -4  14 278520. 7755.37   1
   4   0  15 15418.8 1667.66   1
   0   4  15 14821.8 1611.62   1
   0   4 -15 15090.1 1563.87   1
   0  -4 -15 18268.7 1667.12   1
   4  -4  15 11685.2 1475.46   1
   0   4  15 15884.9 1567.13   2
   0  -4  15 15469.1 1620.02   1
  -4   4 -15 16588.0 1706.86   1
  -4   4  15 16968.2 1677.23   1
   4   0  15 14866.0 1594.93   2
   4  -4 -15 12376.1 1379.37   1
  -4   0 -15 15553.7 1636.88   1
   4  -4  15 15343.4 1610.08   2
   4  -4  16 6638.94 1205.85   2
   4  -4  16 6159.54 1098.61   1
   4   0  16 6880.34 1208.28   1
  -4   4 -16 7074.54 1178.80   1
  -4   4  16 7323.81 1239.27   1
  -4   0 -16 7323.41 1174.11   1
   0   4 -16 8054.02 1193.98   1
   0  -4 -16 8109.61 1173.91   1
   0   4  16 7712.37 1164.08   2
   0   4  16 7368.26 1155.29   1
   0  -4  16 9454.87 1312.57   1
   4  -4 -16 7862.46 1118.01   1
   4   0  16 8104.09 1302.62   2
   0   4 -17 5439.92 1077.45   1
   0   4  17 5982.75 1125.59   1
  -4   4 -17 5891.88 1087.48   1
   0  -4  17 5848.23 1073.01   1
   0   4  17 5253.17 955.033   2
   4   0  17 6418.19 1171.49   2
  -4   0 -17 5341.86 1025.18   1
   0  -4 -17 7101.14 1089.59   1
  -4   4  17 6236.18 1126.60   1
   4   0  17 5256.31 1017.42   1
   0   4  18 16675.3 1793.13   1
   4   0  18 17401.9 1820.02   1
  -4   0 -18 14794.7 1631.23   1
   0  -4 -18 15697.7 1626.18   1
   0  -4  18 16929.3 1809.03   1
   4   0  18 15269.3 1728.87   2
   0   4  18 14325.6 1762.11   2
  -4   4 -18 16586.7 1787.90   1
  -4   0 -19 19814.7 1914.53   1
  -4   4 -19 17571.7 1879.41   1
   4   0  19 20287.1 2047.50   1
   4  -4  19 20191.6 1980.91   1
   0  -4 -19 18690.4 1855.27   1
   4   0  19 16773.0 1836.51   2
   0   4  19 15792.7 1932.45   2
   0   4  19 19221.0 1929.36   1
   4  -4  20 5744.13 1168.42   1
   4   0  20 5474.20 1111.79   1
  -4   4 -20 4819.24 1031.98   1
  -4   0 -20 5747.81 1043.74   1
   4   0  20 4950.59 1073.47   2
   0  -4 -20 7360.01 1177.27   1
   0   4  20 6900.55 1204.76   1
  -3   5 -20 8733.39 1332.33   1
  -2   5 -20 7549.53 1268.00   1
   2  -5  20 8565.20 1371.71   1
   3  -5  20 11258.0 1562.57   1
   3   2  20 7727.29 1263.38   2
   2   3  20 8750.89 1373.36   2
   2   3  19 29464.2 2460.37   1
   2  -5  19 28018.2 2410.58   1
  -2  -3 -19 30887.5 2365.04   1
   3  -5  19 25743.0 2324.30   1
   2   3  19 22462.5 2138.15   2
  -3   5 -19 24352.1 2216.69   1
  -3  -2 -19 28471.1 2322.53   1
   3   2  19 24452.3 2229.68   2
  -2   5 -19 20739.1 2068.73   1
   3   2  19 28147.9 2360.80   1
   3   2  18 111278. 4854.39   1
  -3  -2 -18 114332. 4779.41   1
   2  -5  18 108888. 4855.64   1
  -2  -3 -18 118392. 4776.45   1
   2   3  18 114433. 4843.28   1
  -2   5 -18 103241. 4642.88   1
   2   3  18 106317. 4637.38   2
   3   2  18 105494. 4696.46   2
   3  -5  18 104905. 4785.99   1
  -3   5 -18 111842. 4799.19   1
  -3  -2 -17 23509.3 2058.12   1
   3   2  17 23055.7 2107.85   1
   3   2  17 22156.2 1989.09   2
   2  -5  17 22936.2 2095.38   1
  -2  -3 -17 22377.3 1977.08   1
  -3   5 -17 20558.0 1961.39   1
   2   3  17 19426.7 1937.47   2
   3  -5  17 20273.7 2003.92   1
  -2   5 -17 20798.3 1993.84   1
   2   3  17 22894.9 2086.46   1
   2   3  16 7092.61 1162.92   1
   3   2  16 6029.81 1045.99   1
  -3  -2 -16 6923.45 1145.55   1
   2   3  16 5584.53 1012.05   2
   3  -5  16 6658.05 1142.99   1
   3   2  16 6399.61 1112.56   2
  -3   5 -16 7045.98 1180.61   1
   2  -5  16 7023.63 1137.28   1
  -2  -3 -16 6320.69 1063.76   1
  -2   5 -16 5778.40 1017.97   1
   2  -5  15 45616.9 2880.61   1
   2   3  15 53808.4 3096.97   1
  -3  -2 -15 51202.3 2929.16   1
   3  -5  15 44677.9 2863.68   1
  -3   5 -15 49339.6 2911.82   1
   2   3  15 47095.3 2820.64   2
   3   2  15 47835.7 2852.45   2
   3   2  15 49640.9 2969.04   1
  -2   5 -15 52207.8 3033.13   1
  -2  -3 -15 49218.3 2850.62   1
   3   2  14 106118. 4375.36   1
   3   2  14 103312. 4177.93   2
   2   3  14 100428. 4310.70   1
   2  -5  14 107907. 4449.55   1
  -2  -3 -14 99794.2 4126.22   1
   3  -5  14 103734. 4362.29   1
  -3   5 -14 98751.7 4207.29   1
  -3  -2 -14 104830. 4227.22   1
   2   3  14 100307. 4127.98   2
  -2   5 -14 95051.4 4142.24   1
   2   3  13 81575.7 3560.08   2
   2  -5  13 76046.9 3582.23   1
   3   2  13 78892.2 3737.99   1
   2   3  13 76549.5 3695.82   1
  -3  -2 -13 78890.4 3540.88   1
   3  -5  13 80869.9 3742.70   1
   3  -5  13 76257.7 3486.68   2
   3   2  13 80781.6 3520.72   2
  -2   5 -13 81343.6 3661.15   1
  -2  -3 -13 80798.0 3651.11   1
  -3   5 -13 74116.8 3525.38   1
  -3   5 -12 37805.0 2380.85   1
   3   2  12 35850.3 2408.02   1
   2   3  12 38598.9 2437.49   1
   3  -5  12 38295.8 2278.11   2
  -2   5 -12 34795.3 2292.60   1
   3  -5  12 35584.7 2397.40   1
   3   2  12 37346.3 2326.87   2
   2  -5  12 37788.9 2413.24   1
  -3  -2 -12 37013.3 2319.56   1
  -2  -3 -12 37621.8 2322.11   1
   2   3  12 34126.7 2226.26   2
  -2  -3 -11 15131.6 1468.25   1
   3   2  11 14974.1 1417.44   2
   3   2  11 14136.9 1501.02   1
   2   3  11 16728.2 1575.66   1
   3  -5  11 16097.8 1478.69   2
   3  -5  11 13077.3 1433.05   1
   2  -5  11 13797.7 1410.33   1
  -3  -2 -11 14183.8 1409.65   1
  -5   3  11 14035.6 1272.70   1
   2   3  11 15024.1 1410.78   2
  -2   5 -11 14628.2 1448.29   1
  -3   5 -11 14441.0 1456.63   1
  -5   3  10 191727. 4876.52   1
   3   2  10 166761. 5185.12   2
   3  -5  10 176407. 5414.67   1
  -3  -2 -10 172159. 5270.99   1
   5  -3 -10 189443. 4664.78   1
  -2  -3 -10 178411. 5334.25   1
   2   3  10 166904. 5094.67   2
   3  -5  10 176071. 5167.63   2
  -2   5 -10 163932. 5183.96   1
   3   2  10 174891. 5358.25   1
  -3   5 -10 164249. 5223.75   1
   2  -5  10 161215. 5149.93   1
   2   3  10 167683. 5320.77   1
  -3  -2  -9 10140.4 1156.61   1
   2   3   9 10413.3 1153.52   1
  -5   3   9 12264.5 1026.89   1
   3  -5   9 12508.6 1205.15   2
   5  -3  -9 9845.67 893.612   1
  -2  -3  -9 10465.7 1097.94   1
   3   2   9 9591.33 1131.10   1
  -3   5  -9 12399.3 1218.54   1
   2  -5   9 10589.6 1194.17   1
  -2   5  -9 11242.8 1170.78   1
   3   2   9 12665.1 1249.08   2
   2   3   9 10067.0 1141.35   2
   3  -5   9 10514.4 1187.34   1
   3   2   8 46156.3 2402.61   1
   2   3   8 47833.9 2463.81   1
   2  -5   8 50782.7 2502.89   1
  -3  -2  -8 49929.1 2458.71   1
   5  -3  -8 54237.0 2012.58   1
  -5   2   8 50223.5 1780.22   1
  -2  -3  -8 51761.6 2488.36   1
   3  -5   8 46380.3 2407.98   2
  -5   3   8 48179.1 1991.12   1
   3  -5   8 44473.7 2440.94   1
  -3   5  -8 46204.6 2457.76   1
  -2   5  -8 47314.9 2419.24   1
   3   2   8 47908.7 2383.62   2
   2   3   8 47969.9 2319.36   2
   3   2   7 154551. 4774.93   1
   3   2   7 172335. 4819.02   2
   5  -3  -7 187070. 4106.96   1
  -5   2   7 176847. 3672.93   1
  -5   3   7 195495. 4242.39   1
   3  -5   7 161797. 4915.86   1
   2   3   7 177641. 4985.59   1
   5  -2  -7 158831. 3492.53   1
  -2  -3  -7 172827. 4902.36   1
  -3  -2  -7 164700. 4803.10   1
   2   3   7 168019. 4801.70   2
  -3   5  -7 177507. 5091.67   1
   2  -5   7 170884. 4991.56   1
  -2   5  -7 179404. 5048.41   1
   2  -5   6 502171. 10066.7   1
  -3   5  -6 522751. 10284.2   1
  -2   5  -6 508598. 10122.2   1
   3  -5   6 492201. 10106.3   1
   3   2   6 490391. 9841.84   2
   3   2   5 328514. 6872.17   1
   2  -5   5 318107. 7054.94   1
   3  -5   5 317975. 7200.46   1
  -3  -2  -5 306108. 6766.70   1
  -2  -3  -5 326289. 6979.60   1
   5  -3  -5 318373. 5908.84   1
   3   2   5 329604. 6946.55   2
   2   3   5 319775. 6861.21   2
  -2   5  -5 330701. 7121.96   1
  -3   5  -5 319994. 7217.56   1
   2  -5   4 57732.7 2492.01   1
   3  -5   4 63052.6 2603.78   1
   2   3   4 57953.3 2335.91   1
  -5   2   4 51322.7 1417.43   1
   3   2   4 56108.6 2261.50   1
  -2   5  -4 62948.9 2563.92   1
  -3   5  -4 61510.1 2557.69   1
  -2  -3  -4 60010.1 2382.46   1
   5  -2  -4 52228.8 1370.26   1
  -5   3   4 59164.8 1907.26   1
  -3  -2  -4 57033.9 2280.56   1
   5  -3  -4 61194.0 1895.46   1
   3   2   4 51040.2 2266.13   2
   2   3   4 55031.0 2320.83   2
   3  -5   3 287090. 6421.48   1
   5  -3  -3 297341. 5364.55   1
   3   2   3 271804. 5973.83   2
   2  -5   3 266495. 6260.65   1
  -2  -3  -3 256969. 5901.69   1
   3   2   3 262136. 5789.18   1
   2   3   3 282512. 6018.09   1
  -5   3   3 288266. 5381.95   1
   2   3   3 267789. 5988.92   2
  -3  -2  -3 237758. 5670.78   1
  -2   5  -3 280516. 6388.91   1
  -3   5  -3 292915. 6496.46   1
  -3   5  -2 450734. 8922.51   1
   5  -3  -2 441506. 7759.43   1
   3  -5   2 433666. 8761.76   1
   3   2   1 117214. 3257.10   2
   3   2   1 111385. 3020.87   1
   5  -2  -1 125676. 3555.34   2
  -3   5  -1 124951. 3741.36   1
   2   3   1 122550. 3320.42   1
  -5   3   1 130583. 3190.20   1
   2  -5   1 125850. 3771.04   1
   5  -3  -1 116379. 3016.07   1
   2   3   1 120826. 3338.64   2
   5  -3  -1 138981. 3864.79   2
  -5   2   1 127234. 2831.19   1
   3  -5   1 132952. 3818.43   1
  -2   5  -1 127131. 3743.72   1
  -2  -3  -1 109155. 3222.58   1
   5  -2  -1 121491. 2725.02   1
  -3  -2  -1 120387. 3163.98   1
  -5   2   0 32383.8 1356.15   1
   3  -5   0 36659.2 1866.08   1
   3   2   0 34454.5 1529.99   2
   5  -3   0 37076.2 1547.84   1
  -3  -2   0 34077.7 1412.81   1
   2   3   0 31706.8 1506.26   1
  -3   5   0 33872.1 1816.51   1
   2  -5   0 35420.1 1828.08   1
  -2   5   0 37190.9 1866.34   1
   3   2   0 35758.8 1414.51   1
  -2  -3   0 37222.1 1611.29   1
   2   3   0 33562.8 1535.18   2
  -5   3   0 36379.0 1568.19   1
   5  -3   0 37340.7 1886.71   2
   5  -2   0 33516.9 1336.66   1
   5  -2   0 36580.7 1767.38   2
   5  -2   1 12266.0 857.425   1
   3   2  -1 12761.2 792.418   1
   2  -5  -1 12149.2 1085.61   1
   2   3  -1 13613.6 919.555   1
   5  -3   1 14873.4 1175.19   2
  -2   5   1 14484.6 1168.88   1
   5  -3   1 12655.9 927.412   1
   3  -5  -1 12755.8 1135.55   1
  -3  -2   1 10098.3 732.120   1
  -2  -3   1 12421.9 905.969   1
  -5   3  -1 12450.5 937.891   1
   3   2  -1 14334.3 914.040   2
   2   3  -1 13837.7 893.019   2
  -5   2  -1 12930.5 879.036   1
   5  -2   1 15877.1 1171.08   2
  -3   5   1 14507.0 1172.16   1
   2   3  -2 232082. 4876.68   2
   5  -2   2 244153. 5706.39   2
  -2  -3   2 231063. 5011.60   1
   2  -5  -2 256135. 5869.00   1
  -5   3  -2 242275. 5417.75   1
  -5   2  -2 240805. 5205.67   1
   3   2  -2 268811. 4685.64   1
  -3   5   2 241085. 5749.05   1
   5  -2   2 245508. 5194.30   1
   2   3  -2 242729. 5028.54   1
  -2   5   2 246120. 5771.52   1
   5  -3   2 256709. 5893.52   2
   3   2  -2 231594. 4753.02   2
   3  -5  -2 244822. 5738.18   1
  -3  -2   2 240288. 4624.10   1
   5  -3   2 231136. 5288.71   1
   2  -5  -3 63035.0 2572.59   1
   3  -5  -3 63518.5 2522.01   1
  -2  -3   3 56940.1 2074.27   1
  -2   5   3 62467.4 2583.86   1
   5  -2   3 66106.4 2361.38   1
   5  -3   3 56869.6 2269.42   1
  -5   3  -3 64428.2 2444.86   1
   5  -3   3 63706.2 2606.59   2
  -3   5   3 63333.7 2555.75   1
   3   2  -3 67144.7 1820.06   1
  -5   2  -3 62537.1 2335.62   1
   5  -2   3 65880.8 2609.48   2
   2   3  -3 62595.7 2087.37   1
   2   3  -3 67309.5 1949.26   2
  -3  -2   3 57081.3 1735.16   1
   3   2  -3 67003.8 1850.04   2
   3  -5  -4 121907. 3686.48   1
  -5   2  -4 110967. 3418.66   1
  -2   5   4 117390. 3767.16   1
  -3  -2   4 115195. 2676.08   1
   5  -2   4 110325. 3471.32   1
  -5   3  -4 115385. 3575.07   1
   3   2  -4 107186. 2411.43   2
   3   2  -4 115957. 2613.82   1
   5  -2   4 120405. 3736.57   2
  -2  -3   4 109055. 3073.12   1
   2   3  -4 114053. 3054.17   1
   2   3  -4 119715. 2637.12   2
  -3   5   4 116810. 3693.37   1
   5  -3   4 120433. 3791.03   2
   2  -5  -4 128416. 3831.97   1
   5  -3   4 120235. 3589.74   1
   5  -2   5 165362. 4613.18   2
   5  -2   5 166023. 4494.12   1
   2   3  -5 153555. 2895.44   2
  -2   5   5 160948. 4525.05   1
  -3   5   5 168072. 4552.34   1
   5  -3   5 164423. 4647.84   2
  -3  -2   5 172272. 3403.22   1
   3   2  -5 168164. 3290.63   1
   2   3  -5 185239. 3924.17   1
  -5   2  -5 164189. 4375.32   1
  -2  -3   5 157950. 3815.31   1
   2  -5  -5 184581. 4767.82   1
   3  -5  -5 164415. 4448.24   1
  -5   3  -5 167028. 4520.31   1
  -3   5   6 543926. 10630.1   1
  -5   2  -6 551990. 10623.8   1
  -2   5   7 125906. 4180.72   1
  -2  -3   7 136462. 3686.76   1
  -3   5   7 136676. 4271.86   1
   2  -5  -7 135951. 4211.80   1
   5  -2   7 128469. 4247.30   2
  -2   5   7 131510. 4182.53   2
   3   2  -7 132148. 3227.18   1
   2   3  -7 145620. 3754.30   1
   3  -5  -7 133894. 4150.83   1
   5  -3   7 130206. 4235.87   1
  -5   3  -7 129054. 4229.76   1
   5  -2   7 129389. 4244.58   1
   5  -3   7 128158. 4262.41   2
  -3  -2   7 145966. 3404.95   1
  -5   2  -7 134327. 4257.04   1
   5  -2   8 48916.3 2500.10   1
  -3  -2   8 46728.7 1866.63   1
   5  -3   8 49643.0 2452.56   2
  -2   5   8 43616.5 2355.22   2
   2   3  -8 49375.0 2086.51   1
  -3   5   8 44959.2 2338.80   1
  -3   5   8 57304.2 2639.98   2
  -5   2  -8 46735.7 2401.94   1
   3   2  -8 49025.1 1850.79   1
  -2  -3   8 50401.1 2127.03   1
   5  -2   8 46203.9 2456.05   2
   3  -5  -8 47059.6 2322.55   1
  -2   5   8 43725.3 2359.22   1
   2  -5  -8 44208.8 2311.20   1
   5  -3   8 47615.4 2509.33   1
  -5   3  -8 46441.5 2453.46   1
  -5   2  -9 189571. 5552.57   1
  -2   5   9 201657. 5570.74   1
  -3   5   9 202588. 5555.49   2
   3   2  -9 196138. 4612.47   1
   5  -2   9 188319. 5534.30   2
   5  -3   9 196048. 5660.26   2
  -2  -3   9 213246. 5166.91   1
  -3  -2   9 208862. 4760.96   1
   3  -5  -9 168918. 5104.62   1
   5  -2   9 192061. 5663.98   1
   5  -3   9 193315. 5686.08   1
   2   3  -9 200229. 4999.84   1
  -5   3  -9 181987. 5486.83   1
  -2   5   9 189883. 5368.19   2
   2  -5  -9 184953. 5375.31   1
  -3   5   9 182098. 5372.02   1
  -5   2 -10 182413. 5426.38   1
   5  -2  10 169852. 5417.73   1
  -3   5  10 163324. 5056.52   1
  -5   3 -10 165019. 5263.03   1
  -2   5  10 192186. 5357.48   2
  -2  -3  10 174445. 4851.69   1
   2  -5 -10 176648. 5180.39   1
   5  -3  10 170152. 5301.10   2
   3  -5 -10 169209. 5063.29   1
   5  -2  10 175600. 5326.11   2
   2   3 -10 171258. 4777.26   1
  -3   5  10 182031. 5298.94   2
   5  -3  10 172503. 5452.55   1
  -2   5  10 160561. 5167.36   1
   5  -2  11 102082. 4145.68   1
  -5   3 -11 101140. 4040.19   1
  -2   5  11 110418. 4064.01   1
   5  -3  11 104574. 4193.47   1
   2   3 -11 104876. 3659.79   1
   5  -3  11 103997. 4063.24   2
  -3   5  11 101576. 3951.70   1
   2  -5 -11 101701. 3838.95   1
   3  -5 -11 95439.1 3737.81   1
  -5   2 -11 104659. 4090.87   1
   5  -2  11 102298. 4012.26   2
  -2  -3  11 110274. 3768.91   1
  -2   5  11 111880. 3979.77   2
  -3   5  11 112142. 4085.06   2
  -5   2 -12 8866.52 1176.14   1
   5  -3  12 8721.87 1218.24   1
  -3   5  12 6502.50 1003.17   1
   5  -2  12 7749.41 1160.00   1
   3  -5 -12 7708.93 1081.68   1
  -3   5  12 10096.6 1198.43   2
  -2   5  12 7483.22 1029.85   2
   5  -3  12 7689.39 1131.76   2
   5  -2  12 6930.21 986.627   2
  -5   3 -12 7422.45 1086.73   1
  -2  -3  12 8559.03 1045.72   1
   2  -5 -12 9623.49 1123.40   1
  -2   5  12 7975.59 1085.17   1
   5  -3  13 6996.33 1099.12   1
   5  -2  13 7427.08 1156.91   1
  -2   5  13 6284.25 1040.87   1
  -3   5  13 6189.98 970.831   1
  -2   5  13 6438.08 1051.88   2
   3  -5 -13 7936.85 1083.08   1
   5  -2  13 7396.21 1076.71   2
  -3   5  13 7173.22 991.362   2
   2  -5 -13 6813.95 1053.48   1
   5  -3  13 6789.69 1046.61   2
  -5   3 -13 6902.85 1034.44   1
  -5   2 -13 8546.55 1155.12   1
   5  -2  14 121756. 4801.78   1
  -2   5  14 107755. 4436.04   1
  -3   5  14 113146. 4486.94   1
  -2   5  14 116844. 4499.79   2
   5  -2  14 123303. 4664.78   2
   5  -3  14 109189. 4503.04   2
  -5   2 -14 114145. 4566.92   1
   2  -5 -14 120830. 4504.79   1
   3  -5 -14 125132. 4545.90   1
  -3   5  14 109396. 4404.42   2
  -5   3 -14 113330. 4537.37   1
   5  -3  14 116297. 4727.79   1
   5  -2  15 12812.6 1563.42   1
  -3   5  15 12313.7 1512.19   2
  -5   3 -15 14539.4 1584.29   1
  -3   5  15 13512.6 1513.14   1
   2  -5 -15 13352.6 1452.47   1
   5  -2  15 13000.7 1500.60   2
   5  -3  15 14045.2 1583.48   2
   3  -5 -15 13285.9 1442.81   1
  -2   5  15 11445.2 1396.43   1
  -2   5  15 12461.2 1498.73   2
   5  -3  15 13393.2 1544.29   1
  -5   2 -15 12387.7 1462.23   1
  -3   5  16 26341.7 2187.93   1
  -2   5  16 26228.5 2163.64   1
  -2   5  16 31194.0 2352.09   2
   3  -5 -16 28997.6 2202.59   1
  -3   5  16 25292.3 2179.83   2
   5  -2  16 22207.2 2052.52   2
   5  -3  16 28306.5 2286.44   2
   5  -2  16 27056.2 2267.57   1
  -5   3 -16 23353.4 2083.18   1
   2  -5 -16 22845.1 1998.51   1
  -5   2 -16 26466.3 2119.23   1
   5  -3  16 25486.6 2245.69   1
  -3   5  17 34343.2 2574.16   1
   5  -2  17 36451.6 2708.97   2
   3  -5 -17 38120.5 2587.33   1
  -2   5  17 42711.5 2842.10   1
   5  -3  17 40214.9 2752.41   2
  -2   5  17 37354.3 2698.61   2
   5  -2  17 38150.4 2699.82   1
   2  -5 -17 38245.7 2610.05   1
  -5   2 -17 40325.8 2702.61   1
  -5   3 -17 40449.0 2709.38   1
   5  -3  17 36790.9 2711.39   1
  -2   5  18 82926.6 4197.53   2
   3  -5 -18 83969.1 4030.11   1
   5  -2  18 83298.6 4237.17   2
  -5   3 -18 94391.9 4316.84   1
  -2   5  18 88485.3 4303.61   1
   5  -3  18 84496.2 4278.86   2
   2  -5 -18 94144.7 4193.05   1
   5  -2  18 99525.7 4549.21   1
  -3   5  18 88105.0 4287.79   1
  -5   2 -18 94265.9 4257.01   1
   5  -3  18 96257.9 4474.69   1
  -3   5  19 18019.9 1919.30   1
  -2   5  19 17054.5 1863.95   1
   2  -5 -19 17986.4 1791.29   1
   3  -5 -19 17853.9 1830.64   1
   5  -3  19 16978.6 1912.13   1
  -5   3 -19 20727.2 1962.29   1
   5  -2  19 19124.1 2028.80   2
   5  -2  19 20732.1 2067.26   1
  -5   2 -19 21267.9 1987.48   1
  -3   5  20 5906.47 1167.40   1
  -2   5  20 8286.18 1318.85   1
   3  -5 -20 6454.05 1115.53   1
   2  -5 -20 7996.27 1240.04   1
   1   4  20 33868.4 2756.97   2
   4   1  20 35914.9 2747.01   2
   1  -5  19 1389.43 692.058   1
   1   4  19 2088.56 689.850   1
   1   4  19 1386.65 496.562   2
   4   1  19 2351.11 698.168   2
  -4   5 -19 2398.88 821.943   1
  -1  -4 -19 2859.69 788.633   1
   4  -5  19 1955.43 634.376   1
  -4  -1 -19 2198.59 738.130   1
   4   1  19 2895.33 866.663   1
   4  -5  18 6970.98 1153.29   1
  -1   5 -18 4652.38 924.915   1
   1  -5  18 4575.53 954.756   1
   4   1  18 7385.12 1241.66   1
   1   4  18 5459.21 1084.26   1
  -1  -4 -18 5857.41 1056.38   1
  -4  -1 -18 5311.30 906.799   1
  -4   5 -18 7066.13 1187.60   1
   1   4  18 4785.09 1008.34   2
   4   1  18 5315.94 1019.34   2
   4   1  17 662.832 494.740   2
  -4   5 -17 222.303 451.948   1
   1  -5  17-194.878 410.542   1
   4   1  17 893.643 506.462   1
   1   4  17-18.5689 448.636   1
  -1   5 -17 963.621 632.851   1
   1   4  17 1300.67 678.321   2
  -1  -4 -17 697.713 495.257   1
   4  -5  17 554.445 499.490   1
  -4  -1 -17 21.0696 365.107   1
   4   1  16 137754. 5379.07   1
   1   4  16 143867. 5429.95   1
  -1  -4 -16 142201. 5166.78   1
  -4   5 -16 135300. 5221.46   1
   4  -5  16 142360. 5379.33   1
   4   1  16 137198. 5222.51   2
  -1   5 -16 131354. 5153.05   1
   1   4  16 130642. 5020.06   2
   1  -5  16 146008. 5476.82   1
  -4  -1 -16 141098. 5280.47   1
   4   1  15 865.569 464.854   1
  -1  -4 -15 695.766 333.138   1
  -1   5 -15 553.742 488.347   1
   1  -5  15-151.412 443.022   1
   1   4  15-44.0845 405.368   1
  -4   5 -15-455.024 553.033   1
  -4  -1 -15 737.787 498.598   1
   4  -5  15 746.401 463.351   1
   4   1  15 372.796 376.499   2
   1   4  15 648.918 430.434   2
   4   1  14 19828.8 1842.52   1
   1   4  14 20436.6 1857.68   1
  -1   5 -14 18807.0 1753.61   1
   4  -5  14 21871.1 1916.35   1
  -1  -4 -14 19722.2 1825.26   1
  -4   5 -14 16058.1 1682.55   1
   4   1  14 20337.4 1771.73   2
   4  -5  14 18362.4 1681.31   2
   1   4  14 20171.0 1761.82   2
   1  -5  14 22431.4 1949.24   1
  -4  -1 -14 19918.7 1774.72   1
  -1   5 -13 541.106 395.884   1
  -4  -1 -13-113.644 344.540   1
  -4   5 -13 92.5755 319.112   1
  -5   4  13 377.292 386.589   1
   4  -5  13-563.519 454.202   1
   1   4  13 1488.66 579.799   1
  -1  -4 -13 256.328 324.370   1
   4  -5  13 177.141 394.971   2
   4   1  13 250.157 372.190   1
   4   1  13 264.946 397.412   2
   1   4  13-127.410 314.732   2
   1  -5  13 585.109 484.595   1
  -5   4  12 609013. 12261.4   1
   1   4  12 623654. 12833.4   1
  -4  -1 -12 613581. 12691.2   1
   5  -4 -12 640365. 12146.2   1
   4   1  12 632330. 13034.4   1
   4  -5  12 622017. 12983.9   1
  -1  -4 -12 615238. 12669.9   1
   4  -5  12 595018. 12580.9   2
   1   4  12 604047. 12422.9   2
   1  -5  12 634732. 12818.5   1
   4   1  12 610495. 12648.7   2
  -4   5 -12 610592. 12744.7   1
  -5   4  12 587893. 12135.8   2
   5  -4 -11 5070.62 759.143   1
   4  -5  11 4075.12 755.530   2
   4   1  11 3572.30 775.091   1
  -5   4  11 4834.93 809.195   1
   1   4  11 4475.44 855.886   1
  -1   5 -11 4067.47 835.142   1
   1  -5  11 3257.99 676.002   1
  -4   5 -11 4227.55 816.273   1
  -4  -1 -11 4094.86 778.304   1
  -1  -4 -11 3758.76 718.703   1
   4   1  11 4669.58 864.864   2
  -5   4  11 3465.15 716.729   2
   4  -5  11 3370.26 827.040   1
   1   4  11 4736.75 848.653   2
   1   4  10 11589.0 1229.81   1
   4   1  10 9929.21 1114.17   2
  -5   4  10 10680.8 1104.89   1
  -4  -1 -10 11102.5 1260.07   1
  -4   5 -10 10774.3 1237.82   1
   4  -5  10 13199.1 1406.34   1
   1   4  10 12484.2 1285.72   2
  -1  -4 -10 11256.7 1199.18   1
   1  -5  10 12268.7 1289.18   1
   5  -4 -10 12221.0 1107.29   1
   4   1  10 11393.6 1222.97   1
  -1   5 -10 10563.2 1162.24   1
   4  -5  10 10514.7 1159.31   2
  -4   5  -9 50.6339 342.951   1
   4   1   9 709.135 431.001   1
   1   4   9 637.771 398.315   1
  -5   4   9 570.618 316.265   1
   1  -5   9 1122.70 425.714   1
  -1   5  -9 267.578 301.734   1
   4  -5   9 665.795 300.517   2
   4  -5   9 1350.30 429.859   1
   4   1   9 373.304 399.923   2
  -4  -1  -9 934.365 458.791   1
  -1  -4  -9 1376.92 384.980   1
   1   4   9 764.099 359.726   2
   5  -4  -9 1087.71 391.330   1
   4   1   8 196687. 5498.13   1
   1   4   8 195959. 5475.90   1
  -4  -1  -8 195792. 5408.58   1
  -5   4   8 186585. 4881.80   1
  -1   5  -8 181029. 5270.72   1
   4   1   8 196416. 5416.17   2
  -1  -4  -8 192317. 5397.15   1
  -4   5  -8 183502. 5462.32   1
   5  -4  -8 195732. 4882.49   1
   4  -5   8 204184. 5552.16   2
   1  -5   8 188404. 5399.85   1
   1   4   8 190791. 5352.03   2
   4  -5   8 190271. 5547.21   1
   4   1   7 30947.8 1892.23   1
   1   4   7 29684.3 1839.82   2
   1   4   7 27926.2 1829.72   1
   1  -5   7 30077.0 1877.57   1
  -5   4   7 29569.2 1619.70   1
  -4  -1  -7 27076.5 1738.67   1
  -1  -4  -7 31876.0 1911.71   1
  -4   5  -7 30650.7 1960.50   1
   4   1   7 28370.3 1812.88   2
   4  -5   7 29180.2 1932.53   1
   5  -4  -7 31423.5 1604.73   1
  -1   5  -7 29688.0 1839.45   1
   4  -5   7 32336.7 1995.51   2
   4   1   6 59162.9 2583.38   1
  -4  -1  -6 57820.0 2527.81   1
  -4   5  -6 55268.5 2605.68   1
   1   4   6 53977.6 2421.85   2
  -1   5  -6 52889.5 2468.61   1
   4  -5   6 55283.0 2570.15   2
   4   1   6 48489.0 2364.54   2
   4  -5   6 62546.6 2768.88   1
  -1  -4  -6 51731.0 2468.07   1
   1   4   6 58387.7 2546.33   1
  -5   4   6 51824.0 2150.92   1
   1  -5   6 58765.6 2607.46   1
  -1  -4  -5 4116.99 650.464   1
   4  -5   5 2977.66 638.568   1
  -4  -1  -5 3713.22 580.533   1
   4   1   5 3341.62 604.564   1
   1   4   5 3506.62 615.258   1
   1   4   5 4154.36 606.539   2
   5  -4  -5 4875.45 630.910   1
  -5   4   5 3691.94 518.918   1
   4   1   5 3708.51 603.045   2
   1  -5   5 5007.30 747.679   1
  -1   5  -5 3930.06 641.781   1
  -4   5  -5 4368.25 727.367   1
   1   4   4 379533. 7671.48   1
   5  -4  -4 323890. 6762.11   1
  -4  -1  -4 343363. 7213.45   1
   4  -5   4 331923. 7620.19   1
  -5   4   4 344491. 6977.45   1
   1  -5   4 327460. 7416.79   1
  -1   5  -4 351635. 7565.56   1
   4   1   4 355232. 7434.43   2
  -4   5  -4 364132. 7872.83   1
  -1  -4  -4 384957. 7668.43   1
   4   1   4 368821. 7346.05   1
   1  -5   3 5088.99 677.628   1
   1   4   3 5271.29 692.504   1
   4   1   3 5650.78 706.745   2
   5  -4  -3 6605.37 701.018   1
   4  -5   3 5601.40 810.162   1
  -4  -1  -3 5756.50 669.324   1
  -1  -4  -3 6626.46 807.071   1
   1   4   3 6909.24 744.716   2
  -5   4   3 6256.48 677.971   1
   5  -1  -3 6673.24 679.425   2
  -1   5  -3 6123.32 778.666   1
  -4   5  -3 6547.57 851.465   1
   4   1   3 5682.14 672.569   1
  -1  -4  -2 59481.6 2419.13   1
   4  -5   2 58346.1 2472.25   1
  -5   4   2 64468.6 2345.48   1
   4   1   2 62897.7 2177.69   1
   1   4   2 62126.5 2436.27   1
   5  -1  -2 63562.0 2241.35   2
  -1   5  -2 61644.4 2519.27   1
   1  -5   2 57339.7 2453.01   1
  -4   5  -2 59542.5 2529.55   1
   4   1   2 61546.9 2338.31   2
  -4  -1  -2 63942.9 2213.88   1
   1   4   2 62981.3 2346.00   2
   5  -4  -2 62283.0 2231.89   1
   5  -1  -1 18417.4 718.092   1
   4   1   1 16910.5 992.625   1
  -4  -1  -1 18308.6 1021.88   1
  -1   5  -1 20805.0 1400.07   1
   1   4   1 18113.7 1263.56   1
   4  -5   1 18477.7 1271.00   1
  -4   5  -1 17253.8 1322.10   1
   1  -5   1 19992.3 1418.58   1
  -5   4   1 14207.7 1080.95   1
   1   4   1 16742.9 1153.18   2
  -1  -4  -1 18638.4 1279.06   1
   5  -1  -1 14718.8 1168.96   2
   4   1   1 17432.0 1146.50   2
   5  -4  -1 17607.7 1127.42   1
  -5   1   1 15592.8 704.684   1
   5  -1   1 1533.86 321.841   1
   5  -4   1 1420.70 390.827   1
   4   1  -1 1396.66 236.314   1
   4  -5  -1 1820.71 515.961   1
   1   4  -1 1815.28 388.012   1
   1  -5  -1 1218.80 396.540   1
  -5   4  -1 1927.25 450.862   1
   5  -4   1 2310.80 628.836   2
   5  -1   1 1298.82 363.326   2
  -4  -1   1 1446.43 255.164   1
   4   1  -1 1677.03 369.766   2
  -5   1  -1 1515.25 332.689   1
   1   4  -1 1295.63 354.695   2
  -4   5   1 2213.04 517.247   1
  -1  -4   1 725.713 306.148   1
  -1   5   1 1559.83 498.698   1
   5  -1   2 59616.0 2055.44   1
   1  -5  -2 55248.7 2405.24   1
  -1  -4   2 57314.4 2277.84   1
   4  -5  -2 58489.7 2397.82   1
  -4  -1   2 51049.4 1347.96   1
   4   1  -2 61001.1 1962.64   2
  -1   5   2 59545.0 2478.18   1
   5  -4   2 50254.3 2175.24   1
  -5   4  -2 58789.3 2379.09   1
   4   1  -2 55203.5 1335.92   1
   1   4  -2 56746.0 2198.24   1
  -4   5   2 56047.4 2366.92   1
   5  -4   2 61843.3 2602.53   2
   5  -1   2 55944.8 2320.23   2
   1   4  -2 57747.9 2000.49   2
  -5   1  -2 57372.8 2027.88   1
   5  -1   3 6624.22 693.070   1
  -5   1  -3 6076.39 667.278   1
   5  -4   3 6564.50 763.196   1
  -1  -4   3 7445.58 816.420   1
  -4   5   3 5845.01 692.838   1
   1   4  -3 5932.56 692.040   1
   4   1  -3 6393.72 560.109   2
   5  -1   3 6950.18 803.331   2
   4  -5  -3 8767.54 919.566   1
   1   4  -3 4740.09 580.094   2
  -5   4  -3 6318.17 768.476   1
   5  -4   3 5136.63 743.248   2
  -1   5   3 6611.06 830.363   1
   1  -5  -3 8249.12 891.437   1
   4  -5  -4 355900. 7218.05   1
  -1  -4   4 301591. 6715.96   1
  -5   1  -4 320025. 6851.73   1
  -1   5   4 347525. 7465.40   1
  -4   5   4 337064. 7224.06   1
  -5   4  -4 298601. 7070.60   1
   5  -4   4 312085. 7121.88   1
   5  -1   4 326653. 6887.64   1
   5  -1   4 340434. 7271.70   2
   1  -5  -4 330229. 7279.57   1
   5  -4   4 361874. 7634.49   2
   1   4  -4 321617. 6770.86   1
  -5   1  -5 27430.1 1704.09   1
   5  -4   5 29645.4 1872.74   2
  -1   5   5 30103.6 1816.68   1
  -1  -4   5 29366.3 1627.21   1
   5  -4   5 28999.8 1781.17   1
  -4   5   5 29147.0 1722.37   1
   1   4  -5 28538.2 1566.37   1
   4   1  -5 28456.4 1012.81   2
   5  -1   5 28529.0 1672.03   1
   1  -5  -5 29229.6 1817.84   1
   5  -1   5 27740.6 1760.69   2
  -5   4  -5 28720.6 1791.46   1
   1   4  -5 27808.3 1226.84   2
  -1   5   5 31043.7 1795.01   2
   4  -5  -5 32075.3 1746.50   1
  -5   4  -6 3327.42 633.270   1
   5  -1   6 3871.74 744.624   1
   1  -5  -6 4216.88 706.783   1
  -5   1  -6 3084.26 576.048   1
   4  -5  -6 3960.82 655.490   1
   5  -4   6 1778.81 429.258   1
  -1   5   6 4629.84 658.609   1
  -1  -4   6 2429.41 515.307   1
   5  -4   6 5776.79 855.515   2
   5  -1   6 4246.27 798.581   2
   1   4  -6 4065.38 600.713   1
  -4   5   6 3631.46 680.447   1
   1   4  -6 3619.17 429.742   2
  -1   5   6 4484.61 700.636   2
   5  -1   7 8627.13 992.012   1
  -1  -4   7 8606.66 942.552   1
  -5   1  -7 8210.67 1013.94   1
   4  -5  -7 6928.68 878.755   1
  -5   4  -7 8504.99 1042.49   1
   1  -5  -7 8989.75 1034.17   1
  -1   5   7 8170.24 1002.84   1
  -4   5   7 8362.82 965.953   1
   5  -4   7 8097.43 1006.55   1
  -1   5   7 10523.2 1066.60   2
   1   4  -7 9667.61 970.610   1
   5  -4   7 9945.86 1109.51   2
   5  -1   7 8197.97 987.890   2
   5  -1   8 148162. 4714.93   1
  -4   5   8 151396. 4552.66   1
  -1  -4   8 140396. 4269.18   1
  -1   5   8 152385. 4742.99   1
   5  -1   8 150935. 4722.43   2
   1  -5  -8 153429. 4687.58   1
  -5   4  -8 148212. 4731.21   1
   5  -4   8 137711. 4647.31   1
   4  -5  -8 142906. 4371.38   1
   1   4  -8 172056. 4559.77   1
  -5   1  -8 143014. 4623.06   1
   5  -4   8 153541. 4834.51   2
  -1   5   8 158766. 4675.33   2
   1  -5  -9 3324.51 667.003   1
   4  -5  -9 3792.74 656.963   1
   5  -4   9 3794.24 734.976   2
  -5   4  -9 3701.13 716.911   1
   5  -1   9 3489.27 781.795   1
  -5   1  -9 3622.50 681.044   1
  -1   5   9 3718.73 729.801   1
  -1   5   9 3647.98 672.184   2
  -4   5   9 3830.15 692.629   1
  -1  -4   9 3191.85 635.143   1
   1   4  -9 4078.01 676.646   1
   5  -1   9 4118.25 733.803   2
   5  -4   9 3675.33 784.560   1
  -4   5  10 2405.89 568.196   1
   4  -5 -10 2514.09 582.499   1
  -5   4 -10 2321.17 667.047   1
   5  -1  10 2108.78 621.835   1
   1   4 -10 2593.50 613.870   1
  -5   1 -10 2841.05 691.406   1
   5  -1  10 2921.75 723.145   2
  -1  -4  10 3158.97 620.278   1
   5  -4  10 3167.64 704.988   2
  -1   5  10 2932.94 662.807   2
  -1   5  10 3107.49 684.913   1
  -4   5  10 3115.20 556.958   2
   1  -5 -10 3085.31 696.644   1
   5  -1  11 2933.55 688.118   2
   5  -1  11 2208.40 595.933   1
   5  -4  11 2975.04 751.920   1
   4  -5 -11 4033.48 755.861   1
  -1   5  11 3722.94 776.468   1
  -5   1 -11 3462.77 750.428   1
  -4   5  11 2826.87 597.058   1
  -1   5  11 2980.04 642.068   2
  -5   4 -11 4082.60 844.915   1
   5  -4  11 2427.39 630.479   2
  -1  -4  11 4357.65 773.227   1
   1  -5 -11 3658.27 741.196   1
  -4   5  11 3563.78 705.793   2
   1   4 -11 2213.50 574.472   1
  -5   1 -12 796234. 15338.7   1
   5  -1  12 769221. 15103.8   2
  -4   5  12 778387. 15011.0   1
   1  -5 -12 766016. 14981.0   1
  -5   4 -12 767178. 15333.8   1
   5  -4  12 790033. 15323.5   2
  -1   5  12 767753. 15217.3   1
   5  -1  12 815675. 15619.9   1
  -1  -4  12 809084. 14997.3   1
  -1   5  12 823101. 15185.3   2
   5  -4  12 766768. 15465.0   1
   1   4 -13 401.214 369.195   1
   5  -1  13-13.4021 335.173   1
  -5   4 -13 123.700 393.344   1
   5  -4  13 77.5239 367.876   2
  -1   5  13 1639.19 579.767   1
  -4   5  13 939.892 431.777   1
  -1   5  13 1390.97 581.147   2
  -5   1 -13 774.099 443.688   1
  -1  -4  13 572.828 356.096   1
   4  -5 -13 786.035 427.574   1
   5  -4  13 798.608 564.376   1
   1  -5 -13 387.044 305.738   1
   5  -1  13 331.240 454.901   2
  -4   5  13 591.892 483.485   2
   1   4 -14 585.482 363.132   1
   5  -4  14 130.593 379.781   1
   5  -1  14 266.165 437.167   1
  -5   4 -14 850.760 351.193   1
  -5   1 -14 848.787 458.376   1
  -4   5  14 797.665 480.607   1
  -1  -4  14 933.720 395.847   1
   1  -5 -14 637.863 359.021   1
  -1   5  14 414.755 410.902   1
  -4   5  14 230.939 369.712   2
  -1   5  14 838.470 511.719   2
   4  -5 -14 534.089 272.940   1
   5  -4  14 844.330 478.994   2
   5  -1  14 883.347 504.770   2
   5  -4  15 728.114 463.056   1
   5  -1  15 570.784 509.544   1
   5  -4  15 516.594 431.330   2
  -1   5  15 539.699 445.201   2
  -4   5  15 606.031 432.244   1
   5  -1  15 569.168 489.406   2
  -5   1 -15 327.980 392.750   1
  -4   5  15 112.742 286.546   2
  -1   5  15 1210.44 660.946   1
   1  -5 -15 579.557 339.877   1
  -5   4 -15-69.2053 516.873   1
   4  -5 -15 986.236 459.802   1
  -5   1 -16 56791.6 3243.57   1
  -5   4 -16 54614.3 3219.09   1
  -4   5  16 52662.4 3185.33   1
   1  -5 -16 62576.1 3305.27   1
   5  -1  16 60102.9 3381.75   1
  -1   5  16 61732.6 3338.45   1
   5  -4  16 56554.0 3338.06   2
   5  -1  16 58464.6 3239.69   2
  -1   5  16 61142.2 3348.05   2
   5  -4  16 55988.8 3327.51   1
   4  -5 -16 51131.9 3013.95   1
   5  -4  17 214.725 315.487   2
  -1   5  17 1197.65 566.870   1
   5  -1  17 1523.41 615.899   1
  -4   5  17 1553.04 574.911   1
   5  -4  17 1265.60 433.826   1
   4  -5 -17 1905.42 678.238   1
   1  -5 -17 1165.71 431.376   1
   5  -1  17 1909.65 699.328   2
  -5   4 -17-275.654 394.600   1
  -5   1 -17 1768.32 512.657   1
  -1   5  17 1821.76 661.254   2
  -5   4 -18 1300.49 575.667   1
   5  -1  18 540.936 450.453   1
  -4   5  18 1001.13 686.784   1
  -1   5  18 491.251 391.062   2
  -1   5  18 627.302 584.565   1
   1  -5 -18 1319.01 555.961   1
   5  -1  18 1420.81 543.813   2
  -5   1 -18 760.195 523.724   1
   5  -1  19 2420.16 872.877   1
  -5   4 -19 1580.31 662.047   1
  -1   5  19 1358.53 572.770   1
  -5   1 -19 2410.46 786.931   1
   1  -5 -19 1869.14 652.036   1
   5  -1  19 1784.81 574.456   2
  -1   5  19 981.444 590.055   2
   5  -1  20 84927.0 4417.55   2
   0   5   0 157945. 4214.49   2
  -5   0   0 148649. 3266.30   1
   0  -5   0 153725. 4368.82   1
   5  -5   0 144122. 4135.47   1
   0   5   0 147957. 4283.59   1
   5   0   0 157736. 4078.73   2
  -5   5   0 148246. 4258.98   1
   5   0   0 166691. 3342.33   1
   5   0   1 389731. 6950.83   1
   5  -5   1 393897. 7979.92   1
   0  -5   1 343616. 7819.91   1
   5   0   1 365996. 7636.15   2
   0   5   1 366614. 7938.83   1
  -5   5   1 366944. 7826.44   1
  -5   5  -1 402042. 8135.94   1
   5  -5  -1 377958. 7780.91   1
   0   5  -1 396134. 8014.93   1
   0   5   1 381673. 7780.85   2
   0  -5  -1 389729. 8066.22   1
   5   0   3 200148. 4838.36   1
  -5   5   3 209817. 5162.67   1
  -5   0  -3 191404. 4810.99   1
   5  -5  -3 208112. 5127.43   1
   5  -5   3 204629. 5375.60   1
   0   5   3 205898. 5410.67   1
   0  -5   3 200777. 5237.22   1
   0   5   3 204687. 5182.18   2
   0   5  -3 208610. 5255.10   1
  -5   5  -3 207558. 5425.80   1
   5   0   3 203025. 5259.87   2
   0  -5  -3 210771. 5395.40   1
   5   0  -3 216843. 4676.24   2
   5   0   4 22851.8 1436.80   1
  -5   0  -4 24585.9 1499.56   1
   0   5   4 21786.1 1571.10   1
   5   0  -4 25226.7 1263.54   2
  -5   5   4 23634.7 1527.15   1
   5  -5   4 22207.0 1552.02   1
   5   0   4 23387.2 1586.11   2
  -5   5  -4 22701.4 1606.06   1
   0  -5   4 22014.1 1509.41   1
   0   5  -4 25061.3 1574.32   1
   5  -5   4 25251.8 1713.06   2
   0   5   4 24128.3 1526.48   2
   0  -5  -4 22306.1 1567.29   1
   5  -5  -4 21016.7 1395.17   1
   5   0   5 11665.9 1100.37   1
   0  -5  -5 12254.5 1209.53   1
  -5   0  -5 11414.4 1125.76   1
   0   5  -5 12456.2 1132.91   1
   0   5   5 15356.7 1269.14   1
   5  -5   5 14752.1 1320.95   1
  -5   5   5 12872.2 1090.14   1
   5   0   5 9997.46 1062.73   2
   0   5   5 10796.1 1059.54   2
  -5   5  -5 12686.0 1206.43   1
   0  -5   5 13276.6 1174.21   1
   5  -5   5 10068.9 1152.05   2
   5  -5  -5 15006.0 1147.74   1
  -5   5  -6 1171.38 411.758   1
   5   0   6 896.318 288.915   1
   0  -5  -6 1742.81 529.687   1
   5   0   6 847.457 444.737   2
   5  -5  -6 1170.15 313.363   1
   0   5   6 1675.89 528.273   1
   0  -5   6 1003.35 389.664   1
   5  -5   6 1411.80 349.716   2
  -5   0  -6 1045.33 439.222   1
  -5   5   6 1119.81 402.729   1
   0   5  -6 1383.40 405.004   1
   0   5   6 1283.93 423.150   2
   5  -5   6 1632.25 452.382   1
   0  -5  -7 530.885 352.767   1
   5  -5   7 384.769 266.681   2
   5   0   7 474.206 352.046   1
   5  -5   7 880.704 384.475   1
   0  -5   7 985.058 406.172   1
  -5   5  -7 150.749 268.655   1
  -5   0  -7 590.701 260.383   1
  -5   5   7 518.285 263.788   1
   0   5   7 721.427 426.882   1
   5   0   7 833.830 458.264   2
   5  -5  -7 693.187 316.359   1
   0   5  -7 626.181 255.481   1
   0   5   7 19.6241 336.596   2
   0   5   8-84.8332 297.687   1
   0  -5   8 297.579 377.029   1
   0  -5  -8 334.376 295.088   1
  -5   5  -8 589.535 380.050   1
   5   0   8 145.227 275.049   1
   5  -5  -8 416.435 314.440   1
   5  -5   8 329.546 366.505   2
  -5   5   8 95.3753 235.565   1
  -5   0  -8-176.746 272.062   1
   0   5   8 15.5316 240.621   2
   0   5  -8-212.186 286.879   1
   5   0   8 141.162 312.985   2
   5  -5   8-85.6717 330.745   1
   5   0   9 78424.9 3424.34   1
  -5   5  -9 74981.8 3349.86   1
  -5   0  -9 82341.1 3455.98   1
   0   5   9 79092.3 3362.33   1
   0  -5   9 78822.8 3263.59   1
  -5   5   9 71354.9 3029.22   1
   5  -5   9 77753.5 3380.77   2
   5  -5   9 79661.1 3478.76   1
   5   0   9 73319.0 3292.66   2
   0  -5  -9 79772.4 3339.85   1
   5  -5  -9 80936.8 3097.04   1
   0   5  -9 78570.8 3233.30   1
   0   5   9 78056.2 3179.65   2
   5   0  10 386012. 9129.28   1
   5   0  10 399957. 9132.78   2
   0   5  10 393659. 9125.13   1
  -5   5  10 422657. 8854.97   1
   0  -5  10 389758. 8909.78   1
  -5   5 -10 392626. 9223.77   1
   5  -5 -10 352386. 8340.62   1
   5  -5  10 396609. 9249.76   1
   0  -5 -10 395265. 8993.29   1
  -5   0 -10 381621. 9078.98   1
   0   5 -10 411889. 8989.48   1
   0   5  10 388159. 8874.27   2
   5  -5  10 387109. 9127.39   2
   5  -5  11 185186. 5884.03   2
   5   0  11 203652. 6026.94   2
  -5   0 -11 196279. 6001.69   1
   0   5  11 199924. 6046.84   1
  -5   5  11 180748. 5562.19   1
   0  -5  11 207029. 6004.46   1
  -5   5  11 206942. 6127.10   2
   0  -5 -11 195244. 5879.38   1
   5  -5  11 210068. 6255.50   1
   5  -5 -11 203678. 5627.78   1
  -5   5 -11 197375. 6048.50   1
   0   5  11 193743. 5851.52   2
   0   5 -11 202135. 5879.93   1
   5   0  11 206556. 6146.49   1
   5  -5  12 101335. 4209.13   1
  -5   0 -12 99553.1 4138.99   1
   0   5  12 97732.5 4086.28   1
  -5   5  12 101732. 3982.61   1
   5   0  12 99902.7 4187.24   1
  -5   5  12 86753.4 3720.16   2
   0  -5 -12 99311.8 4010.28   1
   5  -5 -12 112102. 3981.15   1
   5  -5  12 94348.8 4041.91   2
   0  -5  12 94351.0 3969.63   1
   5   0  12 98565.8 4076.40   2
   0   5  12 93830.3 3901.39   2
  -5   5 -12 103605. 4208.48   1
   0   5 -12 106590. 4156.46   1
   5   0  13 94760.8 4141.98   1
  -5   0 -13 99871.3 4172.50   1
  -5   5 -13 100001. 4217.26   1
   0   5  13 100706. 4244.61   1
  -5   5  13 103797. 4085.51   1
   5  -5  13 93647.2 4094.74   2
   5   0  13 95673.5 4022.69   2
   0  -5 -13 106307. 4204.17   1
   5  -5 -13 99329.1 3935.46   1
  -5   5  13 86546.9 3782.86   2
   0   5 -13 93388.1 4028.18   1
   0  -5  13 98124.7 4110.95   1
   0   5  13 95784.0 3965.08   2
   5  -5  13 94057.3 4170.28   1
  -5   0 -14 263666. 7479.22   1
   5   0  14 251170. 7376.20   2
   5  -5 -14 266274. 7208.91   1
   0  -5 -14 265484. 7352.13   1
   5  -5  14 261739. 7600.67   2
   0   5  14 256735. 7487.53   1
   5   0  14 251970. 7580.68   1
  -5   5 -14 262802. 7567.17   1
   0   5  14 255789. 7204.72   2
  -5   5  14 270847. 7455.75   1
   5  -5  14 264532. 7652.05   1
   0  -5  14 278187. 7641.78   1
   0   5 -14 271943. 7563.03   1
   5   0  15 15545.6 1662.62   1
  -5   0 -15 14181.1 1552.07   1
   0   5  15 16190.3 1704.36   1
   0  -5 -15 14344.1 1548.57   1
   0   5 -15 14824.3 1605.58   1
   0  -5  15 14701.2 1609.31   1
  -5   5  15 13627.3 1545.67   1
   5  -5  15 15025.9 1613.39   2
  -5   5 -15 13005.8 1544.47   1
   0   5  15 13773.7 1499.18   2
   5   0  15 13747.2 1573.14   2
   5  -5  15 13430.5 1637.19   1
  -5   5 -16 7677.95 1288.21   1
   5   0  16 7269.09 1178.19   1
   0   5  16 7358.50 1196.46   1
  -5   0 -16 6381.49 1065.15   1
   5   0  16 4973.91 919.162   2
   5  -5  16 6571.37 1111.65   2
   0  -5  16 6639.83 1127.61   1
   5  -5  16 7114.89 1183.31   1
   0   5  16 6859.53 1077.18   2
   0  -5 -16 7591.71 1163.20   1
  -5   5 -17 4555.54 987.714   1
   5   0  17 5808.99 1162.60   1
   0   5  17 5509.53 1023.09   1
  -5   0 -17 4996.79 1072.53   1
   5  -5  17 3961.45 933.432   1
   0  -5 -17 4927.73 952.210   1
   0   5  17 6180.91 1144.53   2
   5   0  17 4125.97 918.520   2
   0  -5 -18 6155.46 1069.25   1
   5   0  18 5240.02 1052.57   1
  -5   0 -18 6359.87 1083.84   1
   0   5  18 6295.73 1101.30   1
   0   5  18 5316.50 1104.48   2
   5   0  18 6180.73 1127.61   2
   5  -5  18 6010.20 1089.50   1
  -5   5 -18 4035.43 898.128   1
   5   0  19 8577.91 1295.82   2
  -5   5 -19 11156.4 1515.32   1
   5  -5  19 8566.81 1327.65   1
   0   5  19 9044.12 1387.87   1
  -5   0 -19 8751.60 1300.89   1
   0  -5 -19 10799.5 1409.49   1
   0   5  19 8369.14 1407.30   2
   5   0  19 11268.0 1599.98   1
   0   5  20 2037.14 674.962   2
   5   0  20 559.091 473.230   2
  -3   6 -19 368.384 398.254   1
   3  -6  19-35.2242 496.051   1
   3   3  19-451.057 471.614   2
   3  -6  18 524.637 337.775   1
  -3   6 -18 116.809 553.320   1
  -3  -3 -18-305.671 511.692   1
   3   3  18 233.615 349.440   1
   3   3  18 636.647 449.470   2
   3  -6  17 62.5670 324.000   1
  -3   6 -17-24.6608 331.966   1
   3   3  17-684.366 596.442   1
   3   3  17-500.289 562.220   2
  -3  -3 -17 340.843 430.275   1
   3   3  16 83443.1 3951.45   2
   3   3  16 91489.2 4244.39   1
  -3  -3 -16 87764.4 3998.34   1
  -3   6 -16 91981.2 4214.32   1
   3  -6  16 81842.7 4062.80   1
   3  -6  15-402.421 329.198   1
  -3   6 -15 639.123 395.166   1
   3   3  15 636.869 592.682   1
  -3  -3 -15-243.035 403.661   1
   3   3  15 96.4811 453.626   2
   3   3  14 78781.5 3845.80   1
  -3  -3 -14 76151.0 3623.59   1
   3  -6  14 79504.9 3783.71   1
  -3   6 -14 75119.4 3708.33   1
   3   3  14 75661.3 3607.41   2
  -3   6 -13-68.1021 297.472   1
   3   3  13 563.085 464.211   1
  -3  -3 -13 597.040 526.998   1
   3  -6  13 671.737 576.818   1
   3   3  13 600.299 495.478   2
   3   3  12 249419. 7139.13   1
  -3  -3 -12 246670. 7014.39   1
   3   3  12 257373. 6940.22   2
  -3   6 -12 252626. 7097.48   1
   3  -6  12 245954. 7028.95   1
  -3  -3 -11 73.9000 269.546   1
  -3   6 -11-160.294 352.408   1
   3   3  11 316.828 340.598   1
   3  -6  11-299.363 337.241   1
   3   3  11-199.495 298.487   2
   3   3  10 275916. 7078.95   2
   3   3  10 270701. 7207.31   1
  -3  -3 -10 269628. 7184.60   1
   3  -6  10 267640. 7245.88   1
  -3   6 -10 294093. 7452.60   1
   3   3   9-187.739 315.207   1
   3  -6   9 217.678 388.761   1
   3   3   9 28.0254 320.315   2
  -3  -3  -9 332.850 319.341   1
  -3   6  -9 145.736 268.277   1
  -3   6  -8 316038. 7760.49   1
   3  -6   8 297389. 7669.60   1
   3   3   8 332823. 7621.60   2
  -3  -3  -8 309310. 7582.26   1
   3   3   8 336021. 7810.03   1
   3  -6   7 993.473 547.838   1
   3   3   7 144.011 321.583   1
  -3  -3  -7 180.207 310.626   1
  -3   6  -7 66.5756 344.430   1
   3   3   7 254.718 366.902   2
   3   3   6 27850.0 1805.29   1
  -6   3   6 26319.2 1189.66   1
  -3  -3  -6 25006.8 1702.97   1
  -3   6  -6 24130.1 1781.07   1
   3   3   6 28014.6 1768.84   2
   6  -3  -5 329.139 164.462   1
   3   3   5 96.2977 302.197   2
   3   3   5 540.120 241.496   1
  -6   3   5 654.257 200.108   1
  -3  -3  -5 611.715 352.752   1
  -3   6  -5 334.972 350.813   1
   3  -6   5 773.531 435.005   1
  -3  -3  -3 1314.02 423.054   1
   3   3   3 851.973 335.137   1
   3  -6   3 882.113 393.954   1
  -6   3   3 1157.93 288.536   1
  -3   6  -3 651.545 374.171   1
   3   3   3 724.576 404.619   2
   6  -3  -3 1292.26 296.182   1
   3   3   2 172694. 4356.78   1
   6  -3  -2 169101. 3777.72   1
   3   3   2 175406. 4540.16   2
  -6   3   2 179231. 3897.03   1
  -3   6  -2 173598. 4903.41   1
  -3  -3  -2 162195. 4330.51   1
   3  -6   2 168448. 4869.13   1
   6  -3  -1 490.452 222.400   1
   3   3   1 716.120 368.820   2
  -3   6  -1 458.467 325.354   1
   6  -3  -1 525.571 311.360   2
   3  -6   1 910.012 385.764   1
  -6   3   1 408.702 237.893   1
  -3  -3  -1 41.3527 182.874   1
   3   3   1 173.174 308.050   1
   6  -3   0 60840.4 2146.76   1
   6  -3   0 66712.3 2758.78   2
   3   3   0 69462.7 2338.13   1
   3  -6   0 70575.4 2859.09   1
  -3   6   0 66571.7 2797.52   1
  -6   3   0 64584.7 2283.95   1
   3   3   0 66240.1 2377.44   2
  -3  -3   0 60310.6 2246.13   1
  -3  -3   1-165.105 201.463   1
   3   3  -1 160.771 161.110   1
   6  -3   1-104.565 197.651   1
  -6   3  -1-104.609 179.896   1
  -3   6   1-27.0334 297.452   1
   6  -3   1 46.8879 213.730   2
   3   3  -1 97.7965 162.918   2
  -3  -3   2 189400. 4250.87   1
   6  -3   2 183228. 5092.37   2
   3  -6  -2 179760. 5045.36   1
   3   3  -2 175261. 4131.99   1
   6  -3   2 192768. 4633.09   1
  -3   6   2 184397. 5129.19   1
   3   3  -2 178243. 4187.44   2
  -6   3  -2 185042. 4667.26   1
  -3   6   3 133.551 254.662   1
  -3  -3   3-86.0989 184.717   1
   3   3  -3 161.542 167.727   1
  -6   3  -3 114.715 255.454   1
   6  -3   3-33.7753 197.402   1
   3  -6  -3 176.178 294.001   1
   3   3  -3-90.7531 139.050   2
   6  -3   3-319.769 312.055   2
  -3  -3   5 295.275 223.752   1
  -3   6   5 403.796 331.219   1
   3  -6  -5 148.933 287.403   1
   6  -3   5 878.491 383.818   2
   3   3  -5 584.260 208.644   1
  -6   3  -5-271.253 313.063   1
  -6   3  -6 88426.1 3450.47   1
   6  -3   6 91980.9 3451.19   1
  -3   6   6 94937.2 3633.47   1
  -3  -3   6 110309. 2998.60   1
   3   3  -6 87471.4 2675.84   1
   6  -3   6 87272.5 3545.15   2
   3  -6  -6 103522. 3686.23   1
   6  -3   7-246.388 341.858   1
  -3  -3   7 444.515 212.412   1
  -6   3  -7-190.173 303.512   1
  -3   6   7 448.605 489.024   1
   6  -3   7 317.763 439.712   2
   3  -6  -7 79.9183 279.238   1
  -3   6   8 634167. 12459.8   2
   6  -3   8 640507. 12630.0   2
  -6   3  -8 617229. 12374.7   1
   3  -6  -8 643670. 12291.7   1
   6  -3   8 637436. 12566.0   1
  -3   6   9 880.601 506.207   2
   3  -6  -9 720.680 402.774   1
  -6   3  -9 690.888 420.284   1
  -3   6   9 263.659 470.170   1
   6  -3   9 204.648 465.026   2
   6  -3   9 432.382 404.109   1
  -3   6  10 290151. 7477.29   1
   6  -3  10 298979. 7695.28   2
  -6   3 -10 282273. 7629.82   1
  -3   6  10 312547. 7630.95   2
   3  -6 -10 305871. 7566.12   1
   6  -3  10 300482. 7851.56   1
  -3   6  11 1220.35 581.256   2
   6  -3  11 288.179 383.432   1
  -6   3 -11 251.597 340.354   1
  -3   6  11 897.412 405.159   1
   6  -3  11 446.744 387.025   2
   3  -6 -11 971.339 458.328   1
  -3   6  12 68903.4 3338.32   1
   3  -6 -12 66966.7 3216.93   1
  -3   6  12 72347.9 3308.00   2
  -6   3 -12 65834.0 3375.77   1
   6  -3  12 69120.0 3469.08   2
   6  -3  12 67388.9 3440.93   1
   6  -3  13 180.893 398.388   1
   6  -3  13 74.3126 315.481   2
  -3   6  13 273.187 344.899   1
  -6   3 -13-251.501 340.383   1
   3  -6 -13 387.012 321.373   1
  -3   6  13 100.267 281.466   2
   6  -3  14 149640. 5527.75   2
  -3   6  14 150805. 5404.83   1
  -6   3 -14 145642. 5374.64   1
  -3   6  14 150425. 5300.10   2
   6  -3  14 152961. 5668.17   1
   6  -3  15-112.508 376.816   1
  -3   6  15 86.8644 349.734   1
   3  -6 -15-327.403 397.622   1
  -3   6  15 352.308 389.095   2
  -6   3 -15 822.133 537.235   1
   6  -3  15 180.979 368.072   2
  -3   6  16 263308. 7661.67   1
   6  -3  16 242898. 7668.27   2
   3  -6 -16 262807. 7485.90   1
  -6   3 -16 254861. 7560.41   1
  -3   6  16 251789. 7597.04   2
   6  -3  16 247325. 7741.43   1
   6  -3  17 115.779 525.832   1
  -6   3 -17-487.055 403.835   1
  -3   6  17 219.765 439.390   1
   6  -3  17 449.634 507.935   2
   3  -6 -17 148.975 444.370   1
  -3   6  17-149.601 297.030   2
   6  -3  18 3040.50 744.115   1
   3  -6 -18 4516.01 951.939   1
  -6   3 -18 4362.42 881.716   1
  -3   6  18 5607.37 1068.93   1
   6  -3  18 4169.51 904.073   2
   3  -6 -19-110.247 296.339   1
   6  -3  19 56.3118 459.682   2
  -3   6  19 420.953 394.849   1
   4   2  19 16734.8 1885.79   2
   2  -6  19 13963.2 1772.60   1
   2   4  19 14155.2 1736.93   2
  -2   6 -19 14924.7 1799.75   1
  -4   6 -19 19685.7 1987.19   1
   4  -6  19 20532.6 2054.74   1
   4   2  18 50540.9 3142.82   2
   4   2  18 49644.9 3189.67   1
   2   4  18 54239.6 3265.08   1
  -4  -2 -18 52035.1 3135.53   1
  -2  -4 -18 53057.9 3086.59   1
   4  -6  18 50213.6 3242.95   1
   2  -6  18 42925.8 3029.03   1
  -2   6 -18 41636.4 2917.11   1
  -4   6 -18 49414.5 3188.62   1
   2   4  18 48027.5 3073.14   2
   4   2  17 36279.3 2716.88   1
   2   4  17 36032.5 2636.01   1
  -4  -2 -17 35357.5 2598.79   1
  -2  -4 -17 34591.8 2509.14   1
  -2   6 -17 29825.0 2398.48   1
   4   2  17 33219.0 2513.65   2
   2   4  17 29497.4 2371.86   2
   2  -6  17 30626.8 2547.94   1
  -4   6 -17 31920.7 2506.15   1
   4  -6  17 32182.0 2520.90   1
  -2   6 -16-296.913 389.242   1
  -4   6 -16-296.025 325.415   1
   4   2  16-120.096 511.012   1
   4  -6  16-601.967 622.949   1
   2   4  16 726.433 560.077   1
  -2  -4 -16 357.862 448.301   1
  -4  -2 -16-280.129 389.154   1
   4   2  16-495.089 371.449   2
   2  -6  16 471.046 404.633   1
   2   4  16 344.888 365.684   2
   4   2  15 41619.6 2759.59   1
   2   4  15 43776.2 2809.34   1
  -4  -2 -15 39495.5 2624.28   1
  -2  -4 -15 38341.2 2507.20   1
   4   2  15 38542.0 2584.39   2
   2  -6  15 41988.9 2801.66   1
  -4   6 -15 36468.9 2605.67   1
  -2   6 -15 38188.6 2651.90   1
   2   4  15 37498.8 2517.27   2
   4  -6  15 37384.7 2657.57   1
   2   4  14 90417.4 4095.48   1
  -4  -2 -14 89740.0 4043.26   1
  -4   6 -14 92907.9 4174.29   1
   2  -6  14 92456.4 4151.89   1
   4   2  14 97583.3 4260.45   1
   4   2  14 93453.5 4052.37   2
  -2   6 -14 105348. 4376.28   1
  -2  -4 -14 93521.2 4091.58   1
   4  -6  14 94518.4 4214.56   1
   2   4  14 87282.7 3884.90   2
   4   2  13 25141.4 2032.40   1
   4  -6  13 22044.7 1907.47   2
   2   4  13 24376.8 2025.96   1
   2  -6  13 24579.9 2007.70   1
  -4  -2 -13 25666.1 1976.48   1
  -2  -4 -13 22475.6 1949.69   1
  -2   6 -13 22505.7 1930.58   1
   4   2  13 24403.9 1957.87   2
  -4   6 -13 25678.5 2083.16   1
   2   4  13 23784.1 1941.91   2
   4  -6  13 23905.4 2018.41   1
   4   2  12 25644.8 2078.50   1
   2   4  12 24515.8 2034.18   1
  -4  -2 -12 26797.3 2044.12   1
  -2  -4 -12 24550.6 1978.05   1
   2  -6  12 25717.3 2067.33   1
   4   2  12 25409.2 1920.57   2
  -4   6 -12 26053.3 2062.50   1
   4  -6  12 25333.0 2064.86   1
   2   4  12 24381.1 1949.02   2
  -2   6 -12 28105.4 2124.33   1
   4  -6  12 24328.7 1936.12   2
   4   2  11 56406.3 3005.07   1
   4  -6  11 55042.4 2998.35   1
   2   4  11 54033.8 2940.85   1
  -4  -2 -11 52895.7 2850.63   1
  -2   6 -11 53834.8 2903.74   1
  -2  -4 -11 56057.0 2913.92   1
   2  -6  11 53954.9 2964.73   1
   4   2  11 51243.7 2786.02   2
  -4   6 -11 57044.6 3021.02   1
   2   4  11 52318.1 2752.95   2
   4   2  10 254373. 7105.46   1
  -4   6 -10 257733. 7084.24   1
  -2   6 -10 243917. 6850.69   1
  -4  -2 -10 263051. 6997.90   1
   2   4  10 265241. 6905.86   2
  -2  -4 -10 262667. 6999.38   1
   2  -6  10 260385. 7094.00   1
   4  -6  10 271677. 7196.67   1
   4   2  10 253970. 6881.87   2
   4   2   9 28706.5 1986.98   1
   4   2   9 29379.8 1940.22   2
   2   4   9 30151.6 2066.48   1
  -4  -2  -9 30506.0 2014.59   1
   2  -6   9 29984.9 2073.53   1
  -2  -4  -9 30764.4 2007.01   1
  -2   6  -9 30483.3 2084.52   1
  -4   6  -9 28391.1 2061.02   1
   2   4   9 29760.9 1988.73   2
   4  -6   9 27860.7 2020.47   1
  -2  -4  -8 120036. 4134.18   1
   4   2   8 104603. 3946.52   1
   2   4   8 116349. 4181.01   1
  -6   4   8 122622. 3588.37   1
   2  -6   8 119575. 4242.65   1
  -4  -2  -8 124685. 4221.59   1
   4  -6   8 118904. 4317.02   1
   6  -4  -8 111364. 3389.97   1
   4   2   8 117502. 4070.60   2
   2   4   8 110526. 4029.73   2
  -4   6  -8 106788. 4125.36   1
  -2   6  -8 110810. 4084.07   1
   4   2   7 17323.6 1454.96   1
   2  -6   7 19036.0 1579.26   1
   2   4   7 18296.2 1527.99   1
  -6   4   7 18925.9 1218.03   1
  -4  -2  -7 16248.9 1417.75   1
   2   4   7 17155.8 1435.63   2
   4  -6   7 18664.4 1584.95   1
  -2  -4  -7 16840.0 1416.29   1
   4   2   7 15580.7 1391.36   2
   6  -4  -7 16815.8 1140.46   1
  -2   6  -7 14428.3 1380.94   1
  -4   6  -7 16146.1 1454.11   1
   2  -6   6 239518. 6351.09   1
  -4   6  -6 255703. 6607.27   1
   2   4   6 243611. 6222.58   1
  -6   4   6 230872. 5380.70   1
   4  -6   6 238237. 6447.02   1
  -2  -4  -6 245014. 6232.61   1
   4   2   6 251704. 6227.51   2
   2   4   6 246478. 6195.10   2
   6  -4  -6 250739. 5414.44   1
  -4  -2  -6 236051. 6131.11   1
   4   2   6 265421. 6331.38   1
  -2   6  -6 250206. 6399.48   1
   4   2   5 373691. 8080.83   1
   4  -6   5 411310. 8730.11   1
   4   2   5 377204. 8227.61   2
   2   4   5 372959. 8177.21   1
  -2  -4  -5 356431. 8138.86   1
  -4  -2  -5 394053. 8225.76   1
  -2   6  -5 376205. 8456.55   1
  -4   6  -5 392231. 8593.73   1
   6  -4  -5 389492. 7356.30   1
   2   4   5 381761. 8233.59   2
   2  -6   5 385574. 8544.83   1
  -6   4   4 796.007 293.586   1
  -2  -4  -4 439.153 316.356   1
  -2   6  -4-123.483 335.318   1
  -4  -2  -4 480.739 264.258   1
   2  -6   4 346.192 255.768   1
   4   2   4 989.986 341.174   1
   2   4   4 430.597 284.807   1
   6  -4  -4 871.979 308.352   1
   4   2   4 398.811 235.299   2
  -4   6  -4 1282.03 524.082   1
   2   4   4 1000.05 461.528   2
   4  -6   4 363.069 254.483   1
   2  -6   3 405534. 8802.83   1
  -2  -4  -3 396320. 8392.21   1
  -4  -2  -3 384159. 8054.49   1
  -6   4   3 395245. 7787.03   1
  -4   6  -3 420550. 8977.09   1
   2   4   3 402762. 8372.98   2
   4  -6   3 404424. 8822.95   1
   2   4   2 348301. 7293.97   1
   2  -6   2 334241. 7606.40   1
  -4  -2  -2 318991. 6766.61   1
   6  -4  -2 343006. 6764.38   1
   6  -2  -2 345481. 7356.87   2
  -6   4   2 329167. 6759.40   1
  -2   6  -2 363920. 7774.69   1
  -4   6  -2 352365. 7754.77   1
   4   2   2 359966. 7287.25   2
  -2  -4  -2 321952. 7160.46   1
   4  -6   2 315530. 7501.67   1
   2   4   2 334908. 7206.27   2
   6  -4  -1 1239.50 348.468   1
   4   2   1 1723.12 341.068   1
   2  -6   1 1735.61 570.045   1
  -2  -4  -1 1576.59 488.396   1
   4  -6   1 1250.26 369.584   1
   2   4   1 1308.78 408.235   1
   6  -2  -1 1840.04 539.647   2
   2   4   1 1789.56 389.826   2
  -2   6  -1 1661.05 530.694   1
  -4   6  -1 1497.18 435.430   1
   6  -2  -1 1372.55 249.321   1
  -6   4   1 1368.03 406.042   1
   4   2   1 1751.39 417.718   2
  -6   2   1 1519.76 297.128   1
  -4  -2  -1 1912.43 388.526   1
   4  -6   0 6306.73 853.884   1
   6  -4   0 5402.58 633.909   1
   4   2   0 5245.04 565.786   1
   2  -6   0 5029.26 790.635   1
   2   4   0 6455.37 720.368   1
  -2   6   0 5889.59 799.917   1
   2   4   0 6323.48 732.100   2
  -4  -2   0 5077.02 566.053   1
  -2  -4   0 4641.53 649.946   1
   6  -2   0 5617.91 543.029   1
   6  -2   0 5467.65 745.420   2
  -6   2   0 5342.25 577.240   1
  -4   6   0 5779.47 779.722   1
  -6   4   0 5505.31 688.258   1
   6  -4   0 6145.42 884.345   2
   4   2   0 6262.61 699.766   2
   4   2  -1 28463.0 1477.60   2
  -2  -4   1 24161.4 1455.56   1
   6  -2   1 28573.6 1399.79   1
   6  -4   1 28886.9 1566.21   1
   4   2  -1 30358.9 1271.56   1
   2  -6  -1 26891.4 1754.80   1
   2   4  -1 30276.1 1590.01   1
   4  -6  -1 26526.4 1734.97   1
   6  -4   1 30309.6 1916.02   2
  -2   6   1 31295.3 1878.35   1
  -4   6   1 28256.0 1783.71   1
  -4  -2   1 29257.2 1293.98   1
  -6   4  -1 27718.3 1628.15   1
  -6   2  -1 27524.4 1403.75   1
   2   4  -1 29184.1 1545.74   2
   6  -2   1 28381.3 1733.50   2
  -2  -4   2 426463. 8328.23   1
   2  -6  -2 421191. 8992.99   1
   4  -6  -2 446974. 9052.89   1
  -2   6   2 454523. 9179.54   1
   6  -4   2 392684. 8359.03   1
  -4   6   2 407364. 8902.54   1
  -6   4  -2 415127. 8594.55   1
   6  -2   2 439101. 8912.91   2
   6  -4   2 453788. 9237.59   2
   2  -6  -3 159997. 4937.97   1
  -2  -4   3 182791. 4560.46   1
   4   2  -3 166232. 3455.50   1
  -6   2  -3 174956. 4545.25   1
   4   2  -3 176226. 3945.77   2
   6  -4   3 184429. 5217.02   2
  -2   6   3 174034. 5102.31   1
  -4   6   3 177603. 4982.66   1
   2   4  -3 178299. 4412.71   1
   6  -2   3 186563. 5105.96   2
   4  -6  -3 196354. 5171.65   1
  -4  -2   3 178442. 3567.42   1
  -6   4  -3 173562. 4813.94   1
   6  -4   3 171961. 4681.57   1
   2   4  -3 182014. 4160.17   2
   6  -2   3 180439. 4557.84   1
   4  -6  -4 368416. 7744.78   1
  -2   6   4 306915. 7611.02   1
  -4   6   4 325953. 7573.84   1
  -2  -4   4 323907. 6945.97   1
   6  -2   4 327851. 7233.68   1
   2   4  -4 366990. 7043.06   1
   6  -4   4 320150. 7700.50   2
   4   2  -4 330705. 6030.41   2
   6  -2   4 345059. 7693.96   2
  -6   4  -4 325608. 7441.56   1
   2   4  -4 324422. 6315.17   2
   6  -4   4 318476. 7280.00   1
  -6   2  -4 339947. 7265.21   1
   2  -6  -4 321929. 7656.46   1
   6  -4   5 79957.8 3124.14   1
  -2   6   5 71910.0 3133.57   1
  -4   6   5 79343.1 3185.20   1
  -6   4  -5 78549.1 3140.08   1
   2   4  -5 72607.8 2148.77   2
  -2  -4   5 85479.8 2904.17   1
   2  -6  -5 77591.8 3144.43   1
   2   4  -5 92192.3 2895.40   1
   6  -2   5 76896.1 3008.43   1
   6  -4   5 73058.8 3169.88   2
   6  -2   5 69880.5 3064.20   2
  -6   2  -5 75494.8 2983.07   1
   4  -6  -5 82972.5 3174.13   1
   6  -2   6 355126. 8059.13   1
   6  -2   6 351736. 8197.36   2
  -2  -4   6 359234. 7453.23   1
  -2   6   6 349538. 8166.96   1
  -4   6   6 376764. 8290.69   1
   6  -4   6 348078. 8054.95   1
   2   4  -6 377798. 7416.17   1
   6  -4   6 358562. 8301.54   2
   2  -6  -6 347156. 8105.49   1
  -6   4  -6 339848. 8065.78   1
   4  -6  -6 343250. 7899.07   1
  -2   6   6 386160. 8318.65   2
  -6   2  -6 350510. 7979.33   1
   6  -2   7 168272. 5073.50   1
  -2   6   7 164828. 5098.92   1
  -4   6   7 150728. 4820.04   1
  -2  -4   7 169899. 4538.33   1
   2   4  -7 167344. 4431.38   1
  -2   6   7 168513. 5037.72   2
   6  -4   7 159183. 5076.85   2
  -6   2  -7 163599. 4966.56   1
   6  -4   7 163834. 5036.25   1
   6  -2   7 157148. 4990.98   2
   2  -6  -7 166969. 5020.12   1
   4  -6  -7 159290. 4810.61   1
  -6   4  -7 156471. 4976.13   1
  -6   4  -8 7148.96 966.639   1
   2  -6  -8 7304.87 981.184   1
   6  -2   8 7399.85 1015.68   1
   4  -6  -8 9068.49 1026.18   1
  -6   2  -8 6706.77 986.129   1
   6  -2   8 6506.15 1013.90   2
   6  -4   8 7551.62 1039.26   1
  -2   6   8 7831.28 1018.26   1
  -4   6   8 6683.27 968.193   1
   6  -4   8 7819.13 1044.51   2
  -2  -4   8 9820.91 989.586   1
   2   4  -8 7947.40 849.917   1
  -2   6   8 8557.22 1044.52   2
   6  -4   9 152855. 5069.67   1
   2   4  -9 161043. 4578.19   1
  -2   6   9 152657. 5019.63   1
  -4   6   9 158111. 4986.51   1
  -6   4  -9 152460. 5114.43   1
  -4   6   9 173964. 5271.84   2
   6  -4   9 152929. 5052.48   2
   6  -2   9 152182. 5084.20   2
   2  -6  -9 166152. 5113.85   1
   4  -6  -9 140835. 4678.86   1
   6  -2   9 153588. 5100.70   1
  -2   6   9 159311. 4956.59   2
  -2  -4   9 162562. 4664.34   1
  -6   2  -9 154858. 5056.19   1
   6  -2  10 121675. 4638.76   1
  -2  -4  10 135833. 4339.80   1
   4  -6 -10 131030. 4473.42   1
  -2   6  10 139667. 4701.96   1
  -4   6  10 137843. 4669.95   1
   6  -2  10 132084. 4653.85   2
   2  -6 -10 130968. 4598.28   1
  -2   6  10 126487. 4488.77   2
  -6   4 -10 137052. 4844.30   1
  -4   6  10 139418. 4758.90   2
   6  -4  10 132633. 4761.54   2
   2   4 -10 119988. 4044.22   1
  -6   2 -10 125995. 4622.01   1
  -6   2 -11 32396.7 2250.69   1
   6  -2  11 33277.6 2351.53   1
   4  -6 -11 30739.2 2099.17   1
  -4   6  11 30647.6 2147.25   1
  -2   6  11 34918.5 2281.98   1
   6  -4  11 35309.8 2397.16   1
   6  -4  11 35946.8 2412.97   2
   2  -6 -11 36417.8 2282.40   1
   6  -2  11 36052.2 2321.12   2
  -2   6  11 31900.9 2148.51   2
  -6   4 -11 33729.5 2308.76   1
  -4   6  11 35791.2 2286.22   2
   6  -2  12 25007.7 2066.13   1
  -2   6  12 25207.9 2001.64   1
  -4   6  12 23564.7 1917.32   1
   6  -4  12 21176.5 1915.81   2
   2  -6 -12 24089.3 1880.86   1
   4  -6 -12 23228.8 1845.68   1
   6  -2  12 25168.6 2026.12   2
  -2   6  12 27274.1 1978.16   2
  -4   6  12 25408.7 1989.42   2
  -6   4 -12 22895.5 1978.20   1
   6  -4  12 24077.1 2090.44   1
  -6   2 -12 24288.6 1986.23   1
  -6   4 -13 22142.1 1949.55   1
  -4   6  13 23301.5 1908.78   1
   6  -4  13 23237.8 2042.62   2
   2  -6 -13 24417.2 1919.76   1
   4  -6 -13 24037.7 1898.68   1
  -2   6  13 22094.0 1921.27   1
   6  -2  13 22019.8 1924.87   2
  -2   6  13 23238.7 1864.42   2
  -4   6  13 25080.2 1951.47   2
   6  -2  13 21410.7 1979.96   1
   6  -4  13 19356.5 1888.71   1
  -6   2 -13 22558.1 1884.28   1
   6  -2  14 116766. 4773.34   2
  -6   4 -14 134529. 5030.36   1
  -2   6  14 113896. 4634.34   1
  -4   6  14 124774. 4844.27   1
   6  -2  14 123312. 5018.45   1
   2  -6 -14 120741. 4662.21   1
   4  -6 -14 124586. 4711.76   1
   6  -4  14 117079. 4858.53   2
  -2   6  14 123127. 4726.48   2
  -4   6  14 127951. 4933.69   2
   6  -4  14 126939. 5029.61   1
  -6   2 -14 124600. 4880.86   1
   6  -2  15 11511.9 1482.36   1
  -2   6  15 11906.7 1465.12   1
  -4   6  15 11528.7 1410.37   1
  -6   4 -15 10192.4 1411.56   1
   6  -4  15 9928.58 1360.01   2
   2  -6 -15 10575.2 1377.96   1
   6  -2  15 10805.0 1404.33   2
   4  -6 -15 9059.60 1245.63   1
  -4   6  15 12261.0 1463.03   2
  -2   6  15 11319.2 1456.82   2
   6  -4  15 13562.4 1675.20   1
  -6   2 -15 11488.2 1487.58   1
  -4   6  16 44617.0 2907.51   1
  -2   6  16 44714.6 2905.76   1
   4  -6 -16 35227.9 2507.17   1
   2  -6 -16 43546.2 2747.58   1
  -4   6  16 45617.9 2907.08   2
   6  -4  16 42212.4 2917.12   2
  -2   6  16 41911.0 2869.68   2
  -6   4 -16 42030.4 2867.60   1
   6  -2  16 41473.7 2854.12   2
   6  -2  16 48889.8 3106.16   1
   6  -4  16 43763.3 2981.76   1
  -6   2 -16 48058.5 2930.55   1
   6  -2  17 12640.7 1626.13   1
  -4   6  17 13288.3 1586.29   1
  -2   6  17 14857.3 1701.59   1
   4  -6 -17 13180.6 1530.93   1
   2  -6 -17 15529.9 1646.06   1
   6  -4  17 10932.1 1627.10   2
  -2   6  17 12663.7 1574.17   2
  -6   4 -17 13705.9 1652.30   1
   6  -2  17 12188.4 1592.97   2
  -6   2 -17 11618.8 1518.92   1
   6  -4  17 13823.8 1645.85   1
   6  -2  18 80808.2 4234.40   1
  -4   6  18 72994.9 3941.40   1
  -2   6  18 83968.5 4146.07   1
   4  -6 -18 58898.1 3467.19   1
   2  -6 -18 80233.3 3922.81   1
   6  -4  18 69766.0 3949.89   2
   6  -2  18 73243.7 3988.55   2
  -6   4 -18 82577.2 4119.63   1
  -2   6  18 69301.8 3856.64   2
  -6   2 -18 86167.3 4113.96   1
   6  -2  19 42102.7 3049.12   2
  -4   6  19 44426.8 3109.37   1
  -2   6  19 44307.3 3099.82   2
   2  -6 -19 48649.6 3062.36   1
  -2   6  19 50002.2 3220.68   1
   5   1  19 6500.15 1167.26   2
   1   5  19 7397.13 1237.79   2
   5   1  18 29462.8 2457.72   1
  -5  -1 -18 32477.3 2480.79   1
   1   5  18 31190.6 2500.02   1
  -1  -5 -18 29820.9 2318.86   1
   5   1  18 28319.2 2374.53   2
   5  -6  18 31551.1 2578.86   1
   1   5  18 28610.5 2394.81   2
  -5   6 -18 31667.7 2474.01   1
   5   1  17 22990.7 2096.20   1
  -5  -1 -17 23454.0 2104.71   1
   5  -6  17 21758.0 2070.16   1
   1   5  17 23068.6 2109.06   1
  -1  -5 -17 22093.4 1968.50   1
   1  -6  17 19668.4 2010.32   1
  -5   6 -17 21393.5 2074.09   1
  -1   6 -17 18561.9 1942.30   1
   5   1  17 22376.6 2094.99   2
   1   5  17 19251.2 1989.85   2
   5   1  16 22384.6 2113.22   1
  -5  -1 -16 24190.3 2108.74   1
  -1  -5 -16 26261.2 2110.93   1
   1   5  16 21432.2 1930.94   2
   1  -6  16 21158.9 2024.28   1
   5   1  16 23925.7 2127.30   2
  -1   6 -16 20321.7 1978.96   1
  -5   6 -16 24233.5 2129.15   1
   1   5  16 23989.6 2129.41   1
   5  -6  16 23569.7 2111.36   1
   5   1  15 23131.5 2098.06   1
   5  -6  15 27688.9 2284.27   1
   1   5  15 25501.2 2115.09   1
  -1  -5 -15 27923.5 2154.06   1
   1  -6  15 25810.4 2249.04   1
  -5   6 -15 26186.1 2241.00   1
   5   1  15 27384.2 2118.77   2
  -1   6 -15 27368.1 2275.43   1
   1   5  15 22904.4 1987.12   2
  -5  -1 -15 28310.5 2254.47   1
   5   1  14 135354. 5237.40   1
   5  -6  14 137141. 5264.13   1
  -5  -1 -14 148447. 5312.41   1
   1   5  14 137695. 5220.36   1
  -1  -5 -14 141353. 5107.82   1
   1  -6  14 144038. 5391.86   1
  -5   6 -14 136997. 5251.22   1
  -1   6 -14 135284. 5172.44   1
   5   1  14 138909. 5139.63   2
   1   5  14 142705. 5117.53   2
   5  -6  14 118700. 5017.98   2
   5  -6  13 25410.3 2128.99   1
   5   1  13 22658.7 1931.88   1
  -5  -1 -13 23788.3 2027.82   1
   1   5  13 25955.8 2063.68   1
   1  -6  13 23267.4 1986.59   1
  -1  -5 -13 25694.2 2024.41   1
   5   1  13 24137.8 2020.13   2
   1   5  13 24102.8 1938.17   2
   5  -6  13 26264.7 2141.52   2
  -1   6 -13 23085.1 1961.17   1
  -5   6 -13 24694.5 2042.83   1
   5   1  12 31524.8 2281.99   1
  -5  -1 -12 29050.5 2192.08   1
   1   5  12 31115.0 2261.16   1
   1  -6  12 34255.1 2360.35   1
  -1   6 -12 28272.3 2141.02   1
  -1  -5 -12 31896.2 2257.07   1
   5   1  12 30677.3 2137.94   2
   1   5  12 28381.7 2072.42   2
  -5   6 -12 29740.2 2225.12   1
   5  -6  12 29688.0 2267.74   2
   5  -6  12 33894.2 2403.41   1
   5   1  11 49283.7 2885.52   1
  -5  -1 -11 49150.5 2773.08   1
   1   5  11 48926.7 2787.03   1
  -6   5  11 49670.6 2624.94   1
   1  -6  11 45140.3 2695.07   1
  -1  -5 -11 50669.2 2749.24   1
   5   1  11 51747.6 2839.22   2
  -1   6 -11 50207.9 2770.18   1
   1   5  11 49409.0 2717.27   2
   5  -6  11 50522.3 2890.77   2
  -5   6 -11 46840.5 2785.64   1
   5  -6  11 48904.9 2845.41   1
   5   1  10 241255. 6902.11   1
  -5  -1 -10 246401. 6809.48   1
   1   5  10 268851. 7056.07   1
   1  -6  10 254935. 6920.93   1
  -6   5  10 248738. 6384.57   1
   1   5  10 250824. 6752.39   2
  -1  -5 -10 259499. 6888.13   1
   6  -5 -10 242009. 6228.00   1
   5  -6  10 234615. 6865.28   2
  -1   6 -10 274471. 7018.21   1
   5   1  10 239199. 6722.89   2
   5  -6  10 257149. 7100.44   1
  -5   6 -10 245626. 6957.05   1
   5   1   9 174881. 5598.32   1
   1  -6   9 185407. 5614.61   1
   1   5   9 188492. 5693.99   1
   6  -5  -9 195440. 5201.18   1
   5   1   9 184256. 5581.74   2
  -1  -5  -9 177237. 5483.83   1
   5  -6   9 179192. 5673.75   1
  -1   6  -9 187871. 5565.63   1
  -5   6  -9 181899. 5740.95   1
  -5  -1  -9 182089. 5613.63   1
   1   5   9 188123. 5561.84   2
   5  -6   9 183734. 5784.51   2
   6  -5  -8 24769.2 1579.59   1
   1  -6   8 22045.0 1736.11   1
  -5  -1  -8 19978.3 1668.03   1
   1   5   8 21366.4 1660.89   1
  -6   5   8 22970.7 1571.91   1
   5   1   8 19498.2 1633.46   2
   5  -6   8 19628.5 1760.17   2
  -1  -5  -8 23332.1 1746.18   1
   5  -6   8 24483.2 1857.40   1
   5   1   8 21991.8 1727.47   1
  -1   6  -8 21047.2 1654.17   1
   1   5   8 21375.4 1662.11   2
  -5   6  -8 23241.0 1786.59   1
   5   1   7 100859. 3756.23   1
  -5   6  -7 105052. 4051.05   1
  -5  -1  -7 106303. 3878.54   1
   1   5   7 111491. 3975.90   1
   5   1   7 97372.0 3769.56   2
  -6   5   7 119781. 3743.85   1
  -1   6  -7 103460. 3820.85   1
   5  -6   7 112220. 4141.98   1
   6  -5  -7 109369. 3565.43   1
   1   5   7 101243. 3721.53   2
  -1  -5  -7 113888. 3983.81   1
   1  -6   7 106117. 3894.59   1
  -6   5   6 115616. 3625.61   1
   5   1   6 110099. 3845.35   1
  -5  -1  -6 104733. 3724.42   1
   1   5   6 112827. 3945.06   1
   5  -6   6 106310. 3968.02   1
  -1  -5  -6 104046. 3826.12   1
   6  -5  -6 110362. 3493.15   1
   1   5   6 115782. 3862.55   2
   1  -6   6 97202.0 3716.69   1
  -5   6  -6 102044. 3980.70   1
  -1   6  -6 103408. 3793.00   1
   5   1   6 113295. 3913.97   2
   1  -6   5 2737.79 641.346   1
  -1  -5  -5 2597.52 620.060   1
   5   1   5 3058.11 570.941   1
   5  -6   5 3664.18 729.077   1
   1   5   5 3455.68 673.320   1
  -1   6  -5 2811.65 603.739   1
  -6   5   5 4003.24 645.085   1
  -5   6  -5 2314.84 560.000   1
   6  -5  -5 3357.34 527.448   1
   5   1   5 4223.69 785.896   2
   1   5   5 3301.49 606.881   2
  -5  -1  -5 2834.80 603.309   1
   1  -6   4 14317.9 1304.28   1
   5   1   4 14921.0 1197.24   1
   6  -5  -4 16823.8 1226.66   1
   5  -6   4 18090.4 1471.12   1
  -5  -1  -4 15347.1 1237.99   1
   1   5   4 16001.1 1319.52   1
   5   1   4 14376.5 1240.10   2
  -6   5   4 14373.3 1152.94   1
  -5   6  -4 14993.2 1357.34   1
  -1  -5  -4 14349.2 1305.64   1
   1   5   4 13843.1 1208.61   2
   6  -1  -4 16788.8 1213.38   2
  -1   6  -4 13085.9 1217.12   1
   5   1   3 51117.0 2225.03   1
  -5  -1  -3 60625.6 2369.26   1
   6  -5  -3 52298.9 2279.01   1
   5   1   3 55445.1 2502.93   2
   1   5   3 52394.8 2458.64   1
   6  -1  -3 60986.3 2386.91   2
  -1  -5  -3 59787.2 2608.40   1
  -5   6  -3 57477.4 2711.97   1
  -6   5   3 55586.5 2362.29   1
   1  -6   3 53896.6 2589.89   1
  -1   6  -3 54757.7 2574.83   1
   5  -6   3 53429.4 2557.31   1
   1   5   3 59490.4 2491.63   2
   5   1   2 239701. 5473.89   1
  -5  -1  -2 243061. 5428.94   1
   6  -1  -2 265167. 5904.99   2
   1   5   2 250961. 6132.53   1
   6  -5  -2 241570. 5737.84   1
   1  -6   2 255342. 6365.62   1
  -5   6  -2 241151. 6227.60   1
  -1   6  -2 277836. 6455.87   1
  -6   5   2 231475. 5753.50   1
   5   1   2 249511. 6031.73   2
   1   5   2 268766. 6079.72   2
   5  -6   2 259483. 6299.56   1
  -1  -5  -2 240207. 6056.30   1
  -1  -5  -1 401136. 8552.72   1
   5  -6   1 418018. 8794.43   1
   1  -6   1 427911. 8972.64   1
   1   5   1 390704. 8483.47   1
   6  -1  -1 417556. 8341.73   2
  -1   6  -1 406512. 8756.26   1
   5   1   1 404242. 8304.69   2
  -5   6  -1 423150. 8868.91   1
   6  -5  -1 417427. 8353.74   1
   1   5   1 427384. 8455.92   2
  -6   5   1 424514. 8443.68   1
  -1  -5   0 271344. 6303.08   1
   5   1   0 277513. 5218.29   1
   5  -6   0 279351. 6542.42   1
  -5  -1   0 259201. 5142.71   1
   1  -6   0 261851. 6477.96   1
   6  -1   0 258915. 4943.49   1
   1   5   0 260268. 6183.18   1
  -1   6   0 267760. 6482.27   1
   6  -1   0 259643. 6120.23   2
  -5   6   0 238338. 6229.51   1
   5   1   0 257165. 5893.02   2
   6  -5   0 255925. 6010.71   1
  -6   5   0 267571. 6283.54   1
   1   5   0 262514. 5986.92   2
  -6   1   0 263041. 5041.13   1
  -1  -5   1 51798.0 2363.89   1
   1  -6  -1 53345.8 2559.04   1
  -5  -1   1 49512.0 1569.69   1
   1   5  -1 51493.3 2319.02   1
  -1   6   1 60958.8 2685.31   1
   5  -6  -1 56536.2 2521.69   1
  -5   6   1 57268.1 2611.91   1
   5   1  -1 58525.1 1633.41   1
   6  -1   1 55565.3 2464.03   2
   5   1  -1 55962.2 2198.06   2
   1   5  -1 57450.5 2308.19   2
  -6   5  -1 52176.3 2397.79   1
  -6   1  -1 53764.0 1946.79   1
   6  -5   1 50676.5 2316.98   1
   6  -1   1 53310.9 1924.90   1
   6  -1   3 15359.7 1169.06   1
   5  -6  -3 16733.6 1332.82   1
   6  -1   3 15156.1 1295.19   2
   6  -5   3 14640.8 1256.95   1
  -1  -5   3 12686.8 1174.42   1
  -1   6   3 15816.8 1391.75   1
  -5   6   3 17937.5 1419.11   1
   5   1  -3 15433.2 1026.18   2
   1   5  -3 15608.7 1199.69   1
   6  -5   3 17433.9 1536.73   2
  -6   5  -3 15911.7 1354.39   1
   1   5  -3 17094.2 1132.19   2
  -1   6   3 16425.3 1359.05   2
   1  -6  -3 14797.3 1346.83   1
  -6   1  -3 13990.9 1117.47   1
   6  -1   4 6796.32 806.192   1
   6  -5   4 6801.09 998.336   2
   1   5  -4 5769.97 622.600   2
  -6   1  -4 4413.06 681.635   1
  -1  -5   4 4939.92 774.143   1
   1  -6  -4 5433.19 815.757   1
  -1   6   4 4999.96 864.591   1
   6  -5   4 4924.42 741.767   1
  -5   6   4 5601.28 866.094   1
   6  -1   4 3955.13 688.436   2
   5   1  -4 4533.05 519.462   2
   5  -6  -4 4314.54 681.546   1
   1   5  -4 4562.79 694.948   1
  -1   6   4 5359.28 829.660   2
  -6   5  -4 4741.60 784.537   1
   5  -6  -5 249414. 6032.47   1
   6  -1   5 240299. 5923.92   1
  -6   1  -5 238632. 5898.98   1
   6  -5   5 223063. 6216.76   2
  -1   6   5 247151. 6240.63   1
  -5   6   5 244749. 6095.79   1
  -1  -5   5 232502. 5812.79   1
   1   5  -5 242157. 5796.62   1
   1  -6  -5 241508. 6172.37   1
  -6   5  -5 219175. 6058.62   1
   6  -1   5 216527. 5949.89   2
   6  -5   5 226376. 6007.38   1
  -1   6   5 218399. 5851.64   2
   6  -5   6 18458.8 1635.56   2
  -6   1  -6 16638.6 1457.74   1
  -1   6   6 20037.0 1618.28   1
  -5   6   6 19616.6 1496.61   1
  -1  -5   6 16723.9 1397.29   1
   6  -5   6 13776.6 1326.17   1
   1   5  -6 16433.5 1318.44   1
   6  -1   6 18615.2 1552.79   2
   1  -6  -6 17771.9 1518.15   1
  -1   6   6 21444.9 1595.37   2
  -6   5  -6 17607.0 1546.29   1
   5  -6  -6 16504.0 1346.47   1
   6  -1   6 21547.7 1575.43   1
  -6   1  -7 113115. 4065.22   1
  -1   6   7 108021. 4034.70   1
  -5   6   7 116236. 4013.53   1
   6  -1   7 107602. 3974.49   1
   1   5  -7 127144. 3976.29   1
   6  -1   7 105913. 4047.36   2
   6  -5   7 110920. 4185.96   2
   6  -5   7 117752. 4194.58   1
   1  -6  -7 117042. 4095.18   1
  -1  -5   7 113015. 3835.98   1
  -6   5  -7 105901. 4088.76   1
   5  -6  -7 122927. 4026.53   1
  -1   6   7 112759. 4004.64   2
   6  -1   8 20042.2 1682.88   1
  -6   1  -8 21148.8 1704.69   1
  -6   5  -8 22577.0 1804.96   1
   6  -5   8 22389.9 1795.22   1
  -1   6   8 20334.3 1668.98   1
  -5   6   8 21715.9 1662.71   1
   6  -5   8 20698.2 1780.93   2
   1   5  -8 22794.4 1630.26   1
   1  -6  -8 24878.5 1807.16   1
   6  -1   8 21151.8 1710.09   2
  -1  -5   8 23981.5 1687.71   1
   5  -6  -8 22620.1 1654.31   1
  -1   6   8 23553.9 1702.89   2
   6  -5   9 13716.6 1437.13   2
   6  -1   9 12161.1 1326.12   1
  -6   1  -9 11234.5 1335.56   1
  -1   6   9 12975.3 1320.89   1
  -5   6   9 13697.0 1322.05   1
   6  -5   9 12465.8 1376.17   1
   6  -1   9 11556.1 1329.51   2
   1   5  -9 14271.9 1285.12   1
   5  -6  -9 13965.1 1336.35   1
   1  -6  -9 14139.0 1397.37   1
  -6   5  -9 11764.8 1302.18   1
  -1   6   9 13433.9 1388.07   2
  -1  -5   9 10654.7 1146.00   1
  -1  -5  10 317117. 7573.68   1
   6  -1  10 300722. 7876.15   1
  -6   1 -10 295533. 7784.95   1
  -6   5 -10 296882. 7861.12   1
  -1   6  10 292957. 7674.14   1
  -5   6  10 303738. 7550.41   1
   6  -5  10 286190. 7831.97   2
   6  -5  10 297740. 7841.88   1
   5  -6 -10 296198. 7371.86   1
   6  -1  10 292792. 7759.17   2
   1  -6 -10 306250. 7724.29   1
  -1   6  10 305677. 7597.06   2
   1   5 -10 287203. 7278.06   1
   6  -1  11 36783.1 2472.50   1
  -1  -5  11 34022.2 2216.94   1
  -1   6  11 39324.5 2433.47   1
  -5   6  11 37524.9 2291.84   1
   6  -5  11 37884.5 2479.28   1
   1  -6 -11 36658.2 2354.08   1
   5  -6 -11 35382.7 2226.07   1
   1   5 -11 35578.8 2214.37   1
  -6   1 -11 37103.2 2442.52   1
   6  -1  11 37337.0 2403.47   2
   6  -5  11 35585.5 2416.44   2
  -1   6  11 36023.2 2232.88   2
  -6   5 -11 36314.2 2473.10   1
  -5   6  11 38420.8 2433.13   2
   6  -1  12 62603.9 3335.59   1
  -6   1 -12 69500.7 3368.70   1
  -1  -5  12 68858.5 3298.07   1
  -1   6  12 65816.3 3289.23   1
  -5   6  12 66951.7 3320.81   2
  -5   6  12 70099.5 3335.95   1
   6  -5  12 65463.6 3419.61   1
  -6   5 -12 59465.3 3243.99   1
   1  -6 -12 67014.1 3265.10   1
   5  -6 -12 68462.8 3232.34   1
  -1   6  12 62421.7 3121.05   2
   6  -1  12 62524.7 3272.84   2
   1   5 -12 60410.9 3049.61   1
   6  -5  12 57322.3 3197.42   2
   6  -1  13 62890.6 3447.57   1
  -6   1 -13 67703.4 3410.04   1
  -1   6  13 65614.0 3381.19   1
  -5   6  13 69400.5 3436.50   1
   6  -1  13 62897.2 3338.10   2
   1  -6 -13 61269.6 3178.20   1
   5  -6 -13 66929.3 3234.63   1
   6  -5  13 66954.6 3453.05   2
  -1   6  13 66364.9 3342.65   2
   6  -5  13 63193.5 3408.41   1
  -6   5 -13 63700.1 3410.37   1
  -5   6  13 65758.8 3345.65   2
  -6   1 -14 124229. 4892.10   1
  -1   6  14 123633. 4869.83   1
  -5   6  14 119693. 4733.79   1
   6  -1  14 116196. 4767.19   2
   1  -6 -14 126531. 4791.61   1
   5  -6 -14 124627. 4735.02   1
   6  -5  14 127900. 4974.75   1
   6  -1  14 115446. 4831.80   1
  -1   6  14 121668. 4823.41   2
   6  -5  14 123722. 4965.40   2
  -6   5 -14 119182. 4833.91   1
  -5   6  14 122090. 4800.24   2
  -1   6  15 43024.4 2830.12   1
  -5   6  15 41548.3 2729.26   1
   6  -5  15 42284.0 2810.34   1
   6  -1  15 41722.3 2754.27   2
   5  -6 -15 40032.2 2595.30   1
   1  -6 -15 40495.4 2634.14   1
  -6   5 -15 42432.5 2796.72   1
   6  -5  15 37862.9 2751.05   2
   6  -1  15 38832.4 2784.33   1
  -1   6  15 39669.3 2699.94   2
  -6   1 -15 41149.2 2759.82   1
  -5   6  15 37372.0 2616.05   2
  -6   5 -16 3039.81 701.996   1
   6  -1  16 3007.54 771.099   1
  -5   6  16 3562.55 866.766   1
  -1   6  16 3203.55 854.704   1
  -6   1 -16 2342.98 676.466   1
   6  -5  16 3258.36 845.888   1
   1  -6 -16 2805.33 776.933   1
   6  -5  16 2793.95 705.664   2
   6  -1  16 4314.79 986.858   2
  -1   6  16 3217.58 806.926   2
  -6   5 -17 8033.43 1253.20   1
   6  -1  17 8960.69 1419.21   1
  -1   6  17 10850.1 1436.75   1
  -6   1 -17 8557.65 1273.11   1
   1  -6 -17 10966.4 1411.28   1
   6  -5  17 6477.85 1167.47   1
   6  -5  17 7968.23 1294.00   2
   6  -1  17 7184.20 1223.15   2
  -1   6  17 10309.4 1397.87   2
  -6   1 -18 52623.8 3230.42   1
   6  -1  18 49083.6 3293.03   1
  -1   6  18 48327.8 3159.06   1
   1  -6 -18 53218.8 3109.09   1
   6  -5  18 59258.0 3467.07   1
  -1   6  18 43770.6 3022.70   2
   6  -1  18 53287.6 3245.61   2
  -6   5 -18 52309.9 3226.89   1
   6  -1  19 5522.59 1147.52   2
  -1   6  19 6067.58 1120.67   2
  -6   0  -1 6066.29 621.624   1
   0   6   1 5195.60 837.176   1
   6  -6   1 6037.53 829.070   1
   6   0   1 6749.46 647.233   1
   0   6  -1 6135.56 864.376   1
   0  -6  -1 6972.70 927.239   1
   6   0  -1 6133.00 744.705   2
  -6   6   1 5296.26 815.800   1
   6   0   1 5437.04 756.065   2
  -6   6  -1 5188.12 800.412   1
   0   6   1 5224.08 848.321   2
   6  -6  -1 5948.75 758.224   1
   0  -6   1 6040.13 868.475   1
   0   6  -1 4243.04 787.066   2
   6   0   2 12882.4 972.317   1
  -6   0  -2 11309.8 947.519   1
   0   6   2 11608.8 1109.65   2
   0  -6   2 12775.2 1225.21   1
   0   6   2 12520.0 1236.56   1
   6  -6  -2 13537.9 1239.49   1
   0   6  -2 13367.0 1240.80   1
  -6   6   2 11608.8 1140.86   1
  -6   6  -2 11844.0 1212.99   1
   6   0  -2 13474.9 1081.95   2
   0  -6  -2 11599.1 1207.55   1
   0   6  -2 12666.4 1160.47   2
   6  -6   2 11654.3 1152.74   1
   6   0   2 11758.0 1149.30   2
   6   0   3 8693.45 882.269   1
  -6   0  -3 8911.11 909.535   1
   6  -6  -3 8714.52 990.910   1
   0  -6   3 8476.45 1005.77   1
  -6   6   3 7937.40 920.201   1
   0   6  -3 7772.81 949.011   1
   0   6   3 7334.21 961.378   1
   0  -6  -3 9588.60 1084.49   1
   6   0  -3 7289.56 814.918   2
   6   0   3 7217.27 879.259   2
  -6   6  -3 7375.16 980.952   1
   0   6   3 8423.76 958.885   2
   0   6  -3 8099.82 890.721   2
   6  -6   3 6901.26 872.784   1
   6   0   4 220119. 5482.99   1
  -6   0  -4 209947. 5408.43   1
   6  -6  -4 232668. 5736.40   1
   6  -6   4 200928. 5721.76   1
   0   6   4 223002. 5916.27   1
  -6   6   4 195599. 5519.38   1
   0  -6   4 195774. 5623.12   1
   0   6  -4 222522. 5792.25   1
   0  -6  -4 207630. 5821.76   1
   6   0   4 217267. 5808.01   2
  -6   6  -4 205472. 5863.61   1
   0   6   4 226888. 5781.39   2
   6   0  -4 224372. 5094.28   2
   6   0   5 3698.26 667.108   1
   0  -6  -5 3314.25 686.753   1
   6  -6   5 3699.42 789.907   1
  -6   0  -5 2794.63 598.623   1
   0  -6   5 3036.85 645.944   1
   0   6   5 3919.98 722.012   1
   6  -6  -5 4268.21 691.834   1
  -6   6   5 3631.77 634.603   1
   0   6  -5 3539.26 613.012   1
   6   0   5 3374.49 724.562   2
   0   6   5 3446.22 699.207   2
  -6   6  -5 2764.60 613.491   1
   6   0   6 12630.1 1225.34   1
  -6   0  -6 11565.4 1194.36   1
   0  -6  -6 9696.49 1070.02   1
   0   6   6 11815.5 1235.82   1
  -6   6   6 10486.4 1130.87   1
   6  -6   6 12223.7 1373.26   2
   0   6  -6 10693.3 1146.06   1
   6  -6   6 7984.48 1056.53   1
  -6   6  -6 10140.5 1211.40   1
   0  -6   6 9697.54 1094.58   1
   6   0   6 10670.3 1209.04   2
   6  -6  -6 9155.82 1000.32   1
   0   6   6 11593.3 1186.35   2
  -6   6  -7 2332.81 600.216   1
   0  -6   7 1830.48 561.173   1
   0   6  -7 2028.42 541.456   1
   0  -6  -7 1075.32 384.929   1
   0   6   7 1796.89 534.414   2
   6   0   7 1869.41 545.703   1
   6  -6  -7 1884.02 523.056   1
  -6   0  -7 2457.20 630.813   1
   0   6   7 1366.63 408.089   1
  -6   6   7 1783.69 477.823   1
   6  -6   7 1506.35 549.682   1
   6   0   7 1633.23 571.138   2
   6  -6   7 2664.57 675.655   2
   6   0   8 323036. 7908.90   1
  -6   0  -8 310317. 7837.58   1
   0   6   8 317670. 7643.41   2
   0   6   8 337339. 8081.32   1
  -6   6   8 299010. 7488.83   1
   6  -6   8 321549. 8213.37   2
   0   6  -8 315419. 7661.89   1
   6  -6   8 298192. 7814.85   1
   6  -6  -8 299302. 7287.67   1
  -6   6  -8 324146. 8100.72   1
   0  -6  -8 321277. 7903.22   1
   0  -6   8 313543. 7715.42   1
   6   0   8 313951. 7831.26   2
  -6   6  -9 3807.05 825.610   1
   0  -6  -9 4949.29 836.772   1
   6  -6  -9 5093.21 795.649   1
   6   0   9 3726.96 740.732   1
   6  -6   9 3752.62 837.628   2
   0   6   9 4045.52 807.112   1
   0  -6   9 4441.68 843.086   1
  -6   0  -9 4343.68 809.890   1
  -6   6   9 3658.87 705.028   1
   6   0   9 3718.44 743.659   2
   0   6  -9 3814.88 735.360   1
   0   6   9 3833.57 780.700   2
   6  -6   9 4952.84 866.810   1
  -6   6 -10 3696.27 799.367   1
   6  -6 -10 4760.87 813.809   1
   6  -6  10 3738.46 764.483   1
   6   0  10 5244.11 944.617   1
   0   6  10 5653.34 953.740   1
  -6   6  10 5161.62 831.028   1
  -6   0 -10 3425.87 731.761   1
   6  -6  10 4279.32 796.398   2
   0   6 -10 5388.94 929.107   1
   6   0  10 4111.06 838.119   2
   0   6  10 4852.33 876.031   2
   0  -6  10 4042.07 767.413   1
   0  -6 -10 3794.90 730.871   1
   6  -6 -11 177.962 316.517   1
  -6   6 -11-199.217 444.126   1
   6   0  11 1774.16 641.982   1
   6  -6  11 749.663 499.961   1
  -6   6  11 755.204 317.255   1
   0   6  11 651.811 367.271   1
  -6   0 -11 1573.30 573.506   1
   6  -6  11 993.775 557.420   2
   6   0  11 197.700 353.400   2
   0   6 -11 319.323 276.456   1
   0   6  11 933.095 531.141   2
   0  -6 -11 851.291 500.914   1
   0  -6  11 382.093 433.073   1
   6   0  12 294770. 8120.96   1
   6  -6  12 302024. 8198.90   1
  -6   0 -12 285264. 7942.38   1
   0  -6  12 312312. 8101.31   1
   0   6  12 297848. 8025.02   1
  -6   6  12 312811. 7892.26   1
   6  -6  12 292870. 8133.91   2
   0  -6 -12 302324. 7874.83   1
   6  -6 -12 267186. 7309.79   1
   6   0  12 296737. 7930.78   2
   0   6 -12 291034. 7851.11   1
  -6   6 -12 291457. 8025.37   1
   0   6  12 313383. 7953.07   2
  -6   6 -13-1110.25 432.618   1
   0  -6  13 269.486 466.573   1
   6   0  13 40.8468 365.416   1
   0   6  13 407.730 553.552   1
   6  -6  13-220.856 349.368   1
  -6   0 -13 79.4862 342.769   1
   6  -6  13 311.616 571.864   2
   6   0  13-165.442 394.159   2
   0  -6 -13-260.834 390.777   1
   0   6 -13 260.604 321.448   1
   0   6  13-435.826 396.251   2
  -6   6  13 140.035 332.007   2
  -6   6 -14 4843.44 1002.78   1
   6   0  14 5051.30 1062.21   1
   0  -6  14 5339.77 1014.11   1
   0   6  14 5512.64 1008.43   1
  -6   0 -14 5287.98 1050.15   1
   6  -6  14 4195.61 934.281   1
   6  -6  14 4693.49 959.072   2
   6   0  14 5362.61 994.375   2
   0  -6 -14 4460.25 857.589   1
   0   6  14 4174.19 937.256   2
  -6   6 -15 23.0803 372.895   1
   6   0  15 550.250 547.072   1
   0   6  15-585.906 459.290   1
  -6   0 -15 805.694 370.699   1
   6  -6  15-328.165 440.765   1
   6  -6  15-21.1817 412.545   2
   0   6  15-36.2671 328.826   2
   0  -6 -15 233.533 495.559   1
   6   0  15-161.014 486.485   2
   6   0  16 115521. 5019.60   1
  -6   0 -16 119015. 4916.29   1
   0   6  16 129518. 5113.93   1
   6  -6  16 116968. 5021.89   1
  -6   6 -16 116721. 4983.90   1
   0  -6 -16 125684. 4875.97   1
   6  -6  16 105179. 4941.11   2
   6   0  16 113864. 4789.18   2
   0   6  16 113853. 4794.47   2
  -6   6 -17 1783.04 633.180   1
   6   0  17 417.897 486.152   1
   0   6  17 1101.23 578.974   1
  -6   0 -17 1245.98 557.056   1
   6  -6  17 857.368 552.992   1
   0  -6 -17 758.500 366.841   1
   6   0  17 1600.62 647.153   2
   0   6  17 1682.27 613.960   2
  -6   6 -18 809.684 410.114   1
   6   0  18 1035.15 654.384   1
   0   6  18 1190.95 530.108   1
  -6   0 -18 505.514 486.005   1
   0  -6 -18 1253.69 651.459   1
   6  -6  18 796.737 527.823   1
   6   0  18 1404.31 582.787   2
   0   6  18 910.447 531.532   2
  -3   7 -18 98491.4 4741.55   1
   3   4  18 112714. 4800.40   2
   3  -7  18 105932. 4876.21   1
   4   3  18 116084. 4851.88   2
   4  -7  18 111745. 4982.90   1
  -4   7 -18 114040. 4989.10   1
   4   3  17 20747.8 2064.85   1
   3   4  17 19988.1 2015.09   1
  -4  -3 -17 22134.9 2066.43   1
  -3  -4 -17 20897.5 1960.14   1
   3   4  17 19873.4 1933.84   2
   3  -7  17 21719.0 2074.30   1
   4  -7  17 17503.0 1918.57   1
  -3   7 -17 16086.7 1841.54   1
  -4   7 -17 19335.0 1914.84   1
   4   3  17 22868.7 2025.33   2
  -4   7 -16 2608.71 715.450   1
  -3  -4 -16 2073.51 683.671   1
   4   3  16 1842.05 632.749   1
   3   4  16 1921.55 711.060   1
   3   4  16 1968.33 672.147   2
  -4  -3 -16 2425.42 701.373   1
   3  -7  16 2804.93 800.977   1
   4  -7  16 2572.05 797.512   1
   4   3  16 2299.62 655.559   2
  -3   7 -16 2162.60 601.943   1
   4   3  15 34520.3 2599.79   1
   3   4  15 40162.3 2742.35   1
  -4  -3 -15 34947.9 2509.04   1
  -3  -4 -15 37104.3 2494.96   1
   3   4  15 37899.6 2543.45   2
   3  -7  15 34922.4 2564.46   1
   4  -7  15 36362.1 2589.53   1
   4   3  15 32766.9 2385.62   2
  -3   7 -15 32665.6 2456.45   1
  -4   7 -15 32648.4 2497.52   1
   4   3  14 30640.1 2395.90   1
   3   4  14 31747.9 2462.48   1
   4  -7  14 28684.7 2269.14   1
  -4  -3 -14 32034.8 2340.93   1
  -3  -4 -14 29948.6 2237.03   1
   3  -7  14 28032.5 2311.92   1
  -4   7 -14 28967.2 2310.56   1
  -3   7 -14 31486.6 2392.92   1
   3   4  14 30587.6 2275.59   2
   4   3  14 31423.7 2286.04   2
   4   3  13 78925.2 3849.87   1
   3   4  13 81262.1 3841.52   1
   4   3  13 74851.7 3600.53   2
  -4  -3 -13 79775.5 3739.55   1
  -3  -4 -13 81882.4 3783.27   1
   3  -7  13 79798.2 3893.44   1
   4  -7  13 79064.7 3855.94   1
  -4   7 -13 78508.6 3849.32   1
  -3   7 -13 83148.3 3921.95   1
   3   4  13 69002.9 3490.32   2
   3  -7  12 13260.6 1499.59   1
   4   3  12 11291.0 1398.84   1
   3   4  12 12432.4 1462.96   1
  -4  -3 -12 10496.6 1358.39   1
  -3  -4 -12 12949.7 1434.66   1
   4   3  12 11996.5 1371.94   2
   4  -7  12 11465.9 1472.01   1
  -3   7 -12 11065.0 1385.81   1
  -4   7 -12 12807.4 1479.58   1
   3   4  12 11162.7 1331.05   2
   4   3  11 21961.0 1883.97   1
   3   4  11 22228.0 1886.82   1
  -4  -3 -11 23445.1 1924.96   1
  -4   7 -11 19063.1 1775.79   1
   3  -7  11 19864.7 1831.58   1
  -3  -4 -11 21593.4 1845.22   1
   4  -7  11 21646.3 1926.22   1
   3   4  11 21939.9 1810.19   2
   4   3  11 23371.0 1905.04   2
  -3   7 -11 23992.6 1952.89   1
   4   3  10 198760. 6089.81   1
   3   4  10 187372. 5937.47   1
   3  -7  10 207779. 6275.08   1
  -4  -3 -10 204614. 6118.31   1
   4  -7  10 205413. 6291.23   1
  -3  -4 -10 190489. 5932.58   1
   3   4  10 196943. 5864.13   2
  -4   7 -10 208757. 6297.61   1
  -3   7 -10 200535. 6192.42   1
   4   3  10 196332. 5891.25   2
   3  -7   9 360.071 345.076   1
   4   3   9 1060.00 477.664   1
   4  -7   9 381.703 362.836   1
   3   4   9 661.003 429.268   1
   4   3   9 644.528 459.569   2
  -4   7  -9-283.548 308.023   1
   3   4   9 602.198 370.178   2
  -3   7  -9 361.451 325.697   1
  -3  -4  -9 452.628 435.178   1
  -4  -3  -9 686.809 408.651   1
   3  -7   8 168925. 5448.77   1
   4   3   8 182399. 5494.24   1
   3   4   8 184904. 5483.86   1
   4  -7   8 177426. 5568.59   1
  -3   7  -8 164884. 5419.54   1
  -4  -3  -8 187942. 5552.67   1
  -3  -4  -8 161390. 5231.19   1
  -4   7  -8 177931. 5603.18   1
   4   3   8 173235. 5312.34   2
   3   4   8 166478. 5195.56   2
   3  -7   7 86346.3 3649.34   1
   4  -7   7 93371.9 3756.35   1
   4   3   7 89039.4 3563.04   1
   3   4   7 85472.5 3488.41   1
  -4  -3  -7 89473.2 3545.32   1
   3   4   7 82037.9 3354.51   2
  -4   7  -7 84689.5 3657.47   1
  -3  -4  -7 93225.3 3621.55   1
  -3   7  -7 79391.4 3500.20   1
   4   3   7 81132.8 3398.74   2
   4  -7   6 374876. 8805.52   1
   4   3   6 364155. 8435.21   1
   3   4   6 389196. 8643.46   1
  -4  -3  -6 412033. 8754.45   1
  -3  -4  -6 411628. 8799.35   1
  -4   7  -6 370470. 8787.10   1
   4   3   6 374136. 8542.25   2
   3   4   6 396035. 8584.22   2
   3  -7   6 359564. 8766.40   1
  -3   7  -6 371785. 8763.48   1
  -3   7  -5 230774. 6319.69   1
   4   3   5 224792. 5939.25   1
   3   4   5 229239. 6021.59   1
  -4  -3  -5 233608. 6047.27   1
   3   4   5 224579. 5980.61   2
  -3  -4  -5 242251. 6169.46   1
  -4   7  -5 226644. 6345.18   1
   4   3   5 241985. 6177.17   2
   3  -7   5 233826. 6356.31   1
   4  -7   5 241078. 6401.50   1
  -3  -4  -4 2211.78 552.938   1
   3  -7   4 2334.64 701.340   1
   4   3   4 2856.03 579.336   1
   4  -7   4 2486.87 634.726   1
   3   4   4 2131.99 580.491   1
  -7   4   4 2220.28 418.079   1
  -3   7  -4 2482.67 640.635   1
  -4   7  -4 2496.57 654.555   1
   4   3   4 2807.21 574.203   2
  -4  -3  -4 2289.95 513.819   1
   3   4   4 1318.16 466.972   2
  -3   7  -3 122067. 4155.29   1
   4   3   3 115837. 3708.49   1
   7  -4  -3 106239. 3093.03   1
   3   4   3 100016. 3504.59   1
  -4   7  -3 114486. 4079.01   1
   4   3   3 115277. 3814.03   2
  -7   4   3 126657. 3368.80   1
  -4  -3  -3 112111. 3633.01   1
   4  -7   3 121366. 4170.12   1
   3   4   3 112469. 3768.82   2
   3  -7   3 110713. 4067.62   1
  -3  -4  -3 112340. 3732.41   1
   7  -3  -2 112623. 3855.99   2
   4   3   2 95927.2 3222.40   1
   3   4   2 106549. 3451.80   1
  -3  -4  -2 98480.0 3398.40   1
   7  -4  -2 97034.6 2943.03   1
  -4  -3  -2 101433. 3320.53   1
  -7   4   2 92961.4 2959.09   1
  -3   7  -2 105627. 3867.63   1
   3  -7   2 93661.5 3710.05   1
  -4   7  -2 95542.3 3688.93   1
   4  -7   2 101937. 3771.37   1
   4   3   2 98144.5 3424.86   2
   3   4   2 96717.9 3390.02   2
   4   3   1 67969.6 2463.68   1
   3   4   1 60165.1 2491.48   1
   7  -3  -1 64091.9 2852.26   2
  -7   3   1 62151.8 2138.60   1
   3  -7   1 61196.6 2897.03   1
  -3   7  -1 60578.3 2867.61   1
  -4  -3  -1 65010.2 2452.73   1
   4  -7   1 62598.1 2902.90   1
  -4   7  -1 57846.8 2892.27   1
   7  -4  -1 59983.5 2300.34   1
  -3  -4  -1 60886.1 2533.59   1
   7  -3  -1 61977.2 2068.89   1
   4   3   1 63149.8 2609.83   2
   3   4   1 60724.1 2560.21   2
  -7   4   1 64819.6 2386.87   1
   7  -3   0 7376.39 714.592   1
   4   3   0 6815.67 726.743   1
   3  -7   0 8443.83 1058.96   1
   3   4   0 9083.16 868.907   1
   4  -7   0 8000.03 1052.65   1
  -4  -3   0 7717.41 788.852   1
  -4   7   0 7665.82 1060.03   1
  -7   4   0 8420.16 851.954   1
   7  -3   0 8224.62 1038.11   2
   7  -4   0 9045.30 1105.12   2
  -7   3   0 7553.06 740.459   1
  -3   7   0 7581.24 1012.91   1
   4   3   0 8043.90 867.833   2
  -3  -4   0 9450.18 939.606   1
   3   4   0 7925.18 884.010   2
   7  -4   0 7294.29 773.876   1
   7  -4   1 32945.9 1763.60   1
   4   3  -1 35599.3 1771.57   2
   4   3  -1 34031.1 1577.53   1
   3  -7  -1 31432.9 2060.79   1
   3   4  -1 33644.5 1718.98   1
   4  -7  -1 36177.0 2153.68   1
  -7   4  -1 34376.8 1831.48   1
   7  -3   1 33067.9 1670.90   1
   7  -4   1 35706.5 2153.05   2
  -3   7   1 29608.7 1990.29   1
  -4   7   1 33782.6 2128.44   1
   7  -3   1 29432.4 1951.20   2
   3   4  -1 35408.1 1803.08   2
  -4  -3   1 35045.0 1665.82   1
  -7   3  -1 33529.0 1701.21   1
  -3  -4   1 37638.2 1849.08   1
   3  -7  -2 255085. 6579.63   1
   4  -7  -2 226115. 6345.55   1
   4   3  -2 232454. 5142.19   1
   3   4  -2 242274. 5592.32   1
  -4  -3   2 254008. 5331.68   1
   7  -4   2 262107. 6025.12   1
  -3   7   2 250758. 6556.73   1
  -4   7   2 254852. 6526.30   1
   7  -3   2 247084. 6394.73   2
   4   3  -2 247545. 5551.23   2
  -7   4  -2 238659. 6029.31   1
   7  -4   2 252017. 6557.49   2
  -7   3  -2 257564. 5978.15   1
   7  -3   2 249591. 5763.77   1
   3   4  -2 251396. 5681.57   2
  -3  -4   2 261073. 5781.92   1
   3  -7  -3 32465.2 2014.08   1
   4  -7  -3 30238.5 1943.90   1
   7  -3   3 31737.9 1800.17   1
  -3  -4   3 31946.0 1672.68   1
   4   3  -3 30193.0 1493.51   2
  -7   4  -3 30852.4 1887.75   1
   3   4  -3 34454.4 1674.23   1
  -3   7   3 32013.1 2067.39   1
  -4   7   3 30295.0 2011.17   1
   7  -4   3 29947.5 2033.34   2
   7  -3   3 33702.0 2094.30   2
   7  -4   3 31867.8 1841.35   1
  -4  -3   3 30385.3 1426.63   1
   3   4  -3 30141.2 1556.34   2
  -7   3  -3 33351.0 1859.54   1
   3  -7  -4 259748. 6843.41   1
  -3  -4   4 256780. 5928.01   1
   4  -7  -4 298690. 7093.26   1
   7  -4   4 275092. 7100.46   2
  -3   7   4 268809. 6998.27   1
   3   4  -4 257705. 5828.47   1
  -4   7   4 277152. 7032.98   1
   7  -3   4 283835. 6568.64   1
   7  -3   4 267397. 6894.73   2
  -7   4  -4 272480. 6725.34   1
  -7   3  -4 282425. 6685.71   1
   7  -4   4 270913. 6611.86   1
  -3  -4   5 107930. 3317.50   1
   7  -4   5 108517. 3842.52   1
  -3   7   5 103506. 3982.61   1
  -4   7   5 111370. 4072.97   1
   7  -3   5 104357. 3971.01   2
   3   4  -5 110688. 3304.39   1
   7  -4   5 96688.2 3916.19   2
   7  -3   5 114580. 3881.73   1
  -7   4  -5 100998. 3805.31   1
  -7   3  -5 101281. 3762.64   1
   3  -7  -5 101111. 3878.90   1
   4  -7  -5 108684. 3957.04   1
  -3   7   6 528189. 11285.2   1
  -4   7   6 533821. 11274.7   1
   7  -4   6 534634. 11056.6   1
   7  -3   6 543419. 11382.9   2
  -7   4  -6 529458. 11150.5   1
   3  -7  -6 538124. 11232.5   1
  -7   3  -6 543542. 11187.2   1
   4  -7  -6 559086. 11202.8   1
   7  -4   6 545843. 11400.5   2
   7  -4   7 114708. 4327.19   2
  -3   7   7 112048. 4236.52   1
  -3   7   7 114810. 4241.94   2
   7  -3   7 101811. 4107.50   2
   7  -4   7 124013. 4322.10   1
   3  -7  -7 119821. 4286.56   1
   4  -7  -7 112524. 4126.04   1
  -7   4  -7 119866. 4381.87   1
   7  -3   7 111798. 4171.36   1
  -7   3  -7 112446. 4205.95   1
  -4   7   7 111439. 4189.06   1
   7  -4   8 731.437 494.872   1
   7  -3   8-4.80589 264.075   1
  -7   4  -8 788.156 473.358   1
  -7   3  -8 318.514 268.513   1
   3  -7  -8 496.944 357.798   1
   4  -7  -8 351.380 466.503   1
  -3   7   8 292.269 418.452   1
  -3   7   8 408.074 410.449   2
  -4   7   8 709.240 505.858   1
   7  -4   8 289.525 304.394   2
   7  -3   8-11.3409 419.369   2
  -3   7   9 103003. 4073.22   1
  -4   7   9 99910.8 3990.54   1
   3  -7  -9 95061.6 3871.67   1
   7  -4   9 100961. 4142.78   2
   7  -3   9 94191.7 4037.04   2
   4  -7  -9 98119.5 3906.14   1
   7  -4   9 98711.6 4062.05   1
  -7   4  -9 95510.7 4023.73   1
  -3   7   9 101536. 4006.30   2
  -4   7   9 98865.5 4104.47   2
  -7   3  -9 95815.5 4035.15   1
   7  -3   9 98021.9 4086.27   1
  -4   7  10 28378.2 2086.36   2
   7  -4  10 24456.9 2004.55   1
  -3   7  10 26196.1 2021.01   1
  -4   7  10 24148.7 1953.35   1
   7  -3  10 25948.1 2029.21   2
   7  -4  10 23982.4 2009.72   2
  -3   7  10 28246.2 2068.57   2
  -7   4 -10 23931.8 1954.84   1
  -7   3 -10 26965.2 2091.40   1
   4  -7 -10 24913.1 1912.64   1
   3  -7 -10 23084.9 1815.66   1
   7  -3  10 28031.5 2130.30   1
   3  -7 -11 64461.5 3197.82   1
  -3   7  11 61657.0 3181.80   1
  -4   7  11 62673.4 3194.85   1
  -3   7  11 71246.1 3349.96   2
   7  -4  11 58166.3 3229.56   2
   7  -3  11 56751.8 3198.83   2
  -7   3 -11 61446.3 3283.33   1
   4  -7 -11 65759.2 3213.55   1
  -7   4 -11 61239.0 3285.12   1
  -4   7  11 63566.9 3231.19   2
   7  -3  11 63136.7 3370.72   1
   3  -7 -12 6291.65 1005.44   1
   4  -7 -12 4886.92 888.986   1
   7  -4  12 4791.26 977.428   1
   7  -3  12 5767.36 1037.03   1
  -7   4 -12 5906.05 1032.73   1
  -7   3 -12 3971.06 822.353   1
  -3   7  12 6223.65 1023.41   1
  -4   7  12 4523.93 815.417   1
   7  -4  12 5081.42 1017.61   2
   7  -3  12 5336.47 1040.08   2
  -3   7  12 5972.63 957.610   2
  -4   7  12 7320.81 1124.15   2
   7  -4  13 3612.80 921.287   1
   7  -3  13 3217.84 894.750   1
  -7   4 -13 4199.59 927.721   1
  -7   3 -13 3530.79 801.614   1
   7  -3  13 4110.86 868.080   2
  -3   7  13 3860.56 811.485   1
  -4   7  13 5359.88 1000.25   1
   7  -4  13 4476.66 976.905   2
   3  -7 -13 4414.08 834.931   1
  -3   7  13 4777.16 883.236   2
   4  -7 -13 4360.78 812.928   1
  -4   7  13 4492.05 884.484   2
  -4   7  14 131009. 4983.79   2
  -3   7  14 124176. 4976.15   1
  -4   7  14 119013. 4808.59   1
  -3   7  14 129153. 4934.58   2
   7  -4  14 120688. 5004.36   2
   3  -7 -14 131123. 4861.49   1
   4  -7 -14 115052. 4563.95   1
  -7   4 -14 119803. 4930.53   1
   7  -3  14 130108. 5132.28   2
  -7   3 -14 118687. 4899.30   1
   7  -4  14 119055. 5065.10   1
   7  -3  14 119563. 5077.84   1
   7  -4  15 7439.14 1292.80   1
   7  -3  15 6617.95 1171.37   1
  -7   4 -15 7640.24 1184.56   1
  -7   3 -15 6320.77 1125.18   1
  -3   7  15 7824.57 1205.55   1
  -4   7  15 6196.43 1153.82   1
   7  -4  15 7618.53 1205.18   2
   3  -7 -15 6437.30 1037.27   1
  -4   7  15 7156.98 1141.76   2
  -3   7  15 6592.26 1157.58   2
   7  -3  15 7810.00 1271.87   2
   4  -7 -15 6609.33 1117.54   1
  -3   7  16 46914.7 3001.17   1
  -4   7  16 46330.1 2978.29   1
   4  -7 -16 44620.4 2839.96   1
   3  -7 -16 47055.9 2879.87   1
   7  -3  16 44506.3 2951.93   2
   7  -4  16 46630.6 3117.98   2
  -3   7  16 44371.5 2968.81   2
  -4   7  16 48367.1 3058.55   2
  -7   4 -16 48752.2 3090.04   1
  -7   3 -16 48501.0 3066.85   1
   7  -4  16 48395.9 3164.94   1
   7  -3  16 42882.7 3001.39   1
  -4   7  17 55242.6 3356.22   1
  -3   7  17 53474.1 3287.79   1
   7  -4  17 51669.0 3373.39   2
   4  -7 -17 41646.8 2847.85   1
   3  -7 -17 51293.4 3066.14   1
   7  -3  17 53501.0 3389.92   2
  -3   7  17 52436.2 3308.05   2
  -4   7  17 48455.7 3201.82   2
  -7   4 -17 53281.3 3312.53   1
  -7   3 -17 58144.4 3380.61   1
   7  -3  17 54430.0 3435.17   1
   7  -3  18 107988. 4998.86   2
   7  -3  18 117794. 5151.93   1
  -4   7  18 103387. 4714.62   1
  -3   7  18 117070. 5000.04   1
   4  -7 -18 106781. 4684.39   1
   3  -7 -18 101758. 4593.71   1
   7  -4  18 100240. 4833.23   2
  -3   7  18 95999.8 4701.33   2
  -7   3 -18 115187. 4977.76   1
  -4   7  19-118.390 614.546   1
  -2   7 -18 2985.10 773.281   1
   2  -7  18 2885.91 857.227   1
   5   2  18 4127.28 849.947   2
   2   5  18 3425.61 844.570   2
  -5   7 -17 622.704 442.978   1
   5   2  17 1938.29 713.963   1
   2   5  17 1506.43 751.029   1
   2  -7  17 970.437 479.208   1
  -5  -2 -17 1644.22 611.401   1
   5  -7  17 1278.75 563.688   1
  -2  -5 -17 1284.67 581.370   1
   5   2  17 1394.09 514.033   2
   2   5  17 1847.32 723.479   2
  -2   7 -17 410.866 350.465   1
   5   2  16 151202. 5790.19   1
   2   5  16 153607. 5752.73   1
  -5  -2 -16 159700. 5753.64   1
  -2  -5 -16 161670. 5660.94   1
   2  -7  16 146224. 5759.21   1
   5   2  16 155794. 5626.32   2
   5  -7  16 151687. 5783.18   1
   2   5  16 154339. 5595.33   2
  -5   7 -16 158796. 5858.65   1
  -5   7 -15 932.401 617.521   1
  -2  -5 -15 1068.59 475.863   1
   5   2  15 870.647 509.040   1
   2   5  15 2041.22 736.182   1
   2  -7  15 1104.95 563.788   1
  -5  -2 -15 1833.62 661.217   1
   5   2  15 1453.34 600.127   2
   5  -7  15-27.0303 325.900   1
   2   5  15 985.861 444.602   2
  -2   7 -15 810.059 503.793   1
  -5   7 -14 108.244 394.360   1
   5   2  14 446.674 337.888   1
   2  -7  14-708.640 536.149   1
   2   5  14 726.792 433.325   1
  -5  -2 -14 866.567 479.840   1
   2   5  14-299.313 351.590   2
  -2  -5 -14 1244.30 574.492   1
   5  -7  14 722.861 560.007   1
   5   2  14-229.518 366.221   2
  -2   7 -14 575.176 310.517   1
  -5   7 -13 722.921 452.054   1
   5   2  13 194.918 431.942   1
   2  -7  13 1024.17 605.242   1
   5   2  13 699.845 423.732   2
   2   5  13 562.996 407.736   1
  -5  -2 -13 333.405 341.560   1
  -2   7 -13 157.275 341.817   1
   5  -7  13 719.257 497.799   1
  -2  -5 -13 1134.45 453.779   1
   2   5  13 1191.36 534.584   2
   5   2  12 91748.8 3938.56   2
   5   2  12 95836.3 4218.97   1
   2   5  12 89931.2 4030.07   1
  -5  -2 -12 98402.1 4185.66   1
   2  -7  12 97203.9 4185.42   1
  -2  -5 -12 96352.4 4068.87   1
   5  -7  12 89878.1 4112.42   1
   2   5  12 90048.6 3915.32   2
  -2   7 -12 89826.5 4018.76   1
  -5   7 -12 89056.5 4114.30   1
  -2   7 -11 2359.44 727.228   1
   2  -7  11 792.269 488.038   1
   5   2  11 2015.68 644.111   2
   5   2  11-40.9222 389.892   1
   2   5  11 803.755 465.711   1
  -5  -2 -11 1668.18 604.499   1
  -2  -5 -11 1427.39 366.919   1
   5  -7  11 753.576 507.535   1
   2   5  11 2182.84 573.567   2
  -5   7 -11 1244.59 530.901   1
   2  -7  10 1086.81 481.100   1
   5   2  10 687.182 350.645   1
   2   5  10 89.6015 377.663   1
   5  -7  10 785.063 568.629   1
  -5  -2 -10 336.746 431.404   1
   5   2  10 243.981 281.446   2
  -2   7 -10 231.311 372.474   1
   2   5  10 30.8350 297.667   2
  -2  -5 -10 443.148 366.513   1
  -5   7 -10 311.867 365.324   1
   5   2   9 7694.33 1102.00   1
   2   5   9 6175.86 953.765   1
   5  -7   9 5021.83 954.241   1
   2   5   9 6045.99 940.299   2
  -5  -2  -9 6069.25 953.952   1
  -2  -5  -9 5637.33 918.090   1
   2  -7   9 5771.58 901.861   1
   5   2   9 5745.52 981.888   2
  -2   7  -9 6334.22 1001.14   1
  -5   7  -9 6530.43 1077.81   1
   5   2   8 644104. 13128.1   1
  -2   7  -8 640302. 13074.3   1
  -5  -2  -8 691289. 13155.6   1
   5  -7   8 684305. 13573.6   1
  -2  -5  -8 631123. 12935.3   1
  -5   7  -8 620052. 13242.7   1
   5   2   8 661888. 13083.8   2
   2   5   8 658979. 12964.4   2
   2  -7   8 674184. 13334.4   1
   5   2   7 14690.1 1382.76   1
   2   5   7 15738.0 1410.83   1
   5  -7   7 15330.1 1501.59   1
  -5  -2  -7 15616.1 1446.08   1
  -2  -5  -7 15453.5 1437.75   1
  -2   7  -7 14005.5 1446.52   1
  -5   7  -7 13995.6 1474.82   1
   5   2   7 14553.8 1412.43   2
   2   5   7 13161.3 1359.44   2
   2  -7   7 15894.8 1516.61   1
  -2  -5  -6 1712.66 509.909   1
   5  -7   6 1949.01 652.137   1
   2  -7   6 2147.39 612.697   1
   5   2   6 1149.85 449.143   1
   2   5   6 731.335 246.386   1
  -7   5   6 1299.62 400.814   1
  -5  -2  -6 2192.71 588.693   1
  -2   7  -6 1858.68 574.051   1
   5   2   6-85.6888 402.277   2
  -5   7  -6 2526.14 699.063   1
   2   5   6 1173.46 450.141   2
   2  -7   5 4240.98 735.230   1
  -2  -5  -5 3801.47 717.847   1
   5   2   5 4486.91 772.938   1
   2   5   5 4054.37 753.703   1
  -7   5   5 4960.94 718.451   1
  -5   7  -5 5133.38 924.435   1
   7  -5  -5 4712.55 615.680   1
  -5  -2  -5 6029.74 855.144   1
  -2   7  -5 4664.62 849.424   1
   5   2   5 4178.67 707.215   2
   2   5   5 3329.07 677.687   2
   5  -7   5 4242.22 767.410   1
   7  -5  -4 236935. 5536.40   1
   5   2   4 228872. 5819.30   1
   2  -7   4 219852. 6152.81   1
   2   5   4 242599. 6115.36   1
  -5  -2  -4 251604. 6003.27   1
  -7   5   4 219558. 5488.60   1
  -2   7  -4 218040. 6080.99   1
   2   5   4 230790. 6003.62   2
  -2  -5  -4 228629. 6063.13   1
  -5   7  -4 222293. 6270.70   1
   5   2   4 224963. 5941.00   2
   5  -7   4 216157. 6199.52   1
  -5   7  -3 4778.38 774.290   1
   7  -5  -3 5447.79 699.214   1
  -2  -5  -3 4286.46 683.788   1
   5   2   3 4796.11 702.601   1
   5  -7   3 4400.49 805.615   1
   2   5   3 4955.70 745.866   1
   2  -7   3 4806.98 814.314   1
   7  -2  -3 6644.45 850.433   2
  -7   5   3 4947.17 668.646   1
  -5  -2  -3 4650.78 656.272   1
  -2   7  -3 4485.04 838.294   1
   5   2   3 4354.41 688.628   2
   2   5   3 3975.93 645.058   2
   5  -7   2 8657.01 1087.68   1
   5   2   2 9423.27 891.623   1
   2   5   2 8527.39 979.830   1
  -5  -2  -2 9874.42 957.887   1
   7  -5  -2 8869.16 897.277   1
   2  -7   2 10069.2 1148.10   1
   7  -2  -2 9220.51 1011.17   2
  -2   7  -2 9209.78 1112.88   1
  -7   5   2 8825.06 903.923   1
  -2  -5  -2 9497.80 1022.43   1
   5   2   2 8663.05 936.051   2
  -5   7  -2 9272.91 1103.79   1
   2   5   2 8280.60 996.013   2
   5   2   1 8003.53 797.160   1
   2   5   1 8043.23 909.603   1
  -5  -2  -1 9251.88 827.062   1
   2  -7   1 8749.20 1127.02   1
  -2   7  -1 7879.02 1019.43   1
  -7   5   1 6994.47 822.716   1
   7  -5  -1 7263.74 826.102   1
   7  -2  -1 7380.04 920.346   2
   5   2   1 8595.95 918.316   2
   5  -7   1 7667.82 989.430   1
  -5   7  -1 6780.48 952.596   1
  -2  -5  -1 8442.83 976.411   1
   2   5   1 7202.62 849.827   2
   2  -7   0 432780. 9740.12   1
   2   5   0 435057. 9101.24   1
  -5  -2   0 451293. 8390.37   1
  -2   7   0 451017. 9758.62   1
   5  -7   0 449349. 9684.81   1
  -5   7   0 440961. 9691.45   1
   7  -2   0 474041. 9541.77   2
   5   2   0 452661. 9038.13   2
   7  -5   0 488119. 9216.99   1
   2   5   0 448858. 9124.62   2
  -2  -5   0 468203. 9350.40   1
  -7   2  -1 80.2964 219.710   1
   7  -2   1 324.967 214.471   1
  -7   5  -1 19.4442 225.017   1
  -5   7   1 552.282 372.271   1
   5  -7  -1 199.436 238.356   1
  -2  -5   1 763.617 332.158   1
  -2   7   1 236.779 312.098   1
   7  -5   1 1018.16 474.053   1
   7  -2   1 710.066 438.208   2
   5   2  -1 586.798 364.227   2
   2   5  -1 451.121 305.698   1
   2  -7  -1 713.874 380.703   1
   2   5  -1 404.802 216.557   2
   7  -2   2-32.4164 209.673   1
   7  -5   2 352.105 314.099   1
  -7   2  -2 347.838 284.299   1
   5  -7  -2 525.810 367.139   1
   2  -7  -2 1.21539 384.326   1
   2   5  -2 374.447 215.831   1
  -2   7   2 253.143 395.940   1
   7  -5   2 32.2335 344.958   2
  -5   7   2 243.777 374.415   1
   7  -2   2-96.1980 345.666   2
  -2  -5   2 664.077 352.206   1
   5   2  -2-33.3566 173.060   2
  -7   5  -2 768.298 396.709   1
   2   5  -2 0.42553 279.465   2
  -7   2  -3 5632.53 774.264   1
   7  -5   3 5687.87 866.937   1
   7  -2   3 3946.23 719.972   2
   2   5  -3 5216.46 705.063   2
  -2   7   3 3839.95 729.370   1
   2   5  -3 5171.73 719.803   1
   7  -5   3 6009.41 968.545   2
  -5   7   3 6047.32 888.077   1
   5   2  -3 5401.44 651.168   2
   2  -7  -3 5236.94 875.279   1
  -2  -5   3 4553.98 666.910   1
   5  -7  -3 4635.38 861.569   1
  -7   5  -3 6268.83 902.717   1
  -2  -5   4 562008. 10521.3   1
  -2   7   4 468787. 10827.3   1
  -5   7   4 555947. 11135.2   1
   2   5  -4 584359. 10452.7   1
   7  -5   4 535055. 10806.3   1
   7  -5   4 532869. 11269.1   2
   7  -2   4 500833. 10883.8   2
  -7   5  -4 529923. 10939.4   1
  -7   2  -4 521376. 10519.9   1
   2  -7  -4 486795. 10870.4   1
   7  -2   4 554336. 10539.0   1
   5  -7  -5 23342.5 1704.02   1
  -2  -5   5 24499.8 1673.57   1
   7  -5   5 19983.4 1741.72   2
  -2   7   5 24091.1 1812.30   1
  -5   7   5 22697.1 1742.69   1
   2  -7  -5 22700.5 1751.97   1
   2   5  -5 26438.2 1632.91   1
   7  -2   5 23926.5 1803.63   2
  -7   5  -5 22884.8 1736.02   1
  -2   7   5 23360.2 1781.95   2
   7  -5   5 23339.0 1729.13   1
  -7   2  -5 24972.9 1724.03   1
   7  -2   5 22953.1 1704.20   1
  -7   5  -6 6256.16 957.340   1
   7  -5   6 4584.69 825.301   1
   7  -2   6 7584.70 1004.35   1
  -7   2  -6 6811.23 913.222   1
   7  -2   6 8065.87 1034.50   2
  -2  -5   6 6132.67 889.921   1
   2  -7  -6 6339.56 936.414   1
   2   5  -6 7041.13 861.559   1
  -2   7   6 5584.03 927.375   1
   5  -7  -6 5535.15 898.791   1
  -5   7   6 5671.95 884.711   1
   7  -5   6 6453.76 992.416   2
  -2   7   6 7132.17 1021.74   2
  -7   5  -7 948.428 454.031   1
   7  -2   7 1227.11 553.222   1
  -7   2  -7 1198.36 455.732   1
   7  -5   7 1495.50 535.154   1
   2  -7  -7 1409.51 449.796   1
   5  -7  -7 1355.40 455.781   1
   7  -2   7 1366.33 571.881   2
   7  -5   7 594.516 409.436   2
  -2   7   7 1721.70 563.303   1
  -2  -5   7 1266.54 385.407   1
  -5   7   7 1253.59 483.283   1
   2   5  -7 872.009 409.738   1
  -2   7   7 1805.04 595.568   2
   7  -2   8 399587. 9332.07   1
   7  -5   8 383248. 9237.38   1
   7  -5   8 393160. 9438.43   2
  -2   7   8 373492. 9095.68   1
  -5   7   8 394357. 9147.49   1
   2   5  -8 412991. 8633.33   1
   7  -2   8 376354. 9273.54   2
  -2  -5   8 427253. 8874.82   1
   2  -7  -8 377721. 9033.95   1
   5  -7  -8 414118. 9128.40   1
  -7   5  -8 387105. 9338.53   1
  -2   7   8 391224. 9037.74   2
  -7   2  -8 374866. 9104.89   1
  -7   5  -9 5309.78 963.745   1
   7  -2   9 5450.97 907.565   1
   2  -7  -9 7468.42 1015.21   1
  -7   2  -9 5682.07 1022.60   1
  -2   7   9 5648.64 969.801   1
  -5   7   9 6487.11 1016.38   1
   7  -5   9 5934.64 1010.75   2
   7  -5   9 7178.25 1105.13   1
   5  -7  -9 8198.68 1128.93   1
  -2   7   9 6457.08 995.076   2
   7  -2   9 5844.99 1027.54   2
   7  -2  10 33147.2 2324.75   1
  -2   7  10 32837.2 2303.29   1
  -5   7  10 33751.5 2267.77   1
   7  -5  10 31378.7 2303.72   1
   7  -5  10 30291.8 2298.12   2
   5  -7 -10 33818.3 2174.96   1
   7  -2  10 33109.1 2285.66   2
   2  -7 -10 32770.3 2265.22   1
  -7   5 -10 31229.8 2317.33   1
  -2   7  10 34907.8 2285.75   2
  -5   7  10 35008.6 2412.20   2
  -7   2 -10 30633.7 2256.34   1
   2  -7 -11 1408.27 488.106   1
   5  -7 -11 1826.52 627.694   1
  -7   5 -11 982.213 467.035   1
   7  -2  11 1049.79 491.096   1
   7  -5  11 2538.26 764.660   1
  -7   2 -11 1109.64 408.426   1
   7  -5  11 638.756 452.048   2
  -2   7  11 1121.22 481.253   1
  -5   7  11 882.736 463.755   1
   7  -2  11 1175.00 651.383   2
  -2   7  11 1562.18 450.711   2
  -5   7  11 1086.61 471.764   2
   7  -2  12 89166.1 4221.27   1
   7  -5  12 88731.3 4079.55   1
  -2   7  12 91866.1 4069.23   1
  -5   7  12 94546.9 4071.01   1
   7  -2  12 90488.7 4065.91   2
   2  -7 -12 99111.8 4096.79   1
   5  -7 -12 93713.9 3942.82   1
  -2   7  12 95693.7 3984.94   2
   7  -5  12 88378.5 4172.26   2
  -7   5 -12 90984.1 4151.62   1
  -5   7  12 99293.1 4200.24   2
  -7   2 -12 91822.7 4115.69   1
   7  -2  13 326.006 465.587   1
  -7   5 -13 551.210 357.373   1
  -7   2 -13 956.668 499.613   1
   7  -5  13 93.6644 329.086   1
  -2   7  13-28.3679 537.276   1
  -5   7  13 108.378 351.743   1
   7  -5  13 221.428 402.121   2
   7  -2  13 361.999 437.926   2
   2  -7 -13-0.77179 333.055   1
  -2   7  13 265.980 439.175   2
   5  -7 -13-11.2818 362.271   1
  -5   7  13 423.337 422.690   2
   7  -2  14 2835.21 821.152   1
  -7   5 -14 3969.42 926.524   1
  -7   2 -14 4549.52 999.635   1
  -2   7  14 4323.68 917.656   1
  -5   7  14 2918.13 786.683   1
  -5   7  14 3769.81 788.826   2
   7  -5  14 3891.90 855.786   2
   7  -5  14 4216.11 930.425   1
   7  -2  14 3611.34 877.800   2
   2  -7 -14 3697.01 726.315   1
   5  -7 -14 4061.62 863.421   1
  -2   7  14 2963.11 733.425   2
  -7   5 -15 1299.64 696.307   1
   7  -5  15 1626.90 677.692   2
  -7   2 -15 1765.30 631.415   1
  -2   7  15 1627.35 623.313   1
  -5   7  15 1750.56 618.317   1
   7  -5  15 1910.08 708.543   1
   7  -2  15 190.097 498.539   1
   7  -2  15 283.834 323.930   2
   2  -7 -15 2047.94 670.136   1
   5  -7 -15 963.801 424.660   1
  -2   7  15 2198.60 732.968   2
  -5   7  15 1746.17 607.151   2
   7  -2  16 202839. 6982.28   1
  -2   7  16 225492. 6984.80   1
  -5   7  16 192918. 6686.57   1
   5  -7 -16 193064. 6479.98   1
   2  -7 -16 214344. 6687.73   1
  -2   7  16 196991. 6736.95   2
   7  -5  16 185097. 6726.28   2
   7  -2  16 199201. 6834.52   2
   7  -5  16 226242. 7208.90   1
  -5   7  16 191123. 6620.65   2
  -7   5 -16 208989. 6900.71   1
  -7   2 -16 213392. 6876.06   1
   7  -2  17 4660.09 1012.90   1
  -7   5 -17 5202.02 1031.81   1
  -7   2 -17 5423.78 1059.56   1
  -5   7  17 4465.45 931.938   1
  -2   7  17 4310.28 874.391   1
   7  -5  17 4605.92 963.205   1
   7  -2  17 5324.66 1048.40   2
   2  -7 -17 4885.82 996.407   1
   7  -5  17 4390.94 1031.42   2
  -2   7  17 3488.09 894.086   2
  -2   7  18 183.189 363.972   1
   7  -5  18 723.009 556.931   2
   2  -7 -18 671.723 427.499   1
   7  -2  18 301.925 408.346   2
  -2   7  18-32.3931 487.727   2
  -6   7 -17 7492.37 1236.67   1
   6   1  17 5931.51 1117.87   1
   6   1  17 5352.78 1004.29   2
   1   6  17 6310.60 1151.27   1
  -6  -1 -17 5132.71 1005.72   1
  -1  -6 -17 6162.43 1120.47   1
   1   6  17 6318.67 1107.93   2
   6  -7  17 7378.99 1236.84   1
   6   1  16 23765.8 2157.09   1
  -6  -1 -16 21697.6 2042.87   1
   1   6  16 25967.4 2220.77   1
   1  -7  16 18885.2 1952.15   1
  -1  -6 -16 25180.6 2149.38   1
   6   1  16 23688.7 2102.11   2
   1   6  16 23762.5 2140.68   2
  -6   7 -16 24874.2 2208.56   1
   6  -7  16 24649.1 2181.24   1
  -6   7 -15 10003.8 1485.78   1
  -6  -1 -15 10432.8 1410.78   1
   1  -7  15 6128.07 1081.94   1
   6   1  15 7731.55 1241.46   1
   1   6  15 8796.75 1277.42   1
   1   6  15 7409.86 1230.94   2
  -1  -6 -15 8212.50 1174.96   1
   6  -7  15 8264.42 1304.90   1
   6   1  15 7102.90 1149.42   2
  -1   7 -15 7782.49 1249.86   1
   6   1  14 57821.7 3350.91   1
  -6  -1 -14 54405.4 3249.59   1
   1  -7  14 61609.2 3473.75   1
   1   6  14 63239.6 3443.98   1
  -1  -6 -14 64576.9 3387.67   1
   6  -7  14 53502.3 3424.45   2
  -1   7 -14 56578.6 3319.34   1
   6   1  14 60672.3 3321.88   2
   6  -7  14 64074.2 3523.45   1
  -6   7 -14 61806.2 3485.85   1
   1   6  14 55137.2 3167.14   2
   6   1  13 21417.7 2035.99   1
   1  -7  13 23057.9 2055.18   1
  -6  -1 -13 22009.7 1977.55   1
   1   6  13 24392.8 2053.85   1
   6   1  13 20848.6 1900.04   2
  -1  -6 -13 24640.6 2034.72   1
  -1   7 -13 23980.6 2034.32   1
   6  -7  13 18293.7 1833.07   2
   6  -7  13 24220.1 2071.34   1
  -6   7 -13 21557.0 2002.85   1
   1   6  13 22176.0 1953.24   2
   1  -7  12 18115.5 1803.65   1
   6   1  12 18691.1 1811.81   1
   6  -7  12 20245.2 1857.98   1
  -6  -1 -12 16813.8 1735.51   1
   1   6  12 17590.5 1773.35   1
   6  -7  12 15786.4 1837.20   2
  -1  -6 -12 19672.0 1792.61   1
   6   1  12 18078.5 1729.21   2
  -1   7 -12 18621.9 1818.99   1
  -6   7 -12 18352.1 1798.54   1
   1   6  12 18352.4 1698.05   2
   6   1  11 40448.8 2633.70   1
  -6  -1 -11 37673.6 2546.54   1
   1   6  11 37919.9 2553.20   1
  -1  -6 -11 40013.1 2473.10   1
   6  -7  11 35030.7 2521.79   1
  -1   7 -11 40369.7 2595.25   1
   6   1  11 40451.2 2553.69   2
  -6   7 -11 35894.2 2554.12   1
   1   6  11 38188.6 2439.56   2
   1  -7  11 39814.4 2610.70   1
   6   1  10 145788. 5165.71   1
  -6  -1 -10 134747. 4989.85   1
   1   6  10 147748. 5154.04   1
  -1   7 -10 145414. 5044.40   1
  -6   7 -10 143573. 5197.01   1
  -1  -6 -10 144488. 4972.62   1
   6  -7  10 141984. 5177.07   1
   6   1  10 135302. 4942.07   2
   1   6  10 127345. 4736.19   2
   1  -7  10 125802. 4833.04   1
   6   1   9 71795.1 3483.06   1
  -6  -1  -9 72795.8 3456.49   1
  -1   7  -9 83894.2 3597.21   1
   1   6   9 72172.4 3426.47   1
   6  -7   9 79020.7 3640.26   1
  -1  -6  -9 76574.1 3422.96   1
   6   1   9 67434.5 3325.66   2
  -6   7  -9 70771.2 3526.92   1
   1   6   9 73059.6 3339.84   2
   1  -7   9 72782.0 3461.32   1
  -1  -6  -8 456.813 362.025   1
  -6   7  -8-63.4373 377.093   1
   6   1   8 912.344 504.805   1
   1  -7   8 452.403 377.010   1
   7  -6  -8 112.582 232.147   1
   1   6   8-6.77625 373.484   1
   6  -7   8 302.674 417.280   1
  -7   6   8-65.8055 251.764   1
  -6  -1  -8 168.119 335.982   1
   6   1   8-148.158 349.050   2
  -1   7  -8 352.398 340.289   1
   1   6   8 1612.63 624.320   2
   6   1   7 241643. 6421.26   1
  -6  -1  -7 226549. 6269.32   1
  -1  -6  -7 222766. 6312.38   1
   1   6   7 225324. 6317.69   1
   6  -7   7 233137. 6582.33   1
  -7   6   7 228307. 5958.83   1
   6   1   7 217938. 6268.89   2
  -1   7  -7 223360. 6229.84   1
  -6   7  -7 213633. 6382.08   1
   1  -7   7 216830. 6310.08   1
   7  -6  -7 204307. 5655.49   1
   1   6   7 208876. 6050.38   2
   6   1   6 258058. 6629.20   1
  -6  -1  -6 246718. 6494.23   1
   6  -7   6 251223. 6882.95   1
   1   6   6 208988. 6271.32   1
  -7   6   6 278585. 6617.05   1
  -1  -6  -6 248738. 6678.34   1
   6   1   6 257244. 6762.33   2
  -6   7  -6 245782. 6843.32   1
  -1   7  -6 236465. 6481.17   1
   1   6   6 247540. 6460.37   2
   7  -6  -6 239591. 6119.25   1
   1  -7   6 264277. 6883.41   1
   7  -6  -5 168799. 4709.89   1
   6   1   5 160245. 4768.76   1
   6  -7   5 155457. 5030.47   1
  -6  -1  -5 141119. 4578.74   1
   1   6   5 144225. 4760.02   1
  -6   7  -5 153972. 5078.43   1
  -7   6   5 141747. 4473.32   1
  -1   7  -5 140055. 4734.06   1
   1  -7   5 157734. 5033.46   1
  -1  -6  -5 154772. 4906.28   1
   1   6   5 139305. 4562.99   2
   6   1   5 144940. 4760.51   2
   6   1   4 106188. 3607.64   1
   7  -6  -4 94312.4 3414.97   1
  -6  -1  -4 108128. 3670.48   1
   1   6   4 104070. 3881.36   1
  -7   6   4 97854.3 3550.52   1
   1  -7   4 101715. 3917.75   1
  -1   7  -4 97596.4 3792.33   1
  -1  -6  -4 94626.3 3703.87   1
  -6   7  -4 99087.9 3918.69   1
   6   1   4 98118.7 3729.50   2
   7  -1  -4 111362. 3624.11   2
   1   6   4 97069.3 3627.89   2
   6  -7   4 98429.3 3852.05   1
   7  -6  -3 4372.30 686.557   1
   6   1   3 4036.90 632.576   1
   1  -7   3 3103.02 706.944   1
  -1  -6  -3 4368.52 835.769   1
  -1   7  -3 3463.41 744.236   1
   6  -7   3 3148.25 688.924   1
   1   6   3 3738.22 704.568   1
  -6  -1  -3 3487.16 591.325   1
   7  -1  -3 3317.24 626.381   2
  -7   6   3 3688.02 714.103   1
   6   1   3 4158.86 769.866   2
  -6   7  -3 4178.44 833.963   1
   1   6   3 3832.69 697.642   2
  -6  -1  -2 331915. 6973.33   1
   1  -7   2 332891. 7951.30   1
   1   6   2 327699. 7640.65   1
   7  -6  -2 333260. 7440.98   1
  -6   7  -2 316140. 7762.32   1
   6  -7   2 315391. 7735.52   1
  -1   7  -2 321307. 7702.30   1
  -7   6   2 318920. 7440.81   1
   7  -1  -2 327763. 7359.13   2
   6   1   2 321843. 7424.17   2
   1   6   2 316746. 7372.59   2
  -1  -6  -2 315943. 7639.64   1
   1  -7   1 952.941 490.071   1
   1   6   1 1156.49 487.443   1
  -1  -6  -1 1227.28 394.949   1
  -1   7  -1 50.7727 257.913   1
   7  -1  -1 648.131 368.584   2
   6   1   1 665.119 275.883   2
  -6   7  -1 73.8533 266.940   1
   6  -7   1 292.801 361.017   1
  -7   6   1 202.813 208.174   1
   7  -6  -1 22.2789 323.207   1
   1   6   1 622.161 398.578   2
  -1  -6   0 44394.1 2347.38   1
   1  -7   0 45585.7 2493.24   1
   1   6   0 47260.8 2412.04   1
  -1   7   0 48829.1 2545.41   1
   6   1   0 48140.6 2310.34   2
   6  -7   0 48978.2 2501.84   1
  -6   7   0 44833.0 2456.81   1
   7  -1   0 47637.7 2353.25   2
   7  -6   0 45026.0 2302.60   1
  -7   6   0 44231.8 2319.41   1
   1   6   0 45485.2 2311.48   2
  -1   7   1 218116. 5913.03   2
  -1  -6   1 211412. 5800.74   1
   1  -7  -1 221143. 6090.45   1
   6   1  -1 231745. 5574.58   2
   1   6  -1 209860. 5714.43   1
  -1   7   1 204429. 5958.86   1
   6  -7  -1 204366. 5801.72   1
  -6   7   1 229685. 6112.42   1
   7  -1   1 220566. 5823.01   2
  -7   6  -1 211942. 5802.46   1
   7  -6   1 223570. 5810.31   1
   1   6  -1 209316. 5568.81   2
   1  -7  -2 145736. 4811.13   1
  -1  -6   2 147258. 4639.93   1
  -7   6  -2 148995. 4803.95   1
   6  -7  -2 157681. 4839.75   1
  -1   7   2 142610. 4788.53   1
   1   6  -2 161609. 4745.38   1
  -6   7   2 148438. 4779.57   1
   7  -1   2 148765. 4705.82   2
   6   1  -2 148724. 4238.25   2
   7  -6   2 151861. 4699.95   1
   1   6  -2 156863. 4482.08   2
  -1   7   2 164723. 4866.17   2
  -7   1  -2 161196. 4213.95   1
   7  -6   3 234439. 6260.71   1
   6  -7  -3 226162. 6210.52   1
  -1  -6   3 248473. 6353.65   1
  -1   7   3 255402. 6710.19   1
   1   6  -3 246861. 6217.75   1
  -6   7   3 233645. 6352.86   1
   7  -1   3 246235. 6437.66   2
   6   1  -3 245298. 5662.42   2
  -7   6  -3 238041. 6437.77   1
   1   6  -3 241144. 5865.52   2
  -1   7   3 244672. 6400.79   2
   1  -7  -3 232565. 6531.53   1
  -7   1  -3 255225. 5983.63   1
   7  -1   3 260776. 5991.65   1
   7  -1   4 9296.37 1017.94   1
   6  -7  -4 11112.9 1178.92   1
   7  -6   4 9676.49 1196.60   1
  -1  -6   4 9051.85 1064.57   1
  -1   7   4 10872.1 1218.35   1
  -6   7   4 10720.5 1166.17   1
   1  -7  -4 8546.87 1123.26   1
  -7   6  -4 10225.9 1200.82   1
   1   6  -4 10116.5 1087.08   1
   7  -6   4 12832.0 1443.32   2
   7  -1   4 10232.9 1179.68   2
   1   6  -4 8882.63 968.124   2
  -1   7   4 9406.39 1049.97   2
  -7   1  -4 8802.89 1009.58   1
  -7   1  -5 114885. 3994.76   1
   7  -1   5 118517. 4063.76   1
   6  -7  -5 109024. 3951.05   1
   7  -1   5 113867. 4186.47   2
  -1   7   5 121307. 4313.96   1
   7  -6   5 104026. 4231.24   2
   7  -6   5 110578. 4146.93   1
  -1  -6   5 120144. 4125.80   1
  -6   7   5 101186. 3943.83   1
   1   6  -5 110915. 3871.90   1
  -7   6  -5 110548. 4215.34   1
   1  -7  -5 110310. 4167.27   1
  -1   7   5 106912. 3948.36   2
  -7   1  -6 355722. 8271.39   1
   7  -1   6 370416. 8376.10   1
   1  -7  -6 341684. 8382.71   1
  -1   7   6 318964. 8270.80   1
  -6   7   6 344365. 8312.54   1
  -1  -6   6 361519. 8247.29   1
   7  -6   6 346622. 8444.63   1
   1   6  -6 335844. 7954.69   1
   7  -1   6 351481. 8413.46   2
  -7   6  -6 362997. 8674.40   1
  -1   7   6 357409. 8262.60   2
   7  -6   6 352046. 8787.19   2
   6  -7  -6 359053. 8256.63   1
   7  -1   7 82001.3 3542.93   1
  -7   1  -7 87676.4 3647.66   1
  -1   7   7 79790.9 3582.00   1
  -6   7   7 79834.2 3461.44   1
  -1  -6   7 94795.7 3665.02   1
   1   6  -7 97041.0 3637.84   1
   7  -6   7 74286.3 3598.01   2
   7  -1   7 81927.2 3595.69   2
  -7   6  -7 77267.1 3590.30   1
   1  -7  -7 84104.9 3630.49   1
   7  -6   7 83332.3 3624.98   1
   6  -7  -7 75164.4 3299.57   1
  -1   7   7 76950.6 3336.15   2
   7  -1   8 106043. 4106.55   1
  -7   1  -8 105662. 4125.23   1
   1  -7  -8 99347.4 3946.02   1
  -1   7   8 89529.8 3862.63   1
   6  -7  -8 91376.3 3735.74   1
  -6   7   8 93773.3 3845.12   1
  -1  -6   8 96961.9 3845.30   1
   7  -6   8 89810.3 3997.26   2
   7  -1   8 94221.2 3940.84   2
   7  -6   8 94868.4 3997.44   1
  -7   6  -8 93981.7 3992.82   1
   1   6  -8 95334.5 3724.29   1
  -1   7   8 96301.0 3838.50   2
   7  -1   9 29865.0 2224.17   1
  -7   1  -9 29051.9 2196.56   1
  -1   7   9 29641.8 2184.46   1
  -6   7   9 30326.1 2129.71   1
   7  -1   9 26695.5 2078.53   2
  -1   7   9 29193.3 2015.69   2
  -7   6  -9 26844.0 2120.34   1
   7  -6   9 26512.5 2153.40   2
   1   6  -9 27507.0 1952.76   1
   1  -7  -9 28413.5 2111.03   1
   7  -6   9 27907.3 2150.09   1
  -1  -6   9 31790.0 2141.63   1
   6  -7  -9 33717.6 2146.14   1
  -7   1 -10 103085. 4355.76   1
  -1   7  10 106959. 4326.60   1
  -6   7  10 111845. 4326.52   1
  -7   6 -10 113190. 4536.30   1
   7  -6  10 104326. 4416.33   2
   1   6 -10 104483. 4108.40   1
   6  -7 -10 113622. 4229.33   1
  -1  -6  10 114853. 4337.15   1
   7  -1  10 101944. 4288.44   2
   7  -1  10 116063. 4631.67   1
  -1   7  10 108726. 4178.65   2
   1  -7 -10 113289. 4354.73   1
   7  -6  10 108081. 4474.50   1
   1  -7 -11 3819.97 823.819   1
  -7   6 -11 5569.77 1003.72   1
   6  -7 -11 4770.69 946.093   1
   7  -1  11 5891.99 1036.93   1
   7  -6  11 4713.63 884.965   1
  -7   1 -11 7186.93 1098.84   1
  -1   7  11 6217.24 1088.71   1
  -6   7  11 6029.34 1020.80   1
   7  -6  11 5438.93 1046.79   2
   7  -1  11 6604.81 1066.58   2
  -1   7  11 4449.80 862.224   2
  -6   7  11 6485.15 1157.91   2
  -7   1 -12 21541.2 1957.32   1
   7  -6  12 19386.4 1879.75   1
  -1   7  12 21087.4 1909.88   1
  -6   7  12 18610.6 1750.36   1
   7  -6  12 17151.5 1824.50   2
   1  -7 -12 21324.1 1892.25   1
   6  -7 -12 22590.6 1854.27   1
   7  -1  12 16344.3 1718.43   2
  -7   6 -12 20476.8 1921.59   1
  -1   7  12 21963.2 1872.01   2
   7  -1  12 20493.7 1980.20   1
  -6   7  12 18885.1 1775.54   2
   7  -1  13 13804.1 1630.88   1
  -7   1 -13 13688.7 1546.52   1
   7  -6  13 15014.4 1713.72   1
  -1   7  13 13780.6 1637.73   1
  -6   7  13 16594.9 1610.68   1
   7  -1  13 14989.4 1574.10   2
   1  -7 -13 14999.3 1592.15   1
   6  -7 -13 12404.8 1465.90   1
   7  -6  13 12704.7 1518.16   2
  -7   6 -13 16978.1 1785.79   1
  -1   7  13 16039.3 1660.99   2
  -6   7  13 12415.9 1444.15   2
  -7   1 -14 78127.4 3880.56   1
   7  -1  14 71291.5 3922.55   1
   7  -6  14 87411.8 4170.23   1
  -1   7  14 85919.0 4013.97   1
  -6   7  14 81211.6 3907.85   1
   1  -7 -14 88807.8 3967.63   1
   7  -6  14 73592.9 3944.48   2
   7  -1  14 75554.5 3814.45   2
  -1   7  14 83928.0 4015.47   2
  -7   6 -14 75227.0 3922.81   1
  -6   7  14 61537.5 3552.25   2
  -7   1 -15 48147.2 3080.19   1
   7  -1  15 52614.4 3323.78   1
  -1   7  15 54810.8 3235.64   1
  -1   7  15 49194.8 3049.62   2
   7  -6  15 53253.5 3227.53   1
   1  -7 -15 54057.8 3110.40   1
   7  -6  15 47868.5 3111.06   2
   7  -1  15 46811.9 3040.47   2
  -7   6 -15 51193.3 3167.89   1
  -7   6 -16-53.3402 413.280   1
   7  -1  16 1110.95 632.015   1
  -7   1 -16 1591.45 624.630   1
  -1   7  16 2179.12 633.846   1
   7  -6  16-367.627 424.318   2
   7  -1  16 193.614 441.133   2
   1  -7 -16 2486.26 686.808   1
   7  -6  16 617.731 537.558   1
  -1   7  16 402.816 340.227   2
   7  -1  17 58591.6 3631.42   1
  -1   7  17 59757.9 3456.12   1
   7  -6  17 59908.9 3544.60   1
   7  -6  17 42411.8 3196.40   2
   1  -7 -17 54113.6 3205.62   1
   7  -1  17 57588.3 3400.27   2
  -1   7  17 54959.3 3348.11   2
  -7   6 -17 53615.9 3337.22   1
  -7   1 -17 56099.8 3374.00   1
   0   7   0 112.659 299.734   1
   7   0   0-323.222 335.644   2
   7  -7   0 227.548 238.422   1
   0  -7   0-159.191 349.154   1
  -7   7   0 330.925 244.347   1
   0   7   0 520.525 401.370   2
   7   0  -1 3400.10 596.472   2
   7  -7  -1 4423.25 800.114   1
   0   7   1 3131.00 710.212   1
   0   7  -1 3042.44 717.839   1
   0  -7  -1 3651.54 694.903   1
  -7   7   1 4824.88 783.849   1
   7   0   1 4915.75 761.710   2
  -7   7  -1 3887.37 754.076   1
   0  -7   1 3425.24 731.557   1
   7  -7   1 2965.11 614.475   1
   0   7   1 3548.61 704.752   2
   0   7  -1 3615.01 739.160   2
   0  -7   2 150893. 4955.70   1
   7  -7  -2 161077. 4951.50   1
   0   7   2 161506. 5151.63   1
   0   7  -2 163508. 5036.72   1
   0  -7  -2 156631. 5077.81   1
  -7   7   2 173171. 5149.39   1
   7   0  -2 159382. 4654.11   2
   7   0   2 160092. 4941.28   2
  -7   7  -2 147196. 5005.56   1
   7  -7   2 161646. 5031.65   1
   0   7   2 165954. 4972.66   2
   0   7  -2 173994. 4994.33   2
   7  -7  -3 245691. 6456.50   1
   0  -7   3 258285. 6866.93   1
   0   7   3 247881. 6687.13   1
  -7   7  -3 257107. 6889.31   1
  -7   7   3 247762. 6574.19   1
   0   7  -3 251103. 6642.57   1
   7   0   3 256568. 6644.64   2
   0  -7  -3 257173. 6817.00   1
   7  -7   3 227251. 6482.37   1
   0   7  -3 260068. 6494.15   2
   0   7   3 252377. 6521.87   2
   7  -7   4 115163. 4256.65   1
  -7   0  -4 109040. 3808.40   1
   7  -7  -4 107940. 3899.27   1
   0   7   4 118733. 4249.05   1
   0  -7   4 102926. 4029.13   1
  -7   7  -4 112590. 4282.12   1
  -7   7   4 109933. 4020.20   1
   0   7  -4 104765. 3965.65   1
   0  -7  -4 105769. 4093.32   1
   7   0   4 105398. 4002.87   2
   0   7   4 110985. 3984.83   2
   0   7  -4 98547.4 3682.80   2
   7   0   5 143031. 4550.27   1
   7  -7  -5 143182. 4590.24   1
  -7   0  -5 136803. 4513.52   1
   7  -7   5 130042. 4653.88   1
   0   7   5 129185. 4650.07   1
  -7   7   5 130689. 4497.59   1
   0  -7   5 139016. 4775.13   1
   7   0   5 129139. 4593.47   2
   0   7  -5 149212. 4778.64   1
  -7   7  -5 125909. 4660.86   1
   0  -7  -5 129927. 4620.27   1
   0   7   5 133417. 4542.13   2
   7   0   6 235053. 6334.86   1
  -7   0  -6 225704. 6254.70   1
   7  -7   6 204012. 6301.05   1
   0   7   6 226867. 6490.62   1
  -7   7   6 236637. 6383.26   1
   0  -7   6 218929. 6307.66   1
   0   7  -6 224124. 6305.14   1
   7   0   6 226166. 6447.43   2
  -7   7  -6 226001. 6555.97   1
   0  -7  -6 203598. 6156.08   1
   0   7   6 221412. 6124.45   2
   7  -7  -6 217451. 6026.77   1
   7   0   7 25842.3 1941.60   1
  -7   0  -7 24774.6 1918.64   1
   0   7   7 22124.4 1851.34   1
   7  -7   7 23876.9 1962.48   1
  -7   7   7 24568.7 1837.85   1
   0   7  -7 25096.0 1901.89   1
   0  -7   7 22484.4 1795.57   1
   7   0   7 21990.0 1830.91   2
   0  -7  -7 26400.9 1944.04   1
  -7   7  -7 25494.7 2023.56   1
   7  -7  -7 26088.0 1840.06   1
   0   7   7 23570.7 1827.71   2
  -7   0  -8 20153.9 1756.85   1
   0   7   8 18022.0 1684.44   1
  -7   7   8 19876.1 1703.65   1
   0  -7  -8 20411.9 1754.60   1
   7  -7   8 21120.7 1871.03   1
   7   0   8 16313.1 1651.28   1
   0   7  -8 19871.8 1708.22   1
   7   0   8 18372.4 1736.18   2
   0  -7   8 17766.8 1629.63   1
  -7   7  -8 20229.4 1838.84   1
   7  -7  -8 21290.8 1727.07   1
   0   7   8 18600.2 1627.34   2
   7   0   9 59865.5 3236.82   1
  -7   0  -9 64135.1 3279.57   1
   0   7   9 64753.1 3213.24   1
  -7   7   9 60052.5 3063.88   1
   7  -7  -9 69281.8 3137.26   1
   7  -7   9 57062.6 3221.79   1
   7  -7   9 58118.7 3332.43   2
   0   7  -9 67146.1 3239.95   1
   0  -7  -9 56384.2 3044.42   1
   7   0   9 62595.2 3222.03   2
   0  -7   9 63656.3 3232.12   1
  -7   7  -9 65021.2 3353.83   1
   0   7   9 62794.0 3128.68   2
   7   0  10 109585. 4503.29   1
  -7   0 -10 106186. 4362.24   1
   0  -7  10 111184. 4450.12   1
   0   7  10 102364. 4323.55   1
  -7   7  10 102507. 4180.47   1
   7   0  10 106345. 4327.66   2
   0  -7 -10 109660. 4330.26   1
   7  -7  10 99313.4 4504.59   2
   7  -7  10 104059. 4426.70   1
   0   7 -10 99154.0 4169.14   1
  -7   7 -10 103903. 4491.14   1
   0   7  10 109425. 4260.62   2
   7   0  11 22630.1 1996.82   1
  -7   0 -11 20206.6 1893.19   1
   0   7  11 18244.6 1795.19   1
   0  -7 -11 20741.5 1834.92   1
   7  -7  11 19180.6 1888.49   2
   0   7 -11 18655.7 1772.49   1
   7   0  11 17365.7 1740.45   2
   7  -7  11 19363.0 1848.68   1
  -7   7 -11 20408.7 1858.12   1
   0  -7  11 19995.2 1883.53   1
   0   7  11 20904.8 1769.55   2
  -7   7 -12 9056.58 1241.32   1
   7   0  12 8966.59 1326.03   1
   0   7  12 9669.08 1333.96   1
  -7   0 -12 8072.25 1214.13   1
   0  -7  12 9457.39 1297.24   1
   7  -7  12 6926.61 1207.87   2
   7   0  12 7087.28 1136.29   2
   7  -7  12 8571.17 1349.30   1
   0  -7 -12 9978.29 1241.84   1
   0   7  12 9228.19 1195.72   2
  -7   7  12 4398.05 947.303   2
   7   0  13 10839.8 1437.02   1
   0   7  13 12578.5 1492.72   1
   7  -7  13 11351.5 1573.04   2
  -7   0 -13 9471.63 1311.80   1
   7   0  13 11257.4 1370.36   2
   0  -7 -13 11933.4 1393.38   1
  -7   7 -13 10483.6 1471.65   1
   7  -7  13 11074.1 1445.59   1
   0   7  13 10094.9 1342.84   2
  -7   7  13 7258.81 1251.19   2
   7   0  14 72245.5 3939.77   1
  -7   0 -14 78159.1 3981.50   1
   0   7  14 87295.8 4062.78   1
   0  -7 -14 87568.7 3998.00   1
   7  -7  14 70036.0 3897.08   2
   7   0  14 80402.0 3927.18   2
  -7   7 -14 82073.5 4050.20   1
   7  -7  14 85813.7 4160.47   1
   0   7  14 80876.4 3906.36   2
   7   0  15 28113.1 2384.10   1
  -7   0 -15 29374.9 2416.89   1
   0   7  15 33101.7 2526.00   1
   0  -7 -15 33907.7 2437.48   1
   7  -7  15 28734.5 2537.93   2
   7   0  15 27506.2 2317.45   2
  -7   7 -15 29301.5 2401.59   1
   0   7  15 30053.5 2401.59   2
   7  -7  15 29943.6 2447.92   1
  -7   7 -16 10007.6 1373.97   1
   7   0  16 8985.17 1364.03   1
   0   7  16 11909.5 1550.87   1
  -7   0 -16 8799.28 1348.55   1
   0  -7 -16 14205.6 1592.28   1
   0   7  16 9448.10 1389.64   2
   7   0  16 10768.0 1413.23   2
   7  -7  16 10907.3 1461.48   1
   7   0  17 20998.8 2188.33   1
  -7   0 -17 23936.1 2172.42   1
   4  -8  17 1019.06 566.623   1
  -4   8 -17-134.859 346.121   1
   4   4  16 160081. 6010.74   1
  -4  -4 -16 167048. 5868.45   1
   4  -8  16 156444. 5996.33   1
  -4   8 -16 148876. 5842.36   1
   4   4  16 155407. 5620.18   2
   4   4  15 85.3511 407.934   1
   4  -8  15 130.766 379.538   1
  -4  -4 -15-346.686 389.471   1
   4   4  15-572.061 475.790   2
  -4   8 -15-429.336 488.472   1
   4   4  14 5407.85 1013.92   1
   4  -8  14 6115.06 1071.31   1
  -4  -4 -14 6781.66 1140.23   1
   4   4  14 6508.05 1076.67   2
  -4   8 -14 6744.07 1179.51   1
  -4  -4 -13 571.999 491.011   1
   4  -8  13-219.295 512.067   1
  -4   8 -13 338.096 408.995   1
   4   4  13 448.015 421.785   1
   4   4  13 1228.74 494.361   2
   4   4  12 175651. 6085.73   1
   4  -8  12 180836. 6138.76   1
  -4  -4 -12 186999. 6062.58   1
  -4   8 -12 174982. 6026.01   1
   4   4  12 188606. 5960.40   2
   4  -8  11 348.221 348.015   1
   4   4  11 354.445 368.961   1
   4   4  11-263.749 375.186   2
  -4  -4 -11-136.335 331.531   1
  -4   8 -11-443.315 401.096   1
   4  -8  10 524.856 443.921   1
   4   4  10 590.824 543.552   1
  -4  -4 -10 523.867 438.633   1
   4   4  10 134.739 299.642   2
  -4   8 -10 664.765 537.590   1
   4   4   9 112.736 409.371   1
  -4  -4  -9 406.518 423.490   1
   4   4   9 761.076 448.949   2
  -4   8  -9 1127.97 499.430   1
   4  -8   9 906.340 498.944   1
   4   4   8 308502. 7802.67   1
  -4  -4  -8 285452. 7582.51   1
   4   4   8 298592. 7584.53   2
   4  -8   8 300926. 7916.54   1
   4   4   7 54.7601 249.072   1
   4  -8   7-450.752 345.066   1
  -4  -4  -7 660.143 468.958   1
  -4   8  -7-920.636 490.591   1
   4   4   7 89.2743 242.677   2
   4   4   6 67699.6 3131.95   1
  -4  -4  -6 68418.8 3151.36   1
  -4   8  -6 70240.3 3318.88   1
   4   4   6 61426.7 2945.41   2
   4  -8   6 65360.7 3236.12   1
   4  -8   5-322.176 281.440   1
   4   4   5 250.489 239.656   1
  -4   8  -5 31.8883 356.245   1
   4   4   5 14.0498 252.124   2
  -4  -4  -5 254.902 330.300   1
   4   4   4 207685. 5815.24   1
  -4  -4  -4 227856. 5977.20   1
  -4   8  -4 205715. 6129.35   1
   4  -8   4 206920. 6181.53   1
   4   4   4 215322. 5897.56   2
   4   4   3 337.234 341.019   1
   4   4   3 422.090 280.680   2
   4  -8   3-145.142 316.257   1
  -4   8  -3 431.639 477.454   1
  -4  -4  -3 625.698 386.448   1
   4   4   2 103118. 3557.25   1
   4  -8   2 104655. 4098.55   1
  -4   8  -2 104193. 4089.57   1
  -4  -4  -2 114476. 3768.39   1
   4   4   2 109424. 3822.80   2
  -4  -4  -1 1089.61 436.424   1
   4  -8   1 633.450 394.692   1
   4   4   1 581.782 350.652   1
  -4   8  -1 56.4855 407.960   1
   8  -4  -1 936.365 469.257   2
   4   4   1 395.009 258.758   2
   8  -4   0 652217. 13257.6   2
   4  -8   0 678836. 13327.5   1
  -4   8   0 680210. 13231.3   1
   4   4   0 646934. 12428.9   2
   8  -4   1-101.200 242.393   1
   4  -8  -1 711.310 426.525   1
  -4  -4   1-254.041 253.384   1
   4   4  -1 275.741 258.763   1
   8  -4   1 137.187 293.368   2
  -4   8   1 903.019 495.963   1
   4   4  -1 54.6664 246.270   2
  -8   4  -1 111.027 192.545   1
   4  -8  -2 13095.9 1351.82   1
  -8   4  -2 14410.0 1277.99   1
   8  -4   2 14159.3 1207.21   1
  -4   8   2 15379.5 1476.57   1
   8  -4   2 15719.3 1494.16   2
   4   4  -2 18596.8 1329.88   2
  -8   4  -3-264.518 248.694   1
   8  -4   3 124.280 301.541   2
   4  -8  -3 495.716 441.269   1
  -4   8   3 286.452 340.398   1
   8  -4   3-215.677 218.324   1
   4  -8  -4 356031. 8637.87   1
  -4   8   4 362749. 8830.18   1
   8  -4   4 363040. 8852.82   2
  -8   4  -4 374189. 8515.22   1
   8  -4   4 382049. 8424.41   1
  -8   4  -5 370.639 379.839   1
   8  -4   5 839.215 438.803   1
   4  -8  -5 229.963 324.825   1
   8  -4   5-574.859 324.100   2
  -4   8   5 149.174 382.095   1
  -4   8   6 13102.8 1465.22   1
   8  -4   6 11555.5 1374.96   2
  -8   4  -6 15293.1 1497.48   1
   4  -8  -6 16107.6 1546.70   1
  -8   4  -7-490.712 509.777   1
   4  -8  -7 448.540 367.752   1
  -4   8   7 446.485 431.826   1
   8  -4   7 579.514 489.718   2
   8  -4   7 337.189 394.854   1
  -4   8   8 150660. 5248.43   1
   8  -4   8 158142. 5323.10   1
   4  -8  -8 140079. 5034.58   1
   8  -4   8 153091. 5345.72   2
  -8   4  -8 160143. 5406.36   1
  -4   8   8 160052. 5408.63   2
  -8   4  -9 22.1353 337.072   1
   4  -8  -9 30.3020 329.741   1
  -4   8   9 136.675 318.676   1
   8  -4   9 193.807 324.996   2
   8  -4   9-230.498 414.294   1
  -4   8   9 66.0067 350.120   2
  -8   4 -10 3130.05 762.067   1
   4  -8 -10 1690.35 601.950   1
  -4   8  10 2511.92 657.803   1
   8  -4  10 2267.51 708.315   1
   8  -4  10 3020.52 818.153   2
  -4   8  10 3507.91 772.896   2
   8  -4  11 446.290 312.047   1
   4  -8 -11 48.2855 327.379   1
  -8   4 -11-546.465 498.277   1
  -4   8  11-217.704 324.768   1
   8  -4  11 208.276 363.377   2
  -4   8  11-773.979 501.458   2
  -4   8  12 237977. 7030.80   1
   4  -8 -12 230472. 6826.92   1
   8  -4  12 227586. 7131.32   2
  -4   8  12 231110. 6977.83   2
  -8   4 -12 232543. 7206.75   1
   8  -4  12 225020. 7161.00   1
  -8   4 -13 654.769 536.713   1
  -4   8  13 428.198 404.582   1
   8  -4  13 272.127 473.323   2
  -4   8  13 151.754 353.996   2
   4  -8 -13 1167.76 583.684   1
  -8   4 -14 610.408 509.074   1
  -4   8  14 478.548 257.350   1
   8  -4  14 318.087 522.364   2
   4  -8 -14 528.930 364.268   1
  -4   8  14-263.115 457.825   2
  -8   4 -15 169.103 391.974   1
  -4   8  15 395.133 449.198   1
   8  -4  15-134.477 452.049   2
   4  -8 -15 673.886 521.212   1
  -4   8  15 382.912 431.404   2
  -4   8  16 144056. 5550.39   1
   4  -8 -16 132912. 5265.54   1
   8  -4  16 149196. 5810.88   2
  -4   8  16 135153. 5493.16   2
  -8   4 -16 152187. 5802.82   1
  -4   8  17-316.363 329.498   1
   8  -4  17-192.727 321.609   2
   4  -8 -17 160.582 339.832   1
  -4   8  17 258.256 432.812   2
   3  -8  17 30370.4 2550.60   1
  -3   8 -17 29584.3 2472.92   1
   5   3  16 54712.9 3304.29   1
   3   5  16 56242.1 3369.56   1
  -5  -3 -16 54047.5 3219.97   1
   3  -8  16 47871.5 3205.42   1
  -3  -5 -16 55267.7 3192.16   1
   5  -8  16 54269.7 3355.46   1
  -3   8 -16 44296.2 3059.26   1
   5   3  16 58427.6 3244.77   2
  -5   8 -16 46789.9 3134.16   1
   3   5  16 50577.6 3056.68   2
   5   3  15 67352.4 3702.42   1
   3   5  15 66409.4 3696.07   1
  -5  -3 -15 65681.0 3530.15   1
   3  -8  15 66120.8 3705.59   1
  -3  -5 -15 68054.4 3545.60   1
   5  -8  15 69857.0 3805.92   1
  -3   8 -15 70083.6 3759.20   1
  -5   8 -15 66935.2 3695.74   1
   3   5  15 66825.5 3476.07   2
   5   3  15 68135.6 3506.08   2
   5   3  14 69083.7 3712.24   1
   3   5  14 68816.6 3672.45   1
   3  -8  14 68420.7 3703.22   1
  -5  -3 -14 73195.4 3722.18   1
  -3  -5 -14 80534.5 3843.33   1
   5  -8  14 77683.2 3952.48   1
  -3   8 -14 63332.2 3574.48   1
   5   3  14 71587.8 3588.72   2
  -5   8 -14 72756.5 3817.81   1
   3   5  14 72015.7 3622.42   2
   3  -8  13 2818.25 817.047   1
   5   3  13 3493.67 897.445   1
   3   5  13 3272.40 811.786   1
   5  -8  13 4863.17 978.037   1
  -5  -3 -13 4127.09 848.871   1
  -3  -5 -13 3583.79 898.250   1
   5   3  13 3961.85 861.067   2
   3   5  13 3501.61 879.825   2
  -3   8 -13 3540.17 810.887   1
  -5   8 -13 3216.88 793.086   1
   3  -8  12 634.080 471.689   1
  -5   8 -12-179.360 361.219   1
   5   3  12 342.227 430.081   1
   5  -8  12 407.639 427.197   1
   3   5  12 956.046 487.275   1
  -5  -3 -12 694.534 431.735   1
   5   3  12 781.424 418.093   2
   3   5  12-561.483 451.777   2
  -3  -5 -12 121.465 427.138   1
  -3   8 -12 909.806 510.881   1
   5  -8  11 7017.28 1165.87   1
   5   3  11 8542.29 1240.16   1
   3   5  11 9232.01 1265.02   1
  -5   8 -11 7918.18 1143.88   1
  -5  -3 -11 8277.11 1128.66   1
   5   3  11 9915.17 1252.94   2
  -3  -5 -11 7338.26 1099.85   1
   3   5  11 7295.43 1097.57   2
  -3   8 -11 7668.43 1180.22   1
   3  -8  11 7020.28 1142.80   1
   5   3  10 118703. 4723.47   1
   3   5  10 114734. 4560.42   1
   5  -8  10 118744. 4770.61   1
  -5  -3 -10 108110. 4420.06   1
  -3  -5 -10 121299. 4568.23   1
  -3   8 -10 122649. 4730.06   1
  -5   8 -10 113438. 4646.37   1
   5   3  10 111748. 4383.70   2
   3   5  10 117543. 4440.86   2
   3  -8  10 121035. 4731.57   1
   5   3   9 197509. 6106.37   1
   5  -8   9 182481. 5942.92   1
   3   5   9 184481. 5882.39   1
  -5  -3  -9 192218. 5930.82   1
  -3  -5  -9 175933. 5705.88   1
  -3   8  -9 174188. 5837.49   1
  -5   8  -9 192941. 6108.45   1
   5   3   9 176463. 5634.40   2
   3   5   9 189739. 5763.48   2
   3  -8   9 183867. 5972.33   1
   5  -8   8 36328.2 2425.09   1
   5   3   8 41119.2 2521.03   1
   3   5   8 34793.4 2346.46   1
  -3   8  -8 34272.9 2369.15   1
  -5  -3  -8 34121.0 2287.84   1
  -3  -5  -8 39910.4 2463.05   1
  -5   8  -8 40883.6 2575.17   1
   5   3   8 35148.3 2305.29   2
   3   5   8 36881.5 2275.06   2
   3  -8   8 41166.3 2590.97   1
   5   3   7 56809.7 2915.53   1
   3   5   7 62536.1 3034.48   1
  -5  -3  -7 55841.9 2899.61   1
  -3   8  -7 57924.8 3031.71   1
  -3  -5  -7 61784.4 3033.82   1
  -5   8  -7 57264.2 3053.46   1
   3   5   7 54078.6 2831.41   2
   3  -8   7 62295.5 3156.74   1
   5   3   7 52676.3 2835.94   2
   5  -8   7 60698.9 3098.84   1
   5   3   6 272162. 7046.23   1
   3   5   6 283337. 7219.65   1
  -5  -3  -6 291808. 7241.89   1
  -3  -5  -6 266966. 7081.03   1
  -3   8  -6 270766. 7313.20   1
  -5   8  -6 277495. 7445.03   1
   5   3   6 270731. 7062.38   2
   3  -8   6 261634. 7252.71   1
   3   5   6 280238. 7121.77   2
   5  -8   6 269738. 7338.75   1
  -3  -5  -5 567.566 363.284   1
   5   3   5 449.087 449.447   1
   5  -8   5 980.531 377.583   1
   3   5   5 185.630 238.909   1
  -3   8  -5 358.826 372.138   1
  -5  -3  -5-107.499 324.538   1
   5   3   5 704.464 302.079   2
  -5   8  -5 1191.64 575.713   1
   3  -8   5 97.6817 340.839   1
   3   5   5 473.948 281.841   2
   5   3   4 55062.1 2587.79   1
   3   5   4 57016.8 2718.19   1
  -5  -3  -4 53187.4 2624.26   1
  -3   8  -4 54669.1 2826.25   1
  -3  -5  -4 50070.7 2619.70   1
   3  -8   4 52888.7 2891.81   1
  -5   8  -4 52784.1 2865.09   1
   5   3   4 51575.5 2651.17   2
   5  -8   4 53112.9 2863.90   1
   3   5   4 52381.5 2648.21   2
   5   3   3 130056. 4141.51   1
   3   5   3 131717. 4264.98   1
  -5  -3  -3 136006. 4245.73   1
   3  -8   3 126881. 4585.27   1
  -3   8  -3 123366. 4501.35   1
  -3  -5  -3 127199. 4283.71   1
   5  -8   3 120195. 4438.75   1
  -5   8  -3 120933. 4469.25   1
   5   3   3 118844. 4152.50   2
   3   5   3 124125. 4261.38   2
   5   3   2 116615. 3715.21   1
   3   5   2 118947. 3949.83   1
  -5  -3  -2 109103. 3679.65   1
   3  -8   2 100906. 4092.40   1
  -8   5   2 110095. 3566.33   1
  -3   8  -2 106273. 4106.46   1
  -5   8  -2 111909. 4251.52   1
   8  -3  -2 122606. 4304.30   2
   5  -8   2 111346. 4209.83   1
   5   3   2 111466. 3883.17   2
   3   5   2 116663. 4008.39   2
  -3  -5  -2 124509. 4070.05   1
  -8   5   1 150515. 4404.75   1
   3   5   1 144237. 4477.92   1
   3  -8   1 149252. 5081.96   1
  -5  -3  -1 161829. 4446.03   1
  -3   8  -1 158020. 5125.27   1
   5  -8   1 138552. 4881.00   1
  -5   8  -1 152360. 5033.35   1
  -3  -5  -1 159099. 4720.02   1
   8  -3  -1 160430. 5084.24   2
   8  -5  -1 164676. 4490.42   1
   5   3   1 155152. 4697.11   2
   3   5   1 156037. 4728.73   2
   8  -5   0 3024.27 575.604   1
   3  -8   0 3051.78 749.336   1
  -3  -5   0 4819.28 784.728   1
   5  -8   0 3367.90 687.648   1
   3   5   0 4859.61 674.785   1
   8  -3   0 3769.44 757.609   2
  -3   8   0 4391.32 797.921   1
  -5   8   0 4865.33 792.536   1
   5   3   0 3779.25 661.208   2
  -8   5   0 3990.24 697.094   1
   3   5   0 4745.68 756.743   2
   5  -8  -1 10285.6 1208.97   1
   3  -8  -1 11144.4 1303.24   1
   3   5  -1 10675.0 1059.91   1
  -8   5  -1 9438.72 1034.43   1
  -3   8   1 11542.0 1299.65   1
  -5   8   1 9933.41 1195.00   1
   8  -3   1 10291.2 1213.87   2
   8  -5   1 10574.9 1236.10   2
   5   3  -1 11403.4 1104.10   2
   3   5  -1 10438.8 1109.43   2
  -3  -5   1 10276.8 1048.59   1
   8  -5   1 9854.93 1033.84   1
   8  -5   2 441354. 8959.62   1
   3  -8  -2 389340. 9311.99   1
   5  -8  -2 402014. 9243.53   1
   3   5  -2 407768. 8533.07   1
  -3   8   2 400511. 9425.81   1
  -5   8   2 406339. 9359.87   1
   8  -5   2 415698. 9656.91   2
   8  -3   2 396118. 9250.81   2
  -8   5  -2 425561. 9007.54   1
  -8   3  -2 405297. 8468.68   1
   3   5  -2 423826. 8605.22   2
  -3  -5   2 369093. 8415.64   1
   3  -8  -3 54316.1 2888.89   1
   8  -3   3 64005.9 2691.26   1
   5  -8  -3 59933.9 2972.02   1
   8  -5   3 58635.7 2741.96   1
   3   5  -3 55675.1 2518.50   1
  -3   8   3 58881.9 3038.10   1
  -5   8   3 57708.5 2973.28   1
   8  -5   3 60005.3 3048.13   2
   8  -3   3 56227.1 2968.28   2
  -8   5  -3 61806.2 2917.88   1
  -8   3  -3 63462.7 2782.97   1
  -3  -5   3 57316.3 2614.87   1
  -3  -5   4 18812.3 1409.95   1
   5  -8  -4 13821.5 1413.29   1
   8  -3   4 15557.4 1355.86   1
  -3   8   4 14121.7 1515.75   1
  -5   8   4 13796.6 1429.61   1
   8  -5   4 14717.7 1387.91   1
   8  -3   4 14730.3 1491.51   2
   8  -5   4 13595.6 1482.01   2
  -8   5  -4 16117.0 1486.13   1
  -8   3  -4 16163.9 1405.71   1
   3  -8  -4 16239.6 1561.51   1
   8  -5   5 137467. 4631.78   1
   8  -5   5 127287. 4780.24   2
  -3   8   5 128172. 4802.92   1
  -5   8   5 135357. 4790.70   1
   8  -3   5 146789. 4610.13   1
   8  -3   5 136183. 4786.63   2
  -8   5  -5 133861. 4699.14   1
  -8   3  -5 143170. 4718.31   1
   3  -8  -5 136114. 4799.98   1
   5  -8  -5 126150. 4597.43   1
  -3   8   6 104186. 4102.69   1
  -5   8   6 103353. 4161.60   1
   8  -5   6 97509.0 4115.79   2
   8  -3   6 97751.2 3880.16   1
   8  -3   6 98776.2 4106.49   2
  -8   5  -6 105100. 4127.29   1
   8  -5   6 99342.8 3956.63   1
   3  -8  -6 85322.6 3800.59   1
  -8   3  -6 99583.6 3985.46   1
  -3   8   6 100560. 4091.31   2
   5  -8  -6 90003.2 3783.51   1
  -3   8   7 83169.3 3728.27   1
  -5   8   7 79931.4 3638.94   1
   8  -5   7 76090.6 3695.47   2
   8  -3   7 76809.0 3626.49   2
   3  -8  -7 87665.8 3757.32   1
  -8   5  -7 84683.4 3809.19   1
   5  -8  -7 97287.9 3894.35   1
  -8   3  -7 84779.8 3737.32   1
  -3   8   7 86872.8 3758.96   2
   8  -5   7 91320.9 3843.86   1
   8  -5   8 72341.3 3457.95   1
  -3   8   8 69863.2 3413.84   1
  -5   8   8 67176.1 3355.34   1
   8  -5   8 64241.6 3405.12   2
   3  -8  -8 64605.3 3294.70   1
   5  -8  -8 67057.9 3280.85   1
  -8   5  -8 65164.3 3396.43   1
  -8   3  -8 67949.1 3370.86   1
  -3   8   8 71923.2 3400.52   2
   8  -3   8 70299.8 3502.45   2
   8  -3   8 68569.0 3414.62   1
   8  -5   9 22389.2 1946.80   1
  -3   8   9 21608.8 1829.57   1
  -5   8   9 24870.1 1980.18   1
   8  -5   9 20482.1 1921.58   2
   8  -3   9 21051.3 1924.34   2
   3  -8  -9 19737.8 1810.55   1
   5  -8  -9 20832.1 1802.03   1
  -8   5  -9 23177.0 1960.12   1
  -3   8   9 21260.1 1780.88   2
  -8   3  -9 20215.8 1847.32   1
   8  -3   9 20790.8 1841.67   1
  -3   8  10 174470. 5773.69   1
  -5   8  10 166936. 5667.72   1
   8  -5  10 176293. 5907.94   1
   5  -8 -10 187763. 5823.96   1
   8  -5  10 166104. 5814.83   2
   3  -8 -10 167916. 5582.81   1
  -8   5 -10 164383. 5792.31   1
  -3   8  10 161143. 5490.35   2
  -5   8  10 155543. 5574.83   2
  -8   3 -10 167695. 5794.94   1
   8  -3  10 159432. 5720.14   2
   8  -3  10 163501. 5781.98   1
   8  -3  11 976.939 580.663   1
   3  -8 -11 1017.50 468.181   1
  -8   5 -11 402.598 322.121   1
   5  -8 -11 950.953 402.635   1
  -8   3 -11 1323.26 596.195   1
  -3   8  11 1183.13 565.553   1
  -5   8  11 395.631 306.724   1
   8  -5  11 1018.30 628.050   2
   8  -3  11 979.125 557.881   2
   8  -5  11 1389.97 579.109   1
  -3   8  11 1258.94 491.874   2
  -5   8  11 1253.65 568.123   2
   3  -8 -12 1782.20 462.927   1
   5  -8 -12 2208.19 659.768   1
   8  -3  12 1831.56 688.078   1
  -8   5 -12 1652.19 567.421   1
   8  -5  12 2193.89 718.912   1
  -8   3 -12 3978.46 857.008   1
  -3   8  12 2334.25 686.908   1
  -5   8  12 2631.08 711.643   1
   8  -3  12 2572.73 667.429   2
   8  -5  12 2491.28 836.117   2
  -3   8  12 2627.85 741.268   2
  -5   8  12 2001.83 610.418   2
  -3   8  13 50045.3 3039.48   1
  -5   8  13 46573.1 2923.38   1
   8  -3  13 48864.4 3098.26   2
   8  -5  13 46347.1 3027.54   2
   3  -8 -13 48874.1 2891.48   1
   8  -5  13 48990.5 3091.34   1
   5  -8 -13 50349.3 2963.94   1
  -3   8  13 53871.7 3062.47   2
  -8   5 -13 50479.1 3162.89   1
  -5   8  13 47987.1 2934.37   2
  -8   3 -13 48295.0 3081.07   1
   8  -3  13 47702.9 3120.12   1
  -3   8  14 66168.9 3575.62   1
  -5   8  14 68318.6 3603.28   1
   8  -3  14 69202.2 3717.93   2
   3  -8 -14 67951.6 3496.05   1
   5  -8 -14 58360.7 3284.12   1
   8  -5  14 65735.8 3688.78   2
   8  -5  14 68747.4 3766.93   1
  -3   8  14 70965.3 3608.11   2
  -8   5 -14 69771.7 3747.57   1
  -5   8  14 66802.1 3618.95   2
  -8   3 -14 68425.3 3665.28   1
   8  -3  14 59902.0 3597.90   1
  -3   8  15 101806. 4534.34   1
  -5   8  15 101385. 4542.32   1
   3  -8 -15 104468. 4432.03   1
   5  -8 -15 99921.2 4351.77   1
   8  -5  15 99452.6 4635.84   2
   8  -3  15 102550. 4680.44   2
  -3   8  15 97944.6 4454.95   2
  -5   8  15 87784.6 4274.68   2
  -8   5 -15 95709.7 4587.84   1
  -8   3 -15 93558.3 4468.65   1
   8  -5  15 105940. 4729.76   1
   8  -3  15 95335.1 4643.71   1
   8  -3  16 6076.35 1192.55   1
  -8   5 -16 7232.08 1275.93   1
  -8   3 -16 7812.39 1240.11   1
   8  -5  16 8427.76 1319.53   1
  -3   8  16 6899.93 1199.13   1
  -5   8  16 7211.56 1203.33   1
   8  -5  16 6036.01 1158.00   2
   8  -3  16 8839.74 1369.02   2
   3  -8 -16 8894.45 1258.94   1
   5  -8 -16 4443.17 921.428   1
  -3   8  16 9655.53 1427.13   2
  -5   8  16 6584.32 1093.51   2
   8  -3  17 3770.99 975.650   2
  -5   8  17 2393.66 680.730   1
  -3   8  17 2903.84 777.276   1
   8  -5  17 3668.12 996.676   2
   5  -8 -17 1154.03 555.760   1
   3  -8 -17 3072.28 804.933   1
  -3   8  17 3331.73 883.532   2
   2  -8  17 11990.3 1664.74   1
   6   2  16 34107.9 2662.62   1
   2  -8  16 29895.1 2517.03   1
  -6  -2 -16 40260.9 2837.35   1
   2   6  16 38999.2 2803.79   1
  -2  -6 -16 44269.1 2848.07   1
   6  -8  16 39082.7 2859.56   1
  -6   8 -16 39382.5 2859.54   1
   2   6  16 41721.9 2754.83   2
  -2   8 -16 29501.8 2541.34   1
   6   2  16 36812.8 2630.25   2
   6   2  15 706.479 405.737   1
   2   6  15 931.694 470.861   1
  -6  -2 -15 1634.75 706.623   1
   6  -8  15 1441.14 583.504   1
  -2  -6 -15 1861.75 637.211   1
   6   2  15 1087.38 489.812   2
   2   6  15 386.570 341.560   2
  -2   8 -15 496.414 409.942   1
   2  -8  15 1360.87 553.582   1
  -6   8 -15 668.347 603.576   1
   2  -8  14 65659.3 3675.06   1
   6   2  14 67738.2 3724.40   1
  -6  -2 -14 71684.8 3786.33   1
  -2  -6 -14 78063.2 3837.69   1
   6  -8  14 75576.2 3933.18   1
  -2   8 -14 68813.4 3748.04   1
   6   2  14 69184.1 3594.84   2
  -6   8 -14 71671.1 3832.63   1
   2   6  14 74622.5 3614.63   2
   6   2  13 11907.2 1537.90   1
  -6  -2 -13 11913.1 1455.93   1
   2   6  13 13852.0 1619.98   1
  -2  -6 -13 11057.3 1363.30   1
   6  -8  13 11867.3 1511.17   1
   6   2  13 11604.2 1468.39   2
   2   6  13 10862.6 1419.92   2
  -2   8 -13 10452.4 1407.65   1
   2  -8  13 11050.6 1456.31   1
  -6   8 -13 11010.8 1467.49   1
   6   2  12 7093.33 1174.17   1
   2   6  12 7694.88 1165.54   1
   6  -8  12 5478.80 1104.57   1
  -6  -2 -12 7004.91 1142.76   1
   2  -8  12 5450.49 1045.09   1
   6   2  12 4823.79 946.471   2
  -2  -6 -12 7280.77 1150.84   1
  -2   8 -12 5771.75 971.308   1
   2   6  12 5570.39 954.446   2
  -6   8 -12 6884.24 1160.74   1
   6   2  11 40927.4 2752.71   1
  -6  -2 -11 43935.7 2776.26   1
   2   6  11 43868.1 2773.18   1
   6  -8  11 42309.3 2800.37   1
  -2  -6 -11 44846.9 2742.57   1
  -2   8 -11 43225.5 2785.18   1
   6   2  11 41411.4 2654.58   2
  -6   8 -11 44949.1 2898.44   1
   2   6  11 43419.6 2631.06   2
   2  -8  11 39747.2 2679.42   1
   2  -8  10 47138.1 2876.22   1
   6   2  10 47519.6 2888.44   1
  -6  -2 -10 50448.5 2898.85   1
   2   6  10 45544.7 2826.66   1
  -2   8 -10 44384.8 2753.89   1
   6  -8  10 47097.4 2915.44   1
  -2  -6 -10 50874.6 2878.27   1
   6   2  10 44576.7 2696.73   2
  -6   8 -10 43934.0 2841.68   1
   2   6  10 43421.6 2683.71   2
   6   2   9 63600.4 3319.90   1
   6   2   9 60961.6 3191.13   2
  -6  -2  -9 61046.8 3243.24   1
   2   6   9 62184.2 3230.52   1
   6  -8   9 66502.0 3414.92   1
  -2  -6  -9 59172.3 3099.26   1
  -2   8  -9 60052.4 3171.36   1
  -6   8  -9 61787.9 3305.68   1
   2   6   9 64887.9 3136.83   2
   2  -8   9 56213.3 3134.07   1
   6  -8   8 649.662 481.560   1
   2  -8   8 651.672 433.761   1
   6   2   8 280.518 312.676   1
   2   6   8 316.622 320.546   1
  -6  -2  -8 611.493 325.806   1
  -2   8  -8 644.310 438.987   1
   6   2   8 832.834 503.833   2
  -6   8  -8 9.38194 411.347   1
   2   6   8 445.424 323.142   2
  -2  -6  -8 997.500 448.908   1
   6  -8   7 154235. 5318.80   1
   6   2   7 160075. 5239.16   1
  -6   8  -7 153860. 5334.93   1
  -6  -2  -7 163702. 5220.68   1
   2   6   7 145661. 5037.04   1
  -2   8  -7 150707. 5159.78   1
   2  -8   7 148689. 5228.34   1
   6   2   7 147875. 5083.32   2
   2   6   7 156442. 5095.46   2
  -2  -6  -7 163912. 5275.75   1
   6   2   6 347457. 8091.56   1
  -6  -2  -6 337712. 7929.17   1
   2   6   6 334190. 8026.55   1
  -2   8  -6 299430. 7831.13   1
  -2  -6  -6 333387. 8091.07   1
   2  -8   6 317405. 8125.26   1
  -6   8  -6 278234. 7904.52   1
   6   2   6 326078. 8043.85   2
   2   6   6 272667. 7560.38   2
   6  -8   6 295539. 7963.21   1
   6   2   5 113746. 4039.92   1
  -6  -2  -5 117169. 4124.30   1
   2   6   5 107473. 4077.61   1
  -2   8  -5 95752.4 4011.61   1
   2  -8   5 100403. 4136.39   1
  -6   8  -5 106616. 4235.94   1
  -2  -6  -5 113656. 4178.52   1
   6   2   5 106168. 4031.53   2
   2   6   5 111657. 4067.25   2
   6  -8   5 103121. 4172.50   1
   6   2   4 213112. 5737.62   1
  -6  -2  -4 222659. 5770.19   1
   2   6   4 214686. 5958.27   1
  -8   6   4 204941. 5574.93   1
  -2  -6  -4 197745. 5806.58   1
   2  -8   4 187399. 5940.40   1
  -2   8  -4 195032. 5958.44   1
   6   2   4 204629. 5901.90   2
  -6   8  -4 201673. 6103.24   1
   2   6   4 205669. 5849.38   2
   6  -8   4 193590. 5963.38   1
   6  -8   3 716.778 505.574   1
   8  -6  -3 1654.26 481.956   1
  -2  -6  -3 1556.26 493.451   1
   2  -8   3 2300.20 693.975   1
  -2   8  -3 1090.94 524.590   1
   2   6   3 1346.85 473.415   1
   8  -2  -3 2261.27 605.460   2
  -8   6   3 1463.82 422.502   1
   6   2   3 1112.83 525.270   2
  -6   8  -3 1916.70 683.752   1
   2   6   3 2085.81 605.179   2
   2   6   2 192022. 5726.81   1
   2  -8   2 215372. 6289.56   1
   8  -6  -2 187125. 5414.98   1
  -2   8  -2 204465. 6087.35   1
  -8   6   2 239058. 5929.64   1
   8  -2  -2 233806. 6144.41   2
  -6   8  -2 199512. 6010.88   1
   6  -8   2 224485. 6313.69   1
   6   2   2 225887. 6056.35   2
  -2  -6  -2 205448. 5923.93   1
   2   6   2 223439. 5996.37   2
   2  -8   1 223.090 294.039   1
  -2  -6  -1 778.889 376.237   1
   2   6   1 594.511 361.122   1
   8  -6  -1 260.622 224.465   1
  -2   8  -1 896.363 504.198   1
   8  -2  -1 211.740 344.952   2
  -8   6   1 563.244 199.675   1
  -6   8  -1 1730.03 569.254   1
   6   2   1 11.2889 308.576   2
   6  -8   1 431.456 365.736   1
   2   6   1 486.253 346.037   2
   2  -8   0 13028.9 1397.79   1
   8  -2   0 14803.3 1446.82   2
   2   6   0 15095.6 1366.64   1
  -2   8   0 13838.5 1426.40   1
   6  -8   0 15929.5 1472.79   1
  -6   8   0 12255.6 1344.36   1
  -8   6   0 13144.3 1255.19   1
   8  -6   0 12650.9 1179.16   1
   2   6   0 14215.3 1273.89   2
  -2  -6   0 11640.8 1218.22   1
   6   2   0 14047.9 1266.10   2
   2  -8  -1 92416.4 3832.25   1
   6  -8  -1 98341.9 3910.96   1
   2   6  -1 100583. 3687.05   1
  -2   8   1 92973.2 3862.31   1
  -6   8   1 96507.0 3859.24   1
  -8   6  -1 94088.0 3674.86   1
   6   2  -1 98517.6 3498.44   2
   8  -6   1 105263. 3726.48   1
   2   6  -1 98956.2 3638.52   2
  -2  -6   1 92227.1 3596.09   1
   8  -2   1 97365.5 3823.52   2
  -2  -6   2 49957.7 2564.30   1
   2  -8  -2 49925.9 2723.29   1
   6  -8  -2 43024.9 2533.59   1
   2   6  -2 53943.3 2575.37   1
  -2   8   2 49196.4 2741.28   1
  -6   8   2 42980.3 2506.68   1
   8  -2   2 50765.4 2747.53   2
  -8   6  -2 48264.0 2592.95   1
   2   6  -2 49937.2 2471.58   2
   8  -6   2 48036.7 2471.04   1
  -2  -6   3 186174. 5306.51   1
   8  -6   3 157159. 5117.09   1
   6  -8  -3 177082. 5470.08   1
  -2   8   3 192895. 5805.34   1
   2   6  -3 176780. 5162.06   1
  -6   8   3 175800. 5490.56   1
   8  -2   3 174461. 5453.60   2
  -8   6  -3 178990. 5426.98   1
  -2   8   3 174221. 5462.03   2
   2  -8  -3 174964. 5576.13   1
  -8   2  -4 3205.00 608.776   1
   8  -6   4 2685.56 647.478   1
  -2   8   4 3032.44 782.597   1
   2  -8  -4 2196.49 670.886   1
  -6   8   4 2422.07 683.450   1
   2   6  -4 2750.60 621.959   1
   8  -6   4 3144.39 832.063   2
   8  -2   4 3935.46 790.906   2
   6  -8  -4 2282.74 604.251   1
  -2  -6   4 2459.42 658.215   1
  -8   6  -4 3016.01 678.739   1
  -2   8   4 4035.69 764.173   2
   6  -8  -5 152627. 5023.66   1
  -2  -6   5 156985. 4868.98   1
  -2   8   5 157230. 5268.47   1
   8  -6   5 147894. 5043.05   1
  -6   8   5 168706. 5351.43   1
   2   6  -5 145376. 4605.96   1
   8  -6   5 145899. 5296.65   2
   8  -2   5 139257. 4968.81   2
  -8   6  -5 146076. 5078.95   1
   2  -8  -5 150790. 5118.54   1
  -2   8   5 153480. 5044.28   2
  -8   2  -5 152879. 4861.23   1
   8  -2   5 143275. 4717.51   1
  -2  -6   6 337435. 8022.53   1
  -2   8   6 351018. 8504.40   1
  -6   8   6 318293. 8177.43   1
   2   6  -6 291452. 7455.73   1
   8  -6   6 302661. 8078.51   1
   8  -6   6 311834. 8370.20   2
  -8   2  -6 332609. 8174.89   1
   8  -2   6 328251. 8351.21   2
  -8   6  -6 317326. 8315.60   1
   2  -8  -6 337178. 8337.99   1
  -2   8   6 341661. 8235.93   2
   6  -8  -6 299860. 7861.43   1
   8  -2   6 344600. 8197.33   1
  -2   8   7 45097.8 2746.50   1
  -6   8   7 50108.6 2796.58   1
   8  -6   7 44008.3 2752.36   2
   8  -6   7 51551.8 2881.33   1
   8  -2   7 46724.7 2767.98   2
  -8   6  -7 44837.8 2759.93   1
   2  -8  -7 49246.4 2836.61   1
   6  -8  -7 52272.6 2781.07   1
  -2   8   7 49431.2 2667.80   2
  -8   2  -7 48158.9 2818.98   1
   8  -2   7 48267.6 2770.56   1
  -2   8   8 129191. 4836.78   1
  -6   8   8 126069. 4696.32   1
   8  -6   8 131638. 4973.09   2
   8  -2   8 123873. 4814.69   2
   2  -8  -8 138247. 4894.63   1
   8  -6   8 132232. 4858.10   1
  -8   6  -8 128186. 4927.19   1
   6  -8  -8 123652. 4623.08   1
  -2   8   8 127864. 4647.13   2
  -8   2  -8 135778. 4934.10   1
   8  -2   8 139237. 5030.30   1
  -8   6  -9 1660.98 604.775   1
   8  -2   9 2068.11 712.567   1
   2  -8  -9 2783.55 771.949   1
  -8   2  -9 1961.38 618.621   1
   6  -8  -9 1418.90 532.651   1
  -2   8   9 2299.54 662.183   1
  -6   8   9 2627.73 696.841   1
   8  -6   9 483.629 375.265   2
   8  -2   9 2641.58 713.265   2
  -2   8   9 2784.29 643.210   2
   8  -6   9 2701.07 709.747   1
   8  -2  10 114977. 4843.66   1
  -2   8  10 110202. 4488.15   1
  -6   8  10 113581. 4525.14   1
   8  -6  10 109860. 4725.38   2
   2  -8 -10 112761. 4534.80   1
   8  -2  10 117156. 4748.23   2
   6  -8 -10 118685. 4522.41   1
  -8   6 -10 110702. 4655.90   1
  -2   8  10 118986. 4521.27   2
   8  -6  10 116617. 4748.88   1
  -8   2 -10 117410. 4758.99   1
   8  -2  11 11478.8 1546.03   1
  -2   8  11 11565.2 1421.77   1
  -6   8  11 12454.9 1484.80   1
   2  -8 -11 12592.3 1445.47   1
   8  -6  11 10356.5 1413.17   2
   6  -8 -11 10984.0 1344.76   1
   8  -2  11 9540.50 1306.68   2
  -8   6 -11 11910.5 1488.79   1
  -2   8  11 11068.2 1351.10   2
  -8   2 -11 11663.6 1422.10   1
   8  -6  11 11147.6 1481.46   1
  -6   8  11 10872.9 1431.37   2
   8  -2  12 10283.1 1460.44   1
   8  -6  12 12823.2 1616.54   1
  -2   8  12 10132.8 1337.09   1
   8  -2  12 10642.3 1434.91   2
  -6   8  12 10168.9 1390.29   1
   2  -8 -12 13054.0 1482.61   1
   6  -8 -12 10888.8 1378.00   1
   8  -6  12 9751.85 1432.41   2
  -8   6 -12 11757.7 1522.87   1
  -2   8  12 9692.68 1349.90   2
  -6   8  12 11810.1 1488.30   2
  -8   2 -12 12575.7 1494.63   1
   8  -2  13 35287.4 2699.59   1
   8  -6  13 37250.5 2742.37   1
  -2   8  13 38283.5 2655.42   1
  -6   8  13 37276.5 2597.80   1
   2  -8 -13 37911.1 2570.97   1
   6  -8 -13 35438.8 2533.66   1
   8  -2  13 37179.7 2652.78   2
  -8   6 -13 38180.7 2742.57   1
  -2   8  13 38555.7 2622.23   2
  -6   8  13 35223.3 2570.76   2
  -8   2 -13 40174.5 2766.49   1
   8  -6  13 39928.0 2804.15   2
   8  -2  14 40542.2 2918.55   1
   8  -6  14 42720.5 2979.48   1
   8  -2  14 43899.7 2888.57   2
  -2   8  14 48637.5 3051.22   1
  -6   8  14 42046.8 2842.87   1
   2  -8 -14 52280.5 3019.99   1
   6  -8 -14 42635.8 2747.70   1
  -8   6 -14 44458.1 3010.03   1
  -2   8  14 44322.6 2879.21   2
   8  -6  14 38669.5 2847.86   2
  -6   8  14 36686.9 2669.71   2
  -8   2 -14 43383.2 2953.94   1
   8  -2  15 34795.3 2778.83   1
   8  -6  15 38656.9 2814.44   1
  -2   8  15 38624.1 2743.27   1
  -6   8  15 36717.0 2717.18   1
   2  -8 -15 41641.4 2710.09   1
   8  -2  15 39195.0 2789.07   2
   8  -6  15 39451.9 2875.01   2
  -8   6 -15 38838.0 2818.34   1
  -2   8  15 35647.1 2672.72   2
  -6   8  15 28630.7 2408.95   2
  -8   2 -15 34703.3 2670.70   1
  -8   6 -16 1056.33 655.243   1
   8  -2  16 1304.93 673.533   1
  -8   2 -16 1330.83 469.788   1
  -2   8  16 921.087 653.937   1
   8  -6  16 1058.73 561.544   1
   8  -6  16 51.0901 424.258   2
   8  -2  16 1102.24 641.514   2
   2  -8 -16 831.942 539.750   1
  -2   8  16 337.072 411.435   2
   8  -6  17 33392.6 2846.53   2
   7   1  16 103664. 4912.98   1
  -7  -1 -16 117082. 5029.80   1
   7   1  15 507.792 464.979   1
   1   7  15 198.761 338.900   1
  -7  -1 -15 1079.53 679.995   1
   7  -8  15 1279.12 638.786   1
  -1  -7 -15 475.227 405.856   1
   7   1  15 231.741 323.483   2
   1   7  15-123.919 384.448   2
  -7   8 -15 231.993 548.181   1
   7   1  14 6195.67 1155.19   1
   7  -8  14 8284.76 1264.49   1
   1   7  14 7471.33 1136.55   1
  -7  -1 -14 7142.54 1191.66   1
   1  -8  14 6770.51 1204.06   1
   7   1  14 5293.26 1020.05   2
  -1  -7 -14 6231.39 1042.54   1
   1   7  14 5722.37 1026.29   2
  -7   8 -14 5908.66 1087.93   1
   7   1  13 812.610 482.528   1
   1   7  13 689.226 520.828   1
   1  -8  13-316.640 357.920   1
  -7  -1 -13-95.8210 352.234   1
   7  -8  13 583.539 550.816   1
   7   1  13-474.769 458.571   2
  -1  -7 -13 760.375 419.045   1
  -1   8 -13-313.338 457.561   1
   1   7  13 457.389 391.574   2
  -7   8 -13 745.003 553.001   1
   7   1  12 121478. 5090.99   1
  -7  -1 -12 119738. 5015.68   1
   1   7  12 140325. 5203.00   1
   7  -8  12 126398. 5125.62   1
  -1  -7 -12 132406. 4978.89   1
  -1   8 -12 118387. 4908.56   1
   7   1  12 125889. 4959.63   2
  -7   8 -12 126978. 5184.08   1
   1   7  12 134525. 4929.94   2
   1  -8  12 133019. 5242.30   1
   1  -8  11 207.001 428.925   1
   7   1  11 690.088 489.736   1
   7   1  11 862.519 640.798   2
   1   7  11 480.734 503.327   1
   7  -8  11 287.373 340.956   1
  -7  -1 -11 910.103 410.430   1
  -1   8 -11-346.875 435.727   1
  -1  -7 -11 744.807 515.985   1
   1   7  11 223.957 308.056   2
  -7   8 -11-764.107 525.587   1
   7   1  10 12149.9 1471.59   1
  -7  -1 -10 13012.2 1520.68   1
   1   7  10 11270.6 1414.29   1
   7  -8  10 12490.5 1524.78   1
  -1  -7 -10 13217.1 1420.33   1
  -1   8 -10 13274.1 1445.20   1
   7   1  10 11072.8 1396.32   2
  -7   8 -10 12132.9 1493.27   1
   1  -8  10 11671.3 1441.13   1
   1   7  10 9635.51 1339.04   2
   7   1   9 9675.75 1332.71   1
   1   7   9 9617.87 1300.94   1
   7  -8   9 11380.4 1424.31   1
  -7  -1  -9 9562.86 1261.43   1
  -1  -7  -9 9530.98 1303.92   1
   1  -8   9 9260.61 1294.26   1
   7   1   9 9137.78 1251.16   2
  -1   8  -9 9150.99 1244.04   1
   1   7   9 9526.58 1288.76   2
  -7   8  -9 8436.00 1258.37   1
   7   1   8 188470. 5986.72   1
  -7  -1  -8 188181. 6002.70   1
   7  -8   8 170882. 5815.15   1
   1   7   8 177207. 5767.08   1
  -1   8  -8 166968. 5646.17   1
  -1  -7  -8 171177. 5681.97   1
   1  -8   8 167305. 5690.18   1
   7   1   8 182966. 5848.71   2
  -7   8  -8 182793. 6039.48   1
   1   7   8 176553. 5665.17   2
   7  -8   7 107.756 420.903   1
  -1  -7  -7 611.470 447.589   1
   7   1   7 598.964 476.248   1
   1   7   7 243.285 305.647   1
  -7  -1  -7-392.371 372.733   1
   1  -8   7 296.941 289.416   1
  -1   8  -7 135.298 267.956   1
   7   1   7 318.932 287.508   2
  -7   8  -7 213.497 438.878   1
   1   7   7 341.018 329.079   2
  -1  -7  -6 246.519 376.777   1
   1   7   6-95.8862 348.931   1
  -7  -1  -6 50.1916 367.179   1
   1  -8   6 843.395 528.668   1
  -8   7   6-4.55081 297.999   1
  -1   8  -6 172.301 423.973   1
   7   1   6-209.970 372.357   2
  -7   8  -6 634.144 486.495   1
   7  -8   6 12.1853 320.122   1
   1   7   6 370.835 304.604   2
   8  -7  -5 7224.38 950.593   1
  -1  -7  -5 6412.82 992.558   1
   1  -8   5 6568.22 1011.50   1
   1   7   5 7363.02 1066.72   1
   7  -8   5 7542.43 1177.85   1
  -1   8  -5 6732.48 1025.96   1
   7   1   5 6826.57 1085.59   2
  -8   7   5 7589.89 1026.46   1
  -7   8  -5 6363.17 996.297   1
   1   7   5 7182.68 1006.30   2
   1  -8   4 565128. 11899.7   1
  -8   7   4 543082. 11286.6   1
  -1   8  -4 536424. 11558.7   1
   7   1   4 570413. 11669.0   2
  -1  -7  -4 551491. 11665.8   1
  -7   8  -4 552075. 11834.9   1
   1   7   4 551174. 11415.0   2
   7  -8   4 541410. 11671.1   1
   8  -7  -3 5099.62 891.930   1
   1  -8   3 5013.76 914.701   1
   7  -8   3 4156.54 826.132   1
  -1  -7  -3 5215.45 918.686   1
  -8   7   3 5013.83 820.630   1
   1   7   3 5258.26 929.193   1
  -1   8  -3 3888.27 802.802   1
   7   1   3 4144.49 752.834   2
  -7   8  -3 4415.40 761.958   1
   1   7   3 3293.76 675.400   2
   1  -8   2 144349. 5009.59   1
   8  -7  -2 157885. 4946.88   1
   1   7   2 150473. 4933.27   1
  -1   8  -2 141456. 4936.86   1
  -8   7   2 162681. 5005.16   1
   8  -1  -2 136171. 4656.19   2
  -7   8  -2 132632. 4832.91   1
   7   1   2 161601. 5011.58   2
   7  -8   2 153385. 5084.38   1
  -1  -7  -2 153805. 5024.88   1
   1   7   2 150421. 4853.38   2
  -1   8  -2 149952. 4856.17   2
   8  -7  -1 418.492 242.418   1
  -1  -7  -1 426.838 359.756   1
   1   7   1 348.730 289.526   1
  -1   8  -1 364.853 388.961   1
   7  -8   1 756.374 338.878   1
   8  -1  -1 190.385 359.892   2
  -8   7   1 1277.41 504.009   1
   7   1   1 560.339 385.457   2
  -7   8  -1 595.739 426.718   1
   1  -8   1 131.111 308.354   1
   1   7   1 28.7130 361.100   2
  -1   8  -1 56.3803 391.313   2
   1  -8   0 112678. 4293.01   1
   8  -7   0 118045. 4185.99   1
   1   7   0 119753. 4290.66   1
  -1   8   0 103952. 4189.14   1
   7  -8   0 110681. 4222.92   1
  -7   8   0 103423. 4148.58   1
  -8   7   0 111488. 4160.66   1
   8  -1   0 115434. 4157.83   2
   7   1   0 116982. 4069.64   2
   1   7   0 115213. 4121.65   2
  -1   8   0 116314. 4262.72   2
  -1  -7   0 113022. 4230.42   1
   7  -8  -1 472.088 370.725   1
  -7   8   1 373.251 372.905   1
  -1   8   1 601.475 339.158   1
   1   7  -1 1067.41 493.981   1
  -1  -7   1-334.576 413.167   1
   8  -1   1 488.546 276.393   2
   1  -8  -1 770.836 435.346   1
   7   1  -1 665.497 383.039   2
  -8   7  -1 496.061 376.172   1
   8  -7   1 666.181 407.708   1
   1   7  -1-254.468 312.735   2
  -1   8   1-58.0072 290.276   2
  -1  -7   2 214732. 6195.43   1
   7  -8  -2 198858. 6092.45   1
  -1   8   2 202966. 6277.11   1
   1   7  -2 216650. 6113.20   1
  -7   8   2 209598. 6249.51   1
   8  -1   2 219609. 6250.81   2
  -8   7  -2 216517. 6263.19   1
   8  -7   2 231815. 6307.48   1
   1   7  -2 226017. 6047.70   2
  -1   8   2 228768. 6276.67   2
   1  -8  -2 220064. 6404.75   1
  -1  -7   3 12531.7 1389.11   1
   7  -8  -3 12792.6 1361.78   1
  -1   8   3 11489.3 1357.96   1
   1   7  -3 14449.8 1424.66   1
  -7   8   3 12405.8 1368.06   1
   8  -1   3 13226.2 1426.82   2
  -8   7  -3 13107.3 1376.95   1
  -1   8   3 10650.5 1234.73   2
   8  -7   3 12841.4 1354.59   1
   1  -8  -3 13306.7 1420.42   1
   8  -7   4 436717. 9764.51   1
   7  -8  -4 402325. 9421.48   1
  -1  -7   4 414497. 9518.86   1
  -1   8   4 389925. 9570.20   1
  -7   8   4 413411. 9620.63   1
   1   7  -4 404507. 9286.15   1
  -8   7  -4 441269. 9946.55   1
   8  -1   4 433823. 9780.67   2
   1  -8  -4 416440. 9728.82   1
  -1   8   4 423047. 9492.20   2
  -1  -7   5 710.320 377.591   1
   8  -7   5 1844.48 634.535   1
   1  -8  -5 2347.91 669.676   1
  -1   8   5 1363.35 590.956   1
  -7   8   5 1266.70 572.629   1
   7  -8  -5 1701.68 629.853   1
   8  -1   5 1058.04 465.006   2
   1   7  -5 1085.18 407.396   1
  -8   7  -5 1324.56 550.896   1
  -1   8   5 1306.60 480.839   2
   8  -7   6 62558.4 3206.72   1
  -1   8   6 53382.6 3028.76   1
  -1  -7   6 60417.1 3101.09   1
  -7   8   6 63289.2 3156.19   1
   1   7  -6 63578.5 3076.60   1
   8  -1   6 53553.2 3014.07   2
  -8   7  -6 63476.1 3233.05   1
   1  -8  -6 62450.3 3191.95   1
  -1   8   6 57078.0 2959.76   2
   7  -8  -6 59744.8 3050.00   1
  -8   1  -6 58134.3 3012.10   1
   8  -1   7 4586.51 869.617   1
   1  -8  -7 4129.70 844.462   1
  -8   1  -7 4738.84 831.393   1
  -1  -7   7 3083.27 744.956   1
   8  -7   7 4914.41 946.714   1
   7  -8  -7 4480.43 846.910   1
  -1   8   7 5823.06 982.070   1
  -7   8   7 4017.88 780.003   1
   8  -7   7 5749.86 1087.10   2
   1   7  -7 3908.30 733.300   1
   8  -1   7 3190.26 833.300   2
  -8   7  -7 3221.02 840.771   1
  -1   8   7 4770.30 827.828   2
   8  -1   8 277056. 7692.22   1
  -1   8   8 271901. 7546.88   1
  -7   8   8 281002. 7518.12   1
   8  -7   8 263444. 7626.78   1
  -1  -7   8 279194. 7555.81   1
   1   7  -8 270560. 7343.85   1
   8  -7   8 257758. 7756.96   2
   8  -1   8 245473. 7344.33   2
   1  -8  -8 274790. 7490.99   1
  -8   7  -8 265961. 7752.49   1
   7  -8  -8 303373. 7659.03   1
  -1   8   8 276840. 7334.68   2
  -8   1  -8 266602. 7626.51   1
   8  -1   9 3997.29 873.592   1
   1  -8  -9 2789.75 751.459   1
   7  -8  -9 2895.95 664.176   1
  -8   1  -9 4015.55 899.580   1
  -1   8   9 3163.87 765.552   1
  -7   8   9 3129.08 728.081   1
   8  -1   9 4502.71 907.925   2
   8  -7   9 3770.18 875.761   1
   8  -7   9 3729.56 836.938   2
  -1   8   9 3527.94 745.099   2
  -8   7  -9 3688.05 897.191   1
  -8   7 -10 7564.79 1199.58   1
   8  -1  10 7651.34 1214.97   1
   7  -8 -10 7396.58 1048.78   1
  -8   1 -10 8190.40 1280.86   1
  -1   8  10 7946.48 1179.51   1
  -7   8  10 8491.50 1216.61   1
   1  -8 -10 9401.03 1268.49   1
   8  -7  10 7821.11 1279.57   2
   8  -1  10 7213.03 1175.47   2
   8  -7  10 7848.35 1205.14   1
  -1   8  10 7294.37 1058.84   2
   1  -8 -11-316.958 284.463   1
  -8   7 -11-538.071 532.764   1
   7  -8 -11 260.622 436.808   1
   8  -1  11-127.901 369.176   1
  -8   1 -11-165.248 329.468   1
  -1   8  11 22.8061 320.352   1
  -7   8  11 550.220 413.916   1
   8  -7  11-1.90641 350.401   2
   8  -7  11 239.693 373.706   1
   8  -1  11-119.838 373.320   2
  -1   8  11 877.149 487.671   2
   8  -1  12 93564.1 4524.96   1
  -1   8  12 112434. 4569.50   1
   8  -7  12 108565. 4671.08   1
   1  -8 -12 105650. 4402.35   1
   8  -7  12 95874.2 4570.26   2
   8  -1  12 104046. 4498.50   2
  -8   7 -12 98484.1 4527.77   1
  -1   8  12 110933. 4486.20   2
  -8   1 -12 105961. 4643.76   1
  -8   7 -13-527.874 506.851   1
   8  -1  13 209.925 517.232   1
  -8   1 -13 0.90960 342.184   1
  -1   8  13 822.735 479.609   1
   8  -7  13 159.782 411.926   2
   8  -1  13 307.633 426.119   2
   8  -7  13-359.023 291.700   1
   1  -8 -13-136.652 329.694   1
  -1   8  13 322.880 427.450   2
  -7   8  13 128.788 308.053   2
  -8   7 -14 5137.13 1050.54   1
   8  -1  14 5857.37 1074.05   1
  -8   1 -14 6296.25 1161.07   1
  -1   8  14 5330.68 1053.46   1
   8  -7  14 3883.09 952.617   2
   8  -1  14 4757.82 1033.16   2
   1  -8 -14 5841.16 1027.67   1
   8  -7  14 5489.73 1118.58   1
  -1   8  14 4182.22 923.073   2
  -7   8  14 3455.76 850.924   2
  -8   7 -15 3425.16 918.226   1
   8  -1  15 2122.40 740.817   1
  -8   1 -15 2029.81 644.162   1
  -1   8  15 3053.91 870.432   1
   8  -1  15 3036.20 762.280   2
   1  -8 -15 2365.36 667.541   1
   8  -7  15 1778.85 700.115   2
  -1   8  15 2148.70 840.485   2
   8  -7  15 2236.88 723.641   1
   8  -1  16 115713. 5204.13   1
  -8   1 -16 126723. 5247.81   1
   8  -8   0 1707.23 458.013   1
   0   8   0 2245.08 694.931   1
   0  -8   0 2278.82 663.603   1
  -8   8   0 2419.19 639.722   1
   8   0   0 3323.20 739.354   2
   0   8   0 2840.54 671.093   2
   0  -8   1 118274. 4530.31   1
  -8   8  -1 122486. 4595.88   1
   0   8   1 133840. 4791.41   1
   8  -8  -1 132640. 4674.96   1
   0   8  -1 131094. 4699.20   1
  -8   8   1 107868. 4300.10   1
   8  -8   1 119739. 4487.41   1
   8   0  -1 122172. 4347.29   2
   0   8   1 126659. 4502.99   2
   0   8  -1 122342. 4397.03   2
   8   0   1 126840. 4553.20   2
   0  -8  -1 115028. 4495.75   1
   0  -8   2 143788. 5141.63   1
  -8   8  -2 155570. 5256.88   1
   8  -8  -2 152005. 5135.54   1
   0   8   2 152333. 5238.98   1
   0   8  -2 159486. 5290.84   1
  -8   8   2 150681. 5140.85   1
   8   0   2 167809. 5367.09   2
   8  -8   2 174641. 5469.92   1
   0   8   2 155148. 5109.28   2
   0   8  -2 152123. 5064.79   2
   0  -8  -2 157844. 5297.48   1
   0  -8   3 13632.5 1417.09   1
   8  -8  -3 12817.0 1344.11   1
   0   8   3 14388.8 1471.17   1
   0   8  -3 12898.3 1416.18   1
  -8   8   3 14011.5 1450.83   1
  -8   8  -3 14655.8 1505.55   1
   8   0   3 14631.2 1500.65   2
   8  -8   3 13478.2 1443.57   1
   0  -8  -3 14032.4 1511.64   1
   0   8   3 12282.2 1371.63   2
   0   8  -3 13954.2 1436.78   2
   8  -8  -4 23311.4 1808.40   1
   0  -8   4 25898.3 2051.81   1
   0   8   4 24540.2 1947.36   1
  -8   8   4 25142.1 1953.91   1
   0   8  -4 24615.7 1925.83   1
  -8   8  -4 24007.9 2010.83   1
   8   0   4 28247.2 2092.34   2
   0  -8  -4 25533.2 2004.76   1
   0   8   4 25796.9 1942.06   2
   8  -8   4 24824.9 2002.83   1
   8  -8  -5 58120.3 2943.51   1
   0  -8   5 58116.5 3106.80   1
   0   8   5 56357.0 3069.16   1
  -8   8   5 60028.2 3081.82   1
   0   8  -5 54886.7 2980.45   1
  -8   8  -5 57213.5 3125.02   1
   8   0   5 54340.0 3012.48   2
   0  -8  -5 57710.7 3081.17   1
   0   8   5 52539.1 2853.97   2
   8  -8   5 51431.9 2953.01   1
   8  -8   6 183772. 5974.37   1
   0   8   6 173709. 5811.11   1
   0  -8   6 182193. 5992.01   1
  -8   8   6 193274. 5929.36   1
   0   8  -6 184163. 5818.67   1
  -8   8  -6 178097. 6032.28   1
   8   0   6 171274. 5737.53   2
   0  -8  -6 172617. 5722.56   1
   0   8   6 176925. 5609.85   2
   8  -8  -6 201901. 5925.49   1
   8  -8   7 40484.3 2680.11   1
   0   8   7 40876.4 2630.62   1
  -8   8   7 44082.1 2648.03   1
   0  -8   7 47201.3 2877.39   1
   0   8  -7 42974.5 2617.21   1
   8   0   7 43833.3 2736.58   2
   0  -8  -7 40140.6 2601.24   1
  -8   8  -7 46561.7 2864.25   1
   0   8   7 43243.3 2600.69   2
   8  -8  -7 41062.2 2516.72   1
   8  -8   8 36412.6 2547.96   1
   0   8   8 37110.8 2507.39   1
  -8   8   8 34829.0 2434.53   1
   0  -8   8 40202.5 2632.21   1
   0   8  -8 33265.3 2397.83   1
   0  -8  -8 38470.8 2553.57   1
   8   0   8 34528.2 2432.79   2
  -8   8  -8 37096.9 2570.98   1
   0   8   8 35210.9 2367.71   2
   0  -8  -9 4338.41 868.412   1
   8   0   9 1720.45 712.477   1
   8  -8   9 4780.12 939.889   1
  -8   0  -9 4286.87 883.913   1
   0   8   9 4245.35 884.321   1
   0  -8   9 4062.22 885.392   1
   0   8  -9 4834.69 924.270   1
   8   0   9 6084.61 1074.09   2
   0   8   9 6656.15 1063.03   2
  -8   8  -9 4987.36 997.866   1
   8   0  10 77411.6 3945.08   1
  -8   0 -10 78104.6 3833.26   1
   0  -8 -10 75274.5 3670.56   1
   0   8  10 83510.6 3866.97   1
   8  -8  10 79696.1 3937.12   1
   8   0  10 72756.7 3632.73   2
  -8   8 -10 81009.8 3938.05   1
   0  -8  10 75074.7 3792.61   1
   0   8  10 76920.6 3632.13   2
   8   0  11 54269.7 3361.22   1
  -8   0 -11 57269.1 3346.37   1
   0   8  11 55825.7 3238.59   1
   8  -8  11 59779.6 3428.45   1
   0  -8 -11 60699.0 3262.32   1
   8   0  11 58368.4 3255.13   2
  -8   8 -11 58530.1 3420.07   1
   0   8  11 57237.3 3190.82   2
   8   0  12 3887.79 905.117   1
  -8   0 -12 3139.29 844.938   1
   0   8  12 3529.99 857.228   1
   8  -8  12 4116.41 980.959   1
   8   0  12 3726.22 862.754   2
   0  -8 -12 3632.52 892.610   1
   0   8  12 3345.63 815.722   2
  -8   8 -12 3106.80 862.548   1
   8   0  13 51947.8 3408.79   1
  -8   0 -13 56479.3 3373.44   1
   0   8  13 61266.7 3418.94   1
   0  -8 -13 58153.4 3263.75   1
   8  -8  13 61085.7 3553.20   1
   8   0  13 56956.9 3283.36   2
  -8   8 -13 59104.4 3510.47   1
   0   8  13 59623.1 3339.42   2
   8   0  14 56866.0 3620.37   1
  -8   0 -14 66082.7 3722.50   1
   0   8  14 75890.7 3819.84   1
   0  -8 -14 78458.0 3822.92   1
   8  -8  14 81878.7 4124.51   1
   8   0  14 65045.3 3536.86   2
  -8   8 -14 68598.5 3826.68   1
   0   8  14 72702.6 3751.10   2
   8   0  15 7758.14 1422.52   1
  -8   0 -15 8141.81 1313.75   1
   5  -9  15 5983.56 1113.35   1
   5   4  15 8975.95 1379.11   1
   4   5  15 6149.31 1083.31   1
  -5  -4 -15 6192.15 1066.73   1
  -4  -5 -15 7326.69 1177.72   1
   5   4  15 6622.05 1131.79   2
   4   5  15 6539.49 1078.74   2
  -4   9 -15 5925.11 1074.40   1
  -5   9 -15 7732.84 1231.49   1
   4  -9  15 6972.31 1219.49   1
   4  -9  14 172911. 6191.00   1
   5   4  14 165351. 6076.20   1
   4   5  14 149465. 5869.95   1
   5  -9  14 163294. 6060.36   1
  -5  -4 -14 174143. 6024.27   1
  -4  -5 -14 181553. 6109.38   1
  -4   9 -14 163278. 6059.47   1
  -5   9 -14 171758. 6154.92   1
   5   4  14 164526. 5757.93   2
   4   5  14 166977. 5749.11   2
   4  -9  13 46293.6 3030.64   1
   5   4  13 46616.0 3058.22   1
   5  -9  13 49423.6 3092.78   1
   4   5  13 47788.0 3090.62   1
  -5  -4 -13 49909.0 3019.69   1
  -4  -5 -13 49387.7 2997.16   1
  -4   9 -13 53495.3 3268.39   1
  -5   9 -13 51367.0 3199.01   1
   5   4  13 50099.9 2972.25   2
   4   5  13 51867.5 3033.14   2
   5  -9  12 23840.5 2085.43   1
   5   4  12 22023.6 2022.02   1
   4   5  12 22599.5 2020.69   1
  -5  -4 -12 22532.4 2008.51   1
  -4  -5 -12 25827.9 2141.25   1
  -4   9 -12 26519.3 2231.27   1
  -5   9 -12 23648.9 2143.17   1
   5   4  12 23164.5 1971.54   2
   4   5  12 25583.9 2032.47   2
   4  -9  12 23468.7 2071.32   1
   5  -9  11 124607. 5022.02   1
   5   4  11 109444. 4746.66   1
   4   5  11 110861. 4632.98   1
  -5  -4 -11 118285. 4732.66   1
  -4  -5 -11 114550. 4687.10   1
  -4   9 -11 116808. 4822.64   1
  -5   9 -11 117264. 4844.32   1
   5   4  11 113738. 4564.73   2
   4   5  11 119485. 4676.93   2
   4  -9  11 114284. 4778.15   1
   5   4  10 117373. 4735.42   1
   4   5  10 113509. 4668.83   1
  -5  -4 -10 124454. 4762.30   1
  -4  -5 -10 111954. 4579.72   1
  -4   9 -10 115252. 4693.00   1
  -5   9 -10 109968. 4626.00   1
   5   4  10 120632. 4571.39   2
   4   5  10 102942. 4359.46   2
   4  -9  10 110392. 4637.05   1
   5  -9  10 112890. 4668.47   1
   5   4   9 19584.0 1838.37   1
   4   5   9 16221.7 1651.17   1
  -5  -4  -9 17896.4 1738.23   1
  -4  -5  -9 20176.4 1763.97   1
  -4   9  -9 17126.7 1729.64   1
  -5   9  -9 20279.0 1879.88   1
   5   4   9 17031.6 1694.14   2
   4   5   9 17265.4 1718.10   2
   4  -9   9 15791.0 1663.05   1
   5  -9   9 15226.0 1654.17   1
   4  -9   8 6039.67 1015.74   1
   5   4   8 6134.36 1036.36   1
   4   5   8 6684.33 1050.89   1
   5  -9   8 7109.02 1121.48   1
  -5  -4  -8 7299.75 1058.25   1
  -4  -5  -8 6886.36 1007.94   1
  -4   9  -8 6763.23 1073.88   1
   5   4   8 6868.33 1054.49   2
  -5   9  -8 6877.49 1146.07   1
   4   5   8 8043.61 1102.88   2
   4  -9   7 856.521 607.816   1
   5   4   7-233.140 366.672   1
   5  -9   7 426.264 339.027   1
   4   5   7 668.061 324.005   1
  -5  -4  -7 589.235 458.534   1
  -4   9  -7 698.983 366.707   1
  -5   9  -7 405.816 324.580   1
  -4  -5  -7 763.587 471.817   1
   5   4   7 976.148 512.041   2
   4   5   7 474.696 361.750   2
   5   4   6 33215.4 2271.18   1
   4   5   6 32055.2 2144.44   1
  -5  -4  -6 30876.0 2141.31   1
  -4  -5  -6 31229.3 2180.10   1
  -4   9  -6 29354.1 2191.84   1
  -5   9  -6 28582.6 2190.16   1
   4  -9   6 28685.9 2193.90   1
   5   4   6 33926.8 2252.71   2
   4   5   6 32252.7 2195.64   2
   5  -9   6 29638.4 2221.50   1
  -5   9  -5 39066.5 2555.58   1
   5   4   5 39408.3 2392.07   1
   4   5   5 39187.2 2393.95   1
  -5  -4  -5 42328.8 2490.55   1
  -4  -5  -5 43813.7 2509.64   1
  -4   9  -5 37019.2 2461.79   1
   4  -9   5 41851.9 2617.85   1
   5  -9   5 39888.8 2563.39   1
   5   4   5 40446.2 2422.40   2
   4   5   5 46947.7 2621.73   2
   5   4   4 32590.3 2102.15   1
   4   5   4 30764.6 2105.35   1
  -5  -4  -4 28896.0 1991.62   1
  -4  -5  -4 31574.3 2093.34   1
   4  -9   4 33061.3 2291.66   1
  -4   9  -4 29972.3 2245.96   1
  -5   9  -4 29695.7 2165.02   1
   5  -9   4 30766.7 2220.18   1
   5   4   4 30662.9 2124.70   2
   4   5   4 28329.5 2026.82   2
   4   5   3 36270.7 2217.38   1
  -5  -4  -3 39866.0 2317.95   1
   4  -9   3 35666.5 2397.29   1
  -4   9  -3 39078.7 2479.59   1
  -4  -5  -3 41957.9 2370.63   1
   5  -9   3 39531.4 2484.44   1
  -5   9  -3 37216.9 2428.77   1
   5   4   3 37259.6 2309.03   2
   4   5   3 41470.5 2433.95   2
   4   5   2 347542. 8168.12   1
   4  -9   2 350273. 8912.55   1
   5  -9   2 353353. 8896.54   1
  -4   9  -2 365710. 8994.41   1
  -5   9  -2 350552. 8950.67   1
  -4  -5  -2 355200. 8386.31   1
   5   4   2 365717. 8571.08   2
   9  -4  -1 48685.5 2849.17   2
   4   5   1 40735.7 2269.52   1
   4  -9   1 44949.6 2716.83   1
   5  -9   1 51071.9 2902.48   1
  -4   9  -1 47367.2 2783.23   1
  -5   9  -1 47324.7 2749.00   1
  -4  -5  -1 54681.0 2646.25   1
   5   4   1 50697.1 2636.90   2
   4   5   1 51868.6 2659.47   2
   4  -9   0 12097.3 1388.95   1
   5  -9   0 14899.8 1515.30   1
  -4   9   0 11923.2 1396.74   1
  -5   9   0 13231.8 1418.57   1
   9  -4   0 12024.2 1355.18   2
   5   4   0 11761.1 1272.37   2
   4   5   0 14882.9 1386.50   2
   4  -9  -1 154308. 5280.63   1
   5  -9  -1 151967. 5275.47   1
  -4   9   1 160675. 5380.09   1
  -5   9   1 164119. 5436.63   1
   9  -5   1 161588. 5547.77   2
   9  -4   1 165452. 5508.86   2
   4  -9  -2 214086. 6425.77   1
   5  -9  -2 221195. 6469.35   1
  -4   9   2 229494. 6658.08   1
  -5   9   2 211556. 6443.41   1
   9  -5   2 212438. 6576.84   2
   9  -4   2 216842. 6500.12   2
   4  -9  -3 77040.3 3604.16   1
   5  -9  -3 76723.8 3581.95   1
   9  -5   3 75947.3 3273.36   1
  -4   9   3 76381.7 3617.45   1
  -5   9   3 77865.2 3603.36   1
   9  -5   3 75725.1 3635.35   2
   9  -4   3 70578.9 3579.90   2
  -9   5  -3 76062.6 3357.47   1
   4  -9  -4 40204.3 2534.75   1
   5  -9  -4 35521.5 2350.50   1
   9  -5   4 38430.4 2380.43   1
  -4   9   4 37803.8 2493.49   1
  -5   9   4 36146.3 2436.62   1
   9  -4   4 33870.7 2359.72   2
   9  -5   4 35724.9 2494.70   2
  -9   5  -4 39497.5 2448.35   1
  -9   5  -5 5372.73 871.572   1
  -9   4  -5 6746.50 1046.34   1
  -4   9   5 6142.70 999.079   1
   4  -9  -5 6754.14 1025.59   1
   5  -9  -5 5445.01 888.857   1
   9  -5   5 6948.57 998.116   1
   9  -5   5 5061.10 999.597   2
   9  -4   5 5666.91 944.519   2
  -5   9   5 5974.50 989.551   1
   9  -4   6 48520.9 2747.74   1
  -4   9   6 44189.2 2766.34   1
  -5   9   6 50430.7 2920.33   1
   9  -5   6 48009.3 2885.54   2
   9  -5   6 45133.3 2700.06   1
  -9   5  -6 51028.5 2918.15   1
  -9   4  -6 47394.7 2800.21   1
   9  -4   6 46138.4 2870.59   2
   4  -9  -6 47018.7 2840.25   1
   5  -9  -6 40824.0 2601.05   1
   9  -5   7 4017.60 810.774   1
  -9   5  -7 3062.66 814.531   1
  -9   4  -7 3089.15 635.216   1
   4  -9  -7 2810.25 667.522   1
   5  -9  -7 2742.00 725.866   1
  -4   9   7 3639.88 840.838   1
  -5   9   7 3175.80 814.765   1
   9  -4   7 4225.46 816.440   1
   9  -5   7 3621.41 825.081   2
   9  -4   7 2827.36 771.582   2
  -4   9   7 3355.03 903.272   2
  -9   5  -8 4787.29 943.335   1
  -9   4  -8 4240.84 886.343   1
   9  -5   8 4037.26 858.622   1
   4  -9  -8 5436.57 993.374   1
   5  -9  -8 5588.53 1051.43   1
  -4   9   8 4252.87 902.928   1
  -5   9   8 6005.35 1042.10   1
   9  -5   8 3924.15 887.423   2
   9  -4   8 2597.34 864.257   2
   9  -4   8 4724.60 903.602   1
  -4   9   8 5080.18 918.904   2
   9  -5   9 15808.6 1672.03   1
   9  -4   9 16428.8 1746.10   2
  -4   9   9 14427.7 1591.64   1
  -5   9   9 15616.8 1584.26   1
   9  -4   9 14216.5 1589.56   1
   9  -5   9 18247.9 1756.03   2
   4  -9  -9 15600.2 1632.00   1
   5  -9  -9 14535.7 1530.74   1
  -9   5  -9 17032.9 1788.48   1
  -9   4  -9 19039.8 1828.13   1
  -4   9   9 13904.1 1496.31   2
  -5   9   9 17783.6 1752.01   2
   9  -5  10 144867. 5517.88   1
  -4   9  10 154803. 5492.11   1
  -5   9  10 141968. 5316.26   1
   9  -5  10 138062. 5389.38   2
   9  -4  10 143657. 5435.09   2
   4  -9 -10 144962. 5292.07   1
   5  -9 -10 142175. 5163.48   1
   9  -4  10 156524. 5649.86   1
  -9   5 -10 139931. 5509.01   1
  -9   4 -10 143940. 5529.64   1
  -4   9  10 147228. 5260.48   2
  -5   9  10 148656. 5453.63   2
  -4   9  11 97107.7 4266.47   1
  -5   9  11 98855.3 4322.70   1
   9  -5  11 100392. 4558.55   1
   9  -5  11 89592.4 4281.56   2
   9  -4  11 95501.0 4410.55   2
   5  -9 -11 94552.7 4171.23   1
   9  -4  11 96675.0 4465.62   1
  -9   5 -11 93411.1 4423.39   1
   4  -9 -11 89852.3 4109.82   1
  -9   4 -11 97658.1 4476.74   1
  -4   9  11 92835.7 4141.34   2
  -5   9  11 96112.9 4281.55   2
  -4   9  12 22093.0 1988.17   1
  -5   9  12 21073.0 1955.25   1
   9  -5  12 22105.0 2129.98   1
   4  -9 -12 24694.1 2026.06   1
   5  -9 -12 21476.6 1953.70   1
   9  -5  12 22621.1 2104.42   2
   9  -4  12 19829.7 1987.16   2
   9  -4  12 19647.9 1970.71   1
  -9   5 -12 21985.0 2111.03   1
  -4   9  12 20318.7 1919.80   2
  -9   4 -12 20314.6 2022.10   1
  -5   9  12 19392.6 1875.37   2
  -4   9  13 79624.1 3966.78   1
  -5   9  13 85311.8 4073.90   1
   9  -5  13 78725.4 4148.26   1
   4  -9 -13 92852.4 4116.85   1
   5  -9 -13 79471.0 3884.43   1
   9  -5  13 83377.6 4203.85   2
   9  -4  13 90704.5 4338.81   2
   9  -4  13 78182.4 4156.62   1
  -9   5 -13 85438.5 4258.37   1
  -4   9  13 89582.7 4151.08   2
  -5   9  13 88965.7 4193.86   2
  -9   4 -13 83123.8 4236.42   1
  -4   9  14 134231. 5228.92   1
  -5   9  14 118228. 4944.51   1
   9  -5  14 121971. 5256.07   1
   4  -9 -14 124968. 4967.46   1
   5  -9 -14 110573. 4734.80   1
   9  -5  14 119810. 5169.82   2
   9  -4  14 135004. 5410.68   2
   9  -4  14 117059. 5158.13   1
  -9   5 -14 123353. 5276.07   1
  -4   9  14 115456. 4959.23   2
  -5   9  14 117367. 4956.42   2
  -9   4 -14 124917. 5283.97   1
  -9   5 -15 5248.27 1099.24   1
  -9   4 -15 4388.70 1000.82   1
  -4   9  15 4992.60 998.993   1
  -5   9  15 5868.43 1120.64   1
   9  -4  15 2651.79 823.403   1
   9  -5  15 4888.89 1064.68   2
   9  -4  15 5847.83 1168.96   2
   4  -9 -15 4505.25 940.249   1
   5  -9 -15 4814.07 964.875   1
  -4   9  15 4897.18 982.603   2
  -5   9  15 5234.07 1032.32   2
   9  -5  15 4461.25 990.323   1
  -5   9  16 9597.40 1419.93   1
   5  -9 -16 9279.10 1345.56   1
  -5   9  16 10101.9 1438.09   2
  -3   9 -16 141822. 5804.93   1
   3  -9  16 141060. 5807.30   1
   6   3  15 169.014 334.372   1
   6  -9  15 615.764 561.404   1
   3   6  15-358.383 456.433   1
  -6  -3 -15 742.832 480.696   1
  -3  -6 -15 293.465 344.989   1
   3  -9  15 1194.12 587.718   1
  -3   9 -15 639.817 447.880   1
  -6   9 -15 1333.01 611.315   1
   6   3  14 18731.1 1980.64   1
   3   6  14 20033.9 1935.54   1
  -6  -3 -14 19853.2 1920.51   1
   6  -9  14 20468.0 2009.38   1
  -3  -6 -14 23799.8 2125.87   1
  -3   9 -14 16333.9 1827.12   1
   6   3  14 21173.6 1960.95   2
  -6   9 -14 20526.9 2028.81   1
   3   6  14 19314.9 1892.82   2
   3  -9  14 21237.3 2040.09   1
   6  -9  13-340.042 426.767   1
   6   3  13 416.037 327.828   1
   3   6  13 895.243 568.530   1
  -6  -3 -13 140.190 281.398   1
   3  -9  13-265.214 424.250   1
  -3  -6 -13 65.0617 350.525   1
   6   3  13-253.028 434.867   2
  -3   9 -13 441.226 450.299   1
   3   6  13 165.010 414.392   2
  -6   9 -13 947.742 641.230   1
   6   3  12 112462. 4885.16   1
   6  -9  12 118956. 4875.94   1
   3   6  12 105025. 4625.46   1
  -6  -3 -12 121185. 4855.61   1
  -3  -6 -12 122096. 4845.56   1
  -3   9 -12 115584. 4864.93   1
  -6   9 -12 115518. 4849.72   1
   6   3  12 117124. 4715.79   2
   3   6  12 111072. 4541.40   2
   3  -9  12 109915. 4747.37   1
   6  -9  11 3585.02 774.087   1
   6   3  11 3284.68 813.336   1
   3  -9  11 3366.54 761.843   1
   3   6  11 3527.53 900.285   1
  -6  -3 -11 3614.87 789.185   1
  -3  -6 -11 3999.20 911.085   1
   6   3  11 4172.55 895.638   2
  -3   9 -11 3843.14 881.065   1
   3   6  11 2891.85 792.002   2
  -6   9 -11 2517.25 762.019   1
   6  -9  10 15995.2 1708.77   1
   6   3  10 15288.3 1662.60   1
   3   6  10 15474.2 1689.83   1
  -6  -3 -10 16483.1 1719.35   1
   6   3  10 16584.7 1641.39   2
  -3  -6 -10 17884.5 1755.86   1
  -3   9 -10 13700.3 1582.61   1
  -6   9 -10 16170.2 1758.97   1
   3   6  10 13440.9 1443.03   2
   3  -9  10 17400.6 1757.46   1
   3   6   9 13365.7 1508.35   1
  -6  -3  -9 9794.23 1306.85   1
   6   3   9 9878.26 1325.44   1
  -6   9  -9 11870.1 1479.73   1
   6   3   9 11094.0 1370.42   2
   3  -9   9 11292.7 1440.02   1
  -3   9  -9 10716.9 1349.78   1
  -3  -6  -9 9579.14 1249.72   1
   3   6   9 9446.71 1230.77   2
   6  -9   9 11016.9 1377.52   1
   6   3   8 207846. 6313.69   1
   3   6   8 177008. 5882.36   1
  -6  -3  -8 197945. 6056.23   1
  -3  -6  -8 192888. 6032.72   1
  -3   9  -8 167211. 5813.80   1
  -6   9  -8 176444. 6036.75   1
   3  -9   8 179547. 6049.63   1
   6   3   8 178823. 5927.50   2
   3   6   8 174270. 5688.58   2
   6  -9   8 192878. 6201.80   1
   6   3   7 4644.04 935.969   1
   3   6   7 5841.78 962.820   1
   6  -9   7 4571.58 810.392   1
  -6  -3  -7 4715.87 887.879   1
  -3   9  -7 5222.44 927.025   1
   3  -9   7 4194.67 797.103   1
   6   3   7 5334.13 1000.34   2
  -6   9  -7 5239.34 906.287   1
   3   6   7 4983.07 891.179   2
  -3  -6  -7 5645.87 917.022   1
   6   3   6 3476.99 736.911   1
   6  -9   6 5453.66 966.396   1
   3   6   6 4291.88 804.049   1
  -6  -3  -6 5304.16 877.353   1
   3  -9   6 4618.84 931.785   1
  -3   9  -6 5207.22 956.186   1
   6   3   6 4220.43 834.137   2
  -6   9  -6 4088.11 883.162   1
   3   6   6 3466.90 729.783   2
  -3  -6  -6 3890.09 779.596   1
   3   6   5 26708.3 1979.53   1
   3  -9   5 23447.4 1963.88   1
  -3   9  -5 24243.0 2017.20   1
  -3  -6  -5 27325.5 2002.95   1
  -6   9  -5 23424.5 1918.12   1
   6   3   5 25802.9 1969.18   2
   6  -9   5 22295.3 1901.26   1
   3   6   5 28377.3 2019.14   2
   3   6   4 336145. 8179.80   1
   3  -9   4 326430. 8560.36   1
  -3   9  -4 328588. 8488.37   1
  -6   9  -4 327150. 8490.19   1
  -3  -6  -4 317436. 8168.03   1
   6  -9   4 330150. 8538.29   1
   6   3   4 345901. 8403.93   2
   3   6   4 356145. 8456.28   2
  -3  -6  -3-685.193 422.664   1
   3  -9   3 148.476 399.686   1
   3   6   3 137.736 351.265   1
  -3   9  -3-294.318 316.149   1
   6  -9   3-652.365 446.375   1
   6   3   3 50.1477 265.738   2
   3   6   3-365.140 422.953   2
  -6   9  -3 537.277 377.303   1
  -3  -6  -2 5268.89 892.277   1
   3  -9   2 4889.01 929.376   1
   3   6   2 4721.17 819.302   1
   6  -9   2 3612.22 729.642   1
   9  -3  -2 4081.52 921.099   2
  -3   9  -2 4010.30 851.906   1
  -6   9  -2 5224.03 922.025   1
   6   3   2 5231.51 846.155   2
   3   6   2 4853.58 901.341   2
   3  -9   1 740.530 357.284   1
  -3  -6  -1 1550.79 493.202   1
  -3   9  -1 591.877 510.636   1
   6  -9   1 613.951 339.374   1
   3   6   1 232.175 363.335   1
   9  -3  -1 1545.03 568.990   2
  -6   9  -1 999.523 520.779   1
   6   3   1 808.357 306.871   2
   3   6   1 1149.60 574.650   2
   3  -9   0 357555. 8967.00   1
   3   6   0 355672. 8397.09   1
   6  -9   0 391118. 9223.95   1
  -3   9   0 364353. 9031.63   1
  -6   9   0 366635. 9049.62   1
   9  -3   0 382197. 9052.39   2
   6   3   0 375201. 8535.06   2
  -3  -6   0 353794. 8505.26   1
   3   6   0 387983. 8766.97   2
   6  -9  -1 7333.76 1091.89   1
   9  -6   1 6715.39 949.948   1
   3   6  -1 8901.55 1083.42   1
  -3  -6   1 7303.52 989.944   1
  -3   9   1 6918.02 1087.79   1
   9  -3   1 7289.76 1162.45   2
  -6   9   1 7336.58 1071.50   1
   3   6  -1 8000.13 1087.73   2
  -9   6  -1 7096.14 967.472   1
   3  -9  -1 7346.97 1084.22   1
  -3  -6   2 7406.09 961.585   1
   9  -6   2 5951.72 925.969   1
  -3   9   2 6331.69 1010.57   1
  -6   9   2 6613.14 1041.63   1
   9  -3   2 7879.31 1125.96   2
   3  -9  -2 6193.47 1040.53   1
  -9   6  -2 6970.69 987.899   1
   6  -9  -2 5823.45 973.061   1
   3  -9  -3 15179.0 1618.85   1
   9  -6   3 16903.2 1533.28   1
   6  -9  -3 15153.7 1541.26   1
  -3   9   3 17630.2 1725.06   1
  -6   9   3 13474.4 1511.16   1
   9  -6   3 14206.8 1583.42   2
   9  -3   3 14457.5 1585.79   2
  -9   6  -3 16353.1 1554.61   1
   6  -9  -4 167707. 5482.78   1
   9  -6   4 164510. 5302.05   1
   9  -6   4 164896. 5835.63   2
  -3   9   4 166225. 5673.59   1
  -6   9   4 158639. 5457.27   1
   9  -3   4 157720. 5534.06   2
  -9   6  -4 160300. 5394.45   1
   3  -9  -4 164039. 5607.84   1
  -3   9   4 160763. 5430.38   2
   9  -6   5 2003.09 625.155   1
   3  -9  -5 480.798 286.514   1
  -3   9   5 747.627 419.918   1
  -6   9   5 1217.87 515.578   1
   9  -6   5 493.809 419.792   2
   6  -9  -5 1326.92 428.407   1
   9  -3   5 849.171 508.748   2
  -9   6  -5 1243.32 544.381   1
  -3   9   5 825.170 396.785   2
   3  -9  -6 1558.95 609.990   1
   9  -6   6 749.087 352.285   1
  -3   9   6-1209.76 678.736   1
   6  -9  -6 728.490 489.018   1
  -6   9   6 486.637 383.540   1
   9  -6   6 34.9762 377.896   2
   9  -3   6-735.571 451.237   2
  -3   9   6-235.326 324.350   2
  -9   6  -6 375.514 410.738   1
  -3   9   7 26882.0 2161.07   1
  -6   9   7 24958.8 2068.89   1
   9  -6   7 25396.9 2116.66   1
   9  -6   7 22719.0 2026.01   2
   9  -3   7 23564.0 2049.18   2
  -9   6  -7 24674.4 2077.15   1
   3  -9  -7 26316.6 2143.63   1
   6  -9  -7 21924.3 1878.02   1
  -9   3  -7 25382.0 2071.45   1
  -3   9   7 25267.2 1996.20   2
  -3   9   8 262529. 7439.16   1
  -6   9   8 241010. 7196.48   1
   9  -6   8 231066. 7278.41   2
   9  -3   8 240063. 7303.19   2
   9  -6   8 254894. 7447.92   1
   3  -9  -8 267995. 7479.65   1
  -9   6  -8 249901. 7469.37   1
   6  -9  -8 252219. 7219.26   1
   9  -3   8 251055. 7357.16   1
  -9   3  -8 260895. 7527.24   1
  -3   9   8 253816. 7212.74   2
  -9   6  -9 2192.53 581.623   1
  -9   3  -9 1947.56 616.584   1
   3  -9  -9 1229.99 547.541   1
   6  -9  -9 1338.82 533.164   1
  -3   9   9 1529.46 525.598   1
  -6   9   9 1283.88 558.268   1
   9  -6   9 1713.35 602.923   2
   9  -3   9 1841.72 675.725   2
   9  -6   9 2826.63 775.000   1
  -3   9   9 2178.01 693.239   2
   9  -3  10 16286.2 1738.84   2
  -3   9  10 17109.6 1713.29   1
  -6   9  10 15882.2 1645.92   1
   9  -6  10 14807.9 1615.30   2
   3  -9 -10 16241.1 1661.79   1
   6  -9 -10 14486.6 1531.95   1
  -9   6 -10 15433.6 1726.69   1
   9  -6  10 14397.4 1619.67   1
  -3   9  10 17181.0 1637.49   2
  -9   3 -10 16096.9 1756.90   1
  -6   9  10 12374.2 1520.26   2
   9  -3  10 14163.8 1668.84   1
   9  -3  11 1315.91 572.297   2
  -9   6 -11 1053.82 483.457   1
   9  -3  11 1095.73 567.945   1
   3  -9 -11 906.577 513.672   1
   6  -9 -11 727.967 330.040   1
   9  -6  11 1334.69 592.277   1
  -9   3 -11 1939.71 652.081   1
  -3   9  11 1677.49 582.322   1
  -6   9  11 1959.28 621.189   1
   9  -6  11 1199.40 642.782   2
  -3   9  11 1583.73 587.704   2
  -6   9  11 1437.62 611.497   2
  -3   9  12 208048. 6605.07   1
  -6   9  12 197910. 6520.15   1
   3  -9 -12 221616. 6741.83   1
   9  -6  12 201484. 6790.63   2
   6  -9 -12 197666. 6413.07   1
   9  -3  12 202828. 6718.76   2
  -9   6 -12 217974. 7087.85   1
  -3   9  12 203442. 6497.41   2
  -6   9  12 186565. 6509.56   2
  -9   3 -12 193050. 6759.95   1
   9  -6  12 201766. 6852.21   1
   9  -3  12 185440. 6772.66   1
   6  -9 -13 2986.96 723.460   1
  -9   6 -13 2392.81 737.261   1
   9  -3  13 3434.17 922.207   1
  -9   3 -13 3762.94 963.030   1
   9  -6  13 3054.48 816.675   1
  -3   9  13 3466.67 884.759   1
  -6   9  13 3505.37 817.161   1
   9  -6  13 1982.51 848.060   2
   9  -3  13 3442.67 873.356   2
  -3   9  13 3464.47 796.784   2
  -6   9  13 4050.19 1006.76   2
   3  -9 -13 2943.77 814.511   1
  -9   6 -14 8790.74 1361.03   1
   9  -3  14 6963.22 1239.88   1
  -9   3 -14 7072.69 1214.31   1
   9  -6  14 9349.61 1393.56   1
  -3   9  14 10143.3 1442.51   1
  -6   9  14 8416.05 1253.31   1
   9  -6  14 9571.06 1461.53   2
   9  -3  14 7444.11 1257.68   2
   3  -9 -14 8668.38 1243.32   1
  -3   9  14 8850.63 1300.70   2
   6  -9 -14 8192.19 1196.52   1
  -6   9  14 6271.66 1077.95   2
  -9   6 -15 6000.58 1240.75   1
   9  -3  15 5159.77 1083.11   1
  -9   3 -15 4818.68 1043.16   1
  -3   9  15 6129.73 1032.39   1
  -6   9  15 6058.31 1128.00   1
   9  -6  15 5919.33 1031.85   1
   9  -6  15 6250.93 1223.59   2
   9  -3  15 7049.87 1289.50   2
   3  -9 -15 6884.32 1131.19   1
   6  -9 -15 5970.69 1110.16   1
  -3   9  15 7098.76 1214.98   2
  -6   9  15 4723.49 1002.81   2
   7   2  15 3381.64 972.542   1
   2  -9  15 2996.59 916.568   1
  -7  -2 -15 2938.24 774.402   1
   7   2  14 81389.6 4332.49   1
  -7  -2 -14 87153.4 4322.48   1
   2   7  14 115945. 4854.59   1
   7  -9  14 110447. 4830.65   1
  -2  -7 -14 114572. 4685.32   1
  -2   9 -14 75202.2 4093.68   1
   7   2  14 101226. 4456.82   2
  -7   9 -14 105564. 4705.56   1
   2   7  14 99504.0 4349.03   2
   2  -9  14 90258.7 4482.40   1
   7   2  13 9005.60 1421.19   1
   7  -9  13 8444.59 1260.34   1
   2  -9  13 6165.45 1176.45   1
   2   7  13 9034.66 1326.30   1
  -7  -2 -13 8328.58 1261.79   1
   7   2  13 9439.02 1300.62   2
  -2  -7 -13 9129.73 1265.69   1
  -2   9 -13 7810.35 1277.54   1
   2   7  13 7978.97 1244.77   2
  -7   9 -13 9698.76 1290.72   1
   7  -9  12 11756.5 1520.51   1
   7   2  12 10586.0 1462.71   1
   2   7  12 11388.5 1424.99   1
  -2  -7 -12 10934.8 1440.87   1
  -7  -2 -12 10581.0 1394.09   1
   7   2  12 14467.3 1549.53   2
   2  -9  12 11808.3 1533.41   1
  -2   9 -12 10631.3 1441.62   1
   2   7  12 10230.8 1355.38   2
  -7   9 -12 11449.5 1434.52   1
   7   2  11 32895.3 2515.55   1
  -7  -2 -11 32925.8 2509.06   1
   7  -9  11 33111.8 2495.00   1
   2   7  11 31166.1 2390.30   1
  -2  -7 -11 30784.3 2361.23   1
  -2   9 -11 31432.3 2392.11   1
   7   2  11 34841.5 2471.52   2
  -7   9 -11 37110.9 2592.80   1
   2  -9  11 31821.1 2462.88   1
   2   7  11 32081.3 2383.42   2
   7   2  10 23160.0 2100.37   1
   7  -9  10 23012.9 2068.84   1
  -7  -2 -10 26441.7 2233.01   1
   2   7  10 23075.7 1988.79   1
  -2  -7 -10 28341.8 2167.13   1
  -2   9 -10 19670.4 1863.77   1
  -7   9 -10 22266.5 2086.35   1
   7   2  10 24615.2 2089.79   2
   2  -9  10 23415.9 2112.66   1
   2   7  10 25463.7 2059.62   2
   7  -9   9 34792.7 2474.94   1
   7   2   9 32819.1 2466.96   1
  -7  -2  -9 38935.4 2615.99   1
   2   7   9 35097.9 2476.73   1
  -2  -7  -9 35128.6 2444.94   1
  -2   9  -9 30254.0 2366.87   1
   2  -9   9 34382.5 2498.54   1
  -7   9  -9 35057.8 2502.03   1
   7   2   9 35146.5 2390.75   2
   2   7   9 33503.3 2379.01   2
   2   7   8 1695.47 597.673   1
  -7  -2  -8 280.974 357.178   1
   2  -9   8 2159.13 713.982   1
  -2   9  -8 1561.50 567.483   1
   7   2   8 1288.32 557.160   2
   7  -9   8 2046.08 720.995   1
  -7   9  -8 1449.80 535.706   1
   2   7   8 1576.17 577.647   2
  -2  -7  -8 1183.49 540.082   1
   2   7   7 33266.6 2323.67   1
   2  -9   7 35500.0 2513.69   1
  -2   9  -7 34493.5 2431.23   1
  -2  -7  -7 35874.2 2442.86   1
  -7   9  -7 37490.8 2592.34   1
   7   2   7 38467.1 2554.64   2
   2   7   7 36731.4 2388.44   2
   7  -9   7 39901.6 2632.52   1
   2   7   6 246910. 6899.34   1
   2  -9   6 213752. 6759.50   1
  -2   9  -6 236662. 6968.52   1
  -2  -7  -6 227181. 6808.49   1
  -7   9  -6 232426. 7031.00   1
   7   2   6 234520. 6848.83   2
   2   7   6 246669. 6892.48   2
   7  -9   6 233730. 6964.27   1
   2   7   5 119960. 4503.05   1
   2  -9   5 105979. 4400.28   1
  -2   9  -5 105764. 4347.22   1
  -7   9  -5 101774. 4358.84   1
  -2  -7  -5 103545. 4229.76   1
   7   2   5 108715. 4336.69   2
   7  -9   5 113458. 4535.55   1
   2   7   5 111914. 4341.62   2
   2   7   4 131655. 4840.21   1
   2  -9   4 145709. 5251.39   1
  -2   9  -4 141076. 5098.72   1
  -7   9  -4 136128. 5064.68   1
  -2  -7  -4 159015. 5243.14   1
   7   2   4 151225. 5107.41   2
   7  -9   4 145365. 5200.54   1
   2   7   4 149164. 5087.55   2
   2   7   3 91217.3 3864.36   1
   2  -9   3 91979.0 4053.82   1
  -2   9  -3 84571.4 3862.32   1
  -7   9  -3 90553.8 3935.17   1
   7  -9   3 97387.0 4114.80   1
   7   2   3 96452.1 3976.50   2
  -2  -7  -3 90831.9 3818.01   1
   2   7   3 92344.6 3835.67   2
   2  -9   2 236904. 6988.73   1
   2   7   2 243613. 6801.21   1
  -2   9  -2 239231. 7009.63   1
  -7   9  -2 233471. 6954.15   1
   7  -9   2 237733. 6963.91   1
   9  -2  -2 247108. 6909.75   2
   7   2   2 245669. 6855.65   2
  -2  -7  -2 259156. 6999.56   1
   2   7   2 254370. 6964.85   2
  -2  -7  -1 974.928 495.282   1
   9  -7  -1 1064.22 514.120   1
   7  -9   1 667.772 425.814   1
   2   7   1 441.140 458.063   1
  -2   9  -1 1181.30 553.707   1
   9  -2  -1 1673.41 562.803   2
  -9   7   1 1160.87 446.468   1
  -7   9  -1 1122.88 559.395   1
   7   2   1 761.083 420.855   2
   2  -9   1 1137.20 539.924   1
   2   7   1 647.521 463.706   2
   7  -9   0 1514.84 522.584   1
  -2  -7   0 1286.01 472.863   1
   2   7   0 598.510 332.151   1
   9  -7   0 1611.01 589.095   1
  -2   9   0 923.445 495.076   1
   9  -2   0 1279.74 580.259   2
  -7   9   0 1277.11 521.918   1
  -9   7   0 1452.08 509.008   1
   2  -9   0 764.540 390.937   1
   2   7   0 1730.27 616.464   2
   7  -9  -1 2746.15 740.560   1
  -2  -7   1 4983.22 862.016   1
   2   7  -1 3360.85 704.932   1
  -2   9   1 4103.84 875.108   1
   9  -2   1 3038.26 723.774   2
  -7   9   1 2232.78 607.561   1
   2  -9  -1 2326.11 707.330   1
  -9   7  -1 3741.88 784.547   1
   9  -7   1 5211.51 836.332   1
   2   7  -1 3773.11 749.696   2
  -2   9   1 3021.14 795.494   2
   2  -9  -2 44876.4 2731.34   1
   7  -9  -2 40368.7 2578.11   1
   2   7  -2 42385.6 2518.74   1
  -2   9   2 44958.2 2675.88   1
  -7   9   2 44935.1 2710.06   1
   9  -2   2 41367.4 2652.69   2
  -9   7  -2 43240.9 2593.88   1
   9  -7   2 44474.6 2582.73   1
  -2   9   2 40928.9 2552.13   2
  -2  -7   2 44058.8 2550.58   1
  -2  -7   3 142978. 4972.63   1
   7  -9  -3 159639. 5305.69   1
  -2   9   3 154091. 5350.73   1
   2   7  -3 152315. 4999.67   1
  -7   9   3 153747. 5282.86   1
   9  -2   3 141356. 5150.77   2
  -9   7  -3 148494. 5147.76   1
   9  -7   3 143214. 5031.24   1
  -2   9   3 142763. 5066.80   2
   2  -9  -3 143023. 5185.64   1
   9  -7   4 12964.3 1412.13   1
  -2  -7   4 12355.1 1371.02   1
   7  -9  -4 11442.8 1332.03   1
  -2   9   4 12160.9 1484.44   1
  -7   9   4 13762.4 1477.56   1
   9  -2   4 11817.4 1454.04   2
  -9   7  -4 11504.9 1426.34   1
   2  -9  -4 12942.7 1499.49   1
  -2   9   4 12156.1 1381.31   2
   7  -9  -5 116737. 4495.71   1
   9  -7   5 122402. 4638.85   1
  -2   9   5 113549. 4498.83   1
  -7   9   5 100657. 4330.14   1
   9  -2   5 110464. 4461.48   2
  -9   7  -5 116966. 4598.10   1
   2  -9  -5 105943. 4420.35   1
  -2   9   5 106706. 4253.26   2
   9  -7   6 196724. 6241.11   1
  -2   9   6 198917. 6298.29   1
  -7   9   6 204403. 6379.07   1
   9  -7   6 185980. 6438.75   2
   9  -2   6 192239. 6243.15   2
  -9   7  -6 177478. 6084.14   1
   2  -9  -6 191449. 6194.07   1
  -2   9   6 208945. 6192.05   2
   7  -9  -6 188504. 6050.15   1
   2  -9  -7 10574.6 1301.60   1
   9  -7   7 8719.01 1272.36   1
   7  -9  -7 9885.15 1271.15   1
  -2   9   7 7980.56 1208.10   1
  -7   9   7 6456.58 1092.02   1
   9  -7   7 8635.61 1286.53   2
   9  -2   7 9219.72 1330.25   2
  -9   7  -7 7954.28 1251.46   1
  -2   9   7 8492.96 1148.78   2
  -2   9   8 49442.5 2945.56   1
  -7   9   8 47048.1 2873.08   1
   9  -7   8 48785.8 3026.48   1
   9  -7   8 44068.0 2989.64   2
   9  -2   8 46404.6 2945.02   2
   2  -9  -8 51299.2 2962.41   1
  -9   7  -8 44952.5 2952.03   1
   7  -9  -8 43483.5 2734.77   1
  -2   9   8 47631.5 2786.38   2
  -2   9   9 24099.3 2035.71   1
  -7   9   9 22081.6 1973.47   1
   9  -7   9 18723.9 1872.24   1
   9  -7   9 17070.6 1847.79   2
   9  -2   9 17621.1 1829.78   2
   2  -9  -9 21668.2 1939.10   1
  -9   7  -9 20427.1 1953.34   1
   7  -9  -9 20610.6 1841.55   1
  -2   9   9 20693.8 1821.59   2
  -9   2  -9 19399.9 1923.53   1
  -2   9  10 143145. 5296.03   1
  -7   9  10 149415. 5417.17   1
   9  -7  10 135450. 5421.31   1
   9  -7  10 135029. 5466.92   2
   9  -2  10 136557. 5349.86   2
   2  -9 -10 146805. 5334.96   1
   7  -9 -10 142989. 5220.09   1
  -9   7 -10 138977. 5458.66   1
  -2   9  10 145525. 5179.60   2
  -9   2 -10 143011. 5517.93   1
   9  -2  10 136759. 5493.13   1
  -2   9  11 55819.6 3201.12   1
  -7   9  11 53694.7 3095.23   1
   2  -9 -11 61495.6 3344.77   1
   9  -2  11 54568.2 3211.59   2
   9  -7  11 51977.3 3201.41   1
   7  -9 -11 43002.3 2798.59   1
  -9   7 -11 50005.7 3199.60   1
   9  -7  11 50704.1 3260.21   2
  -2   9  11 51791.2 3043.83   2
  -9   2 -11 49311.8 3140.70   1
   9  -2  11 51682.2 3289.34   1
   2  -9 -12 10855.2 1374.30   1
  -9   7 -12 9764.50 1397.48   1
   7  -9 -12 9085.73 1318.49   1
   9  -2  12 8449.09 1349.73   1
  -9   2 -12 10316.5 1462.49   1
  -2   9  12 10600.4 1412.61   1
  -7   9  12 9390.29 1307.52   1
   9  -7  12 8687.10 1442.64   2
   9  -2  12 9420.90 1309.18   2
   9  -7  12 10246.2 1392.68   1
  -2   9  12 9818.42 1303.03   2
  -7   9  12 8915.46 1329.67   2
  -2   9  13 23957.7 2141.36   1
  -7   9  13 18387.4 1931.62   1
   2  -9 -13 24999.4 2086.58   1
   9  -7  13 20193.5 2093.49   2
   9  -2  13 22920.4 2057.79   2
   9  -7  13 19467.4 1994.77   1
  -9   7 -13 22411.8 2144.04   1
  -2   9  13 22553.2 2041.74   2
  -7   9  13 13541.5 1688.13   2
  -9   2 -13 19793.9 1991.36   1
   9  -2  13 18662.6 2050.95   1
  -2   9  14 36067.4 2699.50   1
   2  -9 -14 39011.9 2637.72   1
   9  -7  14 30087.4 2611.29   2
   9  -2  14 37735.5 2735.63   2
  -9   7 -14 37402.2 2740.42   1
   9  -7  14 37936.4 2838.85   1
  -2   9  14 34428.1 2575.52   2
  -7   9  14 26099.2 2333.04   2
  -9   2 -14 30897.3 2603.70   1
   9  -2  14 29213.6 2587.18   1
   9  -2  15 6932.36 1286.31   1
  -9   2 -15 7579.63 1343.29   1
   9  -7  15 6747.46 1259.21   2
  -8  -1 -15 38416.4 2883.06   1
   8   1  14 45934.0 3205.16   1
  -8  -1 -14 48503.8 3263.99   1
   8   1  13 47464.6 3293.09   1
  -8  -1 -13 52415.8 3336.43   1
   1   8  13 66910.9 3588.47   1
   8  -9  13 59789.3 3520.04   1
  -1  -8 -13 65210.6 3481.17   1
   8   1  13 53839.4 3214.96   2
  -8   9 -13 60115.3 3542.74   1
   1   8  13 56237.4 3217.36   2
   8  -9  12 8786.62 1341.83   1
   1   8  12 7308.80 1192.47   1
  -8  -1 -12 6140.72 1162.30   1
   8   1  12 6383.77 1133.34   2
   1  -9  12 5255.03 1044.09   1
  -1  -8 -12 7386.24 1158.82   1
   1   8  12 6806.14 1132.72   2
  -8   9 -12 6440.13 1172.92   1
   8  -9  11 8948.19 1329.83   1
   1   8  11 11913.4 1475.44   1
  -1  -8 -11 10419.1 1379.47   1
   1  -9  11 8896.99 1316.11   1
  -1   9 -11 6881.71 1145.21   1
   8   1  11 8088.31 1225.96   2
  -8   9 -11 9949.23 1366.30   1
   1   8  11 9019.25 1270.45   2
   8  -9  10 90945.4 4276.29   1
   1   8  10 98005.2 4325.17   1
  -1  -8 -10 95069.5 4161.25   1
  -1   9 -10 85498.2 4155.91   1
   1  -9  10 91057.6 4341.43   1
  -8   9 -10 94980.8 4413.72   1
   1   8  10 98085.1 4225.64   2
   8   1  10 88289.2 4126.50   2
   8  -9   9 21476.9 1970.29   1
   1   8   9 22916.6 2008.98   1
   1  -9   9 22518.3 2042.43   1
  -1   9  -9 19612.6 1921.19   1
  -1  -8  -9 22903.7 1943.30   1
   8   1   9 19579.8 1903.70   2
  -8   9  -9 21654.7 1958.68   1
   1   8   9 23434.8 2046.41   2
  -1  -8  -8 3148.89 784.438   1
   1   8   8 2345.61 607.816   1
   1  -9   8 3551.31 852.903   1
  -1   9  -8 3436.34 732.245   1
   8   1   8 2695.35 752.158   2
  -8   9  -8 3661.42 953.339   1
   8  -9   8 2596.94 674.055   1
   1   8   8 3199.05 740.229   2
   1   8   7 47327.8 2808.78   1
   1  -9   7 48709.0 2997.41   1
  -1   9  -7 45560.3 2817.89   1
  -1  -8  -7 41471.4 2696.48   1
  -8   9  -7 46324.7 2932.93   1
   8   1   7 44402.7 2794.72   2
   1   8   7 45706.3 2778.36   2
   8  -9   7 48765.8 2934.63   1
   1   8   6 83603.4 3873.95   1
   1  -9   6 88586.2 4095.23   1
  -8   9  -6 83108.5 3947.08   1
  -1   9  -6 90948.8 4030.37   1
  -1  -8  -6 81208.1 3844.98   1
   8   1   6 84189.8 3882.05   2
   1   8   6 83567.6 3788.75   2
   8  -9   6 89678.2 4062.51   1
   1   8   5 17765.2 1674.09   1
   1  -9   5 19410.6 1841.43   1
  -1   9  -5 17909.4 1765.34   1
  -8   9  -5 19215.1 1821.69   1
   8   1   5 18572.2 1749.72   2
  -1  -8  -5 19436.5 1804.51   1
   8  -9   5 19972.4 1849.32   1
   1   8   5 16441.7 1611.23   2
   1  -9   4 65135.1 3430.92   1
   1   8   4 76411.1 3567.50   1
  -1   9  -4 66191.3 3394.42   1
  -8   9  -4 61604.6 3354.32   1
   8   1   4 70445.4 3477.36   2
  -1  -8  -4 70522.1 3482.93   1
   8  -9   4 68436.8 3459.75   1
   1   8   4 71561.0 3352.71   2
   1  -9   3 42239.5 2680.10   1
   1   8   3 42497.1 2631.75   1
   8   1   3 40162.5 2547.02   2
  -9   8   3 40572.5 2536.28   1
  -1   9  -3 33739.1 2403.27   1
  -8   9  -3 44890.5 2725.91   1
   8  -9   3 39386.7 2568.59   1
  -1  -8  -3 37290.3 2497.57   1
   1   8   3 43089.7 2564.50   2
  -1   9  -3 34057.2 2369.81   2
   1  -9   2 184957. 6146.74   1
   9  -8  -2 210895. 6209.10   1
   8  -9   2 179825. 6041.67   1
   1   8   2 206701. 6232.32   1
  -1   9  -2 200091. 6284.09   1
  -9   8   2 216032. 6354.72   1
  -8   9  -2 190818. 6176.47   1
   8   1   2 217159. 6378.83   2
  -1  -8  -2 190076. 6138.61   1
   1   8   2 221508. 6308.18   2
  -1   9  -2 190420. 6045.82   2
   1  -9   1 64446.6 3349.86   1
   1   8   1 65702.1 3256.99   1
   9  -8  -1 58287.7 3107.80   1
  -1   9  -1 65775.5 3361.83   1
  -9   8   1 74527.8 3461.22   1
   8  -9   1 65532.3 3315.94   1
  -8   9  -1 61085.0 3269.62   1
   8   1   1 64695.8 3247.50   2
   1   8   1 69362.3 3328.75   2
  -1  -8  -1 68344.8 3422.29   1
  -1   9  -1 71508.3 3442.79   2
   8  -9   0 10509.1 1348.69   1
   9  -8   0 9211.26 1203.52   1
  -1  -8   0 7311.56 1073.87   1
   1   8   0 10606.4 1259.99   1
  -1   9   0 7968.43 1212.28   1
   9  -1   0 7233.68 1162.88   2
   1  -9   0 6954.64 1036.02   1
  -8   9   0 9907.35 1246.37   1
  -9   8   0 9310.58 1243.35   1
   1   8   0 9026.97 1195.83   2
  -1   9   0 7961.89 1098.24   2
   8  -9  -1 44817.0 2770.05   1
   1   8  -1 60081.2 3114.43   1
  -1   9   1 49649.1 2941.39   1
  -8   9   1 52723.8 2967.85   1
  -9   8  -1 52493.5 2898.83   1
   9  -8   1 55310.7 2966.12   1
   9  -1   1 47866.1 2925.72   2
   1   8  -1 52146.5 2867.70   2
  -1   9   1 51801.0 2869.08   2
  -1  -8   1 54054.1 3003.09   1
   1  -9  -1 52168.4 2980.78   1
  -1  -8   2 108570. 4387.67   1
   8  -9  -2 115220. 4478.72   1
  -1   9   2 106726. 4379.23   1
   1   8  -2 109251. 4389.17   1
  -8   9   2 100061. 4254.59   1
  -9   8  -2 110165. 4361.77   1
   9  -1   2 115406. 4527.97   2
   9  -8   2 99553.3 4198.64   1
  -1   9   2 105761. 4263.35   2
   1  -9  -2 98456.7 4225.06   1
  -1  -8   3 61186.1 3206.43   1
   8  -9  -3 66514.9 3307.70   1
  -1   9   3 64619.5 3350.14   1
   1   8  -3 57579.6 3103.32   1
  -8   9   3 61334.9 3229.64   1
  -9   8  -3 60158.7 3231.66   1
   9  -1   3 62358.8 3349.63   2
   9  -8   3 65156.9 3259.67   1
  -1   9   3 56348.0 3028.68   2
   1  -9  -3 58219.2 3185.24   1
   9  -8   4 1801.34 543.041   1
   1  -9  -4 1197.60 386.507   1
  -1   9   4 1529.91 573.396   1
  -8   9   4 2213.67 641.997   1
   1   8  -4 2143.82 605.626   1
   9  -1   4 965.664 460.823   2
   8  -9  -4 1123.58 571.363   1
  -1  -8   4 1616.79 584.113   1
  -9   8  -4 1060.28 402.113   1
  -1   9   4 1393.16 554.586   2
   8  -9  -5 13739.5 1470.96   1
  -1  -8   5 12603.8 1432.70   1
  -1   9   5 13479.3 1515.16   1
  -8   9   5 14779.0 1537.99   1
   1   8  -5 13371.8 1439.34   1
   9  -1   5 13775.0 1576.69   2
  -9   8  -5 14278.0 1547.14   1
   1  -9  -5 14916.2 1621.32   1
  -1   9   5 13010.4 1365.36   2
   9  -8   5 15699.2 1680.55   1
   9  -8   6 101719. 4446.64   1
  -1  -8   6 103614. 4432.45   1
  -1   9   6 113541. 4608.66   1
  -8   9   6 114476. 4593.04   1
   9  -1   6 111034. 4562.77   2
  -9   8  -6 111983. 4687.47   1
   1  -9  -6 104921. 4444.12   1
  -1   9   6 107680. 4324.89   2
   8  -9  -6 109627. 4411.52   1
   9  -8   7 7999.81 1225.56   1
   1  -9  -7 7015.06 1082.94   1
   8  -9  -7 7318.85 1094.25   1
  -1   9   7 7112.52 1166.16   1
  -8   9   7 7515.80 1174.92   1
   9  -1   7 7051.28 1189.41   2
  -9   8  -7 8589.28 1227.27   1
  -1   9   7 7581.54 1107.84   2
   9  -8   8 70588.2 3732.44   1
  -1   9   8 75830.4 3750.24   1
  -8   9   8 66664.4 3562.55   1
   9  -1   8 74127.8 3780.45   2
   1  -9  -8 80616.2 3791.05   1
  -9   8  -8 76852.8 3885.12   1
   8  -9  -8 78249.4 3741.40   1
  -1   9   8 72660.4 3479.87   2
  -1   9   9 77969.1 3793.75   1
   9  -8   9 79369.7 3961.13   1
  -8   9   9 76428.7 3833.39   1
   9  -1   9 74183.1 3783.71   2
   1  -9  -9 83732.2 3916.80   1
  -9   8  -9 76543.2 3964.23   1
  -1   9   9 74064.4 3639.35   2
  -1   9  10 111346. 4586.65   1
   9  -8  10 102533. 4665.77   1
   1  -9 -10 108446. 4543.95   1
   9  -1  10 99975.0 4495.99   2
  -9   8 -10 92322.7 4463.68   1
  -1   9  10 99414.5 4210.40   2
  -1   9  11 46148.9 2897.16   1
   9  -8  11 41113.9 2932.13   1
   1  -9 -11 42791.2 2796.21   1
   9  -1  11 40585.8 2829.57   2
  -9   8 -11 39459.2 2839.82   1
  -1   9  11 43349.4 2698.19   2
  -9   1 -12 1183.13 621.047   1
  -1   9  12 1431.79 557.206   1
   9  -8  12 605.852 480.504   1
   9  -1  12 957.378 576.927   2
  -1   9  12 2345.08 740.452   2
  -9   8 -12 928.831 575.135   1
  -8   9  12 783.920 578.076   2
   1  -9 -12 1798.14 594.178   1
  -9   1 -13 5651.88 1113.61   1
  -1   9  13 7766.86 1199.82   1
   9  -8  13 6795.26 1207.40   1
   9  -8  13 4656.22 1058.09   2
   9  -1  13 7038.51 1180.28   2
   1  -9 -13 7098.05 1126.88   1
  -1   9  13 7373.66 1176.29   2
  -8   9  13 3265.32 801.062   2
  -9   8 -13 7725.59 1293.16   1
   9  -8  14 57204.5 3725.00   2
  -9   1 -14 62069.2 3698.67   1
   0   9   0 843659. 17170.7   1
   9  -9   0 856615. 17139.5   1
   0   9   0 902343. 17298.6   2
   0  -9   0 906303. 17486.3   1
   9  -9  -1 861.198 383.822   1
   0  -9  -1 882.999 359.997   1
   9  -9   1 1523.64 623.614   1
   0   9   1 2057.05 738.872   1
   0   9  -1 2361.18 704.914   1
   0  -9   1 786.319 520.306   1
  -9   9   1 1817.54 648.671   1
   9   0   1 1083.96 565.077   2
  -9   9  -1 1437.83 524.413   1
   0   9   1 745.379 480.819   2
   0   9  -1 1420.14 663.009   2
   9  -9  -2 870.961 417.159   1
   0  -9  -2 1239.87 567.554   1
   0   9   2 777.346 457.066   1
   0   9  -2 1058.62 476.357   1
  -9   9   2 1752.67 621.489   1
   9  -9   2 174.449 380.994   1
   9   0   2 1090.57 542.281   2
   0  -9   2 1452.87 633.152   1
  -9   9  -2 1182.37 570.872   1
   0   9   2 382.172 293.706   2
   0  -9  -3 1381.77 473.739   1
   0   9   3 2571.74 789.357   1
   0   9  -3 1735.48 614.114   1
  -9   9   3 2356.65 692.951   1
   9   0   3 345.314 386.915   2
  -9   9  -3 1280.99 584.337   1
   0  -9   3 1580.91 564.264   1
   9  -9   3 1662.83 675.974   1
   9  -9  -3 1760.00 556.471   1
   0   9   3 2042.96 668.046   2
   9  -9  -4 22559.0 1937.12   1
   0  -9   4 24115.5 2062.17   1
   0   9   4 23539.9 2001.16   1
  -9   9   4 23913.6 2022.16   1
   0   9  -4 24770.2 2057.76   1
  -9   9  -4 27080.4 2174.58   1
   9   0   4 24981.1 2150.68   2
   9  -9   4 20500.7 1877.81   1
   0  -9  -4 24165.6 2067.74   1
   0   9   4 26432.3 2058.74   2
   0  -9  -5 1526.98 650.250   1
   9  -9   5 114.953 284.520   1
   0   9   5 525.861 464.295   1
  -9   9   5 358.120 351.747   1
   0   9  -5 224.228 347.808   1
   9   0   5 894.607 520.349   2
  -9   9  -5 258.587 320.039   1
   0   9   5 795.864 449.907   2
   0  -9   5-260.880 389.418   1
   0  -9   6 6721.82 1111.01   1
   0  -9  -6 7092.96 1161.74   1
   0   9   6 5948.42 1029.20   1
   9  -9   6 8232.28 1200.50   1
   0   9  -6 6398.65 1084.92   1
   9   0   6 6327.14 1121.51   2
  -9   9  -6 6048.31 1077.47   1
   0   9   6 6169.63 1037.51   2
   0  -9   7 374.913 369.322   1
   0  -9  -7 2015.43 668.131   1
   0   9   7 747.193 519.142   1
   9  -9   7 1558.56 532.089   1
   0   9  -7 703.126 363.435   1
   9   0   7 1111.47 570.709   2
  -9   9  -7 379.322 562.059   1
   0   9   7 593.726 490.620   2
   9  -9   8 156689. 5761.46   1
   0   9   8 156054. 5607.70   1
   0  -9   8 142273. 5599.46   1
   0  -9  -8 157777. 5581.57   1
   9   0   8 156297. 5695.68   2
  -9   9  -8 155919. 5834.76   1
   0   9   8 161811. 5529.82   2
   0  -9  -9 1277.95 556.433   1
   0   9   9 1981.42 702.004   1
   9   0   9 2072.11 682.073   2
  -9   9  -9 2134.52 713.354   1
   0   9   9 1274.20 532.270   2
   9  -9   9 469.356 396.308   1
   0  -9 -10 1697.51 547.360   1
   9  -9  10 1330.43 665.782   1
   0   9  10 1634.81 657.324   1
   9   0  10 1003.00 496.048   2
  -9   9 -10 2047.90 606.632   1
   0   9  10 279.806 317.760   2
   9  -9  11 311.910 448.216   1
   0   9  11 644.953 494.195   1
   9   0  11 807.939 459.818   2
  -9   9 -11 497.732 663.211   1
   0   9  11-336.938 427.395   2
   0  -9 -11 1050.19 542.148   1
   0   9  12 195656. 6560.19   1
   9  -9  12 186500. 6699.17   1
   9   0  12 186715. 6486.71   2
  -9   9 -12 180793. 6546.92   1
   0   9  12 187095. 6353.84   2
   5   5  14 600.756 452.875   1
  -5  -5 -14 717.125 406.222   1
   5   5  13 698.350 438.175   1
   5 -10  13-154.799 513.356   1
  -5  -5 -13 188.130 301.778   1
   5   5  13 270.753 334.802   2
  -5  10 -13-852.618 518.770   1
   5   5  12 430130. 11388.2   1
  -5  -5 -12 447012. 11252.7   1
  -5  10 -12 492754. 11775.7   1
   5   5  12 512885. 11473.4   2
   5 -10  12 554646. 12237.9   1
   5   5  11 898.938 590.328   1
   5 -10  11 1019.85 521.096   1
  -5  -5 -11 383.361 307.181   1
  -5  10 -11 1247.55 584.488   1
   5   5  11 357.916 389.025   2
   5 -10  10 3639.07 904.493   1
   5   5  10 6429.43 1135.82   1
  -5  -5 -10 3332.36 832.670   1
  -5  10 -10 4091.91 883.935   1
   5   5  10 4755.65 938.370   2
   5 -10   9-642.394 592.861   1
   5   5   9 741.604 506.488   1
  -5  -5  -9 341.657 409.905   1
  -5  10  -9 434.651 303.475   1
   5   5   9-148.320 375.052   2
   5   5   8 39297.8 2635.43   1
  -5  -5  -8 43214.4 2691.27   1
  -5  10  -8 37131.6 2589.49   1
   5 -10   8 36835.7 2562.88   1
   5   5   8 37449.2 2546.62   2
   5   5   7-519.338 427.687   1
  -5  -5  -7-135.542 408.901   1
  -5  10  -7-70.2838 473.939   1
   5   5   7 175.977 441.618   2
   5 -10   7-222.623 421.338   1
   5   5   6 21102.2 1871.17   1
  -5  -5  -6 21447.1 1861.38   1
  -5  10  -6 20176.3 1891.71   1
   5 -10   6 20318.7 1925.64   1
   5   5   6 20637.6 1857.37   2
   5 -10   5 128.593 319.649   1
  -5  10  -5-4.09541 373.642   1
  -5  -5  -5-106.627 251.338   1
   5   5   5-192.853 399.443   2
   5 -10   4 160688. 5639.56   1
  -5  10  -4 152402. 5511.91   1
   5   5   4 162113. 5491.49   2
   5 -10   3-315.596 332.794   1
  -5  10  -3-93.9677 307.897   1
   5   5   3 241.259 433.137   2
   5 -10   2 24455.0 2110.26   1
  -5  10  -2 24502.1 2045.53   1
   5   5   2 27890.2 2052.21   2
   5 -10   1 271.160 300.712   1
  -5  10  -1 193.706 292.181   1
   5   5   1 492.632 438.477   2
   5 -10   0 679202. 14041.8   1
  -5  10   0 656037. 13865.0   1
  10  -5   1 1086.55 680.315   2
  -5  10   1 1127.08 469.474   1
   5 -10  -1 355.808 314.931   1
   5 -10  -2 20713.5 1846.21   1
  -5  10   2 17904.9 1742.85   1
  10  -5   3-88.9223 423.017   2
   5 -10  -3 169.318 336.960   1
  -5  10   3-23.6979 348.940   1
   5 -10  -4 132889. 5045.46   1
  -5  10   4 139448. 5203.46   1
  10  -5   4 127775. 5039.78   2
  -5  10   5-332.983 379.588   1
  10  -5   5-78.9216 269.014   2
   5 -10  -6 9103.09 1269.50   1
  -5  10   6 10061.7 1324.05   1
  10  -5   6 7286.38 1228.73   2
   5 -10  -7 120.423 358.292   1
  -5  10   7-375.865 437.627   1
  10  -5   7 240.907 459.121   2
  -5  10   7-681.361 385.779   2
  -5  10   8 76781.7 3795.60   1
  10  -5   8 74175.4 3860.80   2
   5 -10  -8 75611.1 3787.20   1
 -10   5  -8 77784.5 3967.92   1
  -5  10   8 69241.4 3670.92   2
 -10   5  -9 335.039 330.206   1
  10  -5   9 328.446 452.211   1
   5 -10  -9 687.370 402.528   1
  -5  10   9-442.271 544.444   1
  10  -5   9 766.833 505.018   2
  -5  10   9 127.294 283.133   2
  10  -5  10 17571.2 1862.82   1
  -5  10  10 18025.7 1877.29   1
  10  -5  10 16982.4 1741.67   2
   5 -10 -10 18258.9 1778.91   1
 -10   5 -10 18357.9 1888.68   1
  -5  10  10 18077.2 1772.94   2
 -10   5 -11 450.193 426.448   1
   5 -10 -11 1118.71 557.060   1
  10  -5  11 1102.25 669.439   1
  -5  10  11 883.787 563.551   1
  10  -5  11-43.5124 386.231   2
  -5  10  11 1273.23 672.646   2
  -5  10  12 331282. 8860.01   1
  10  -5  12 323525. 9084.95   2
   5 -10 -12 335636. 8876.46   1
  -5  10  12 331764. 8892.61   2
   5 -10 -13 176.850 360.435   1
 -10   5 -13 496.553 439.213   1
  -5  10  13 528.723 447.979   1
  10  -5  13 705.444 624.204   1
  10  -5  13 761.306 694.677   2
  -5  10  13 540.944 376.740   2
  -5  10  14 35756.9 2610.44   1
  10  -5  14 37424.7 2923.84   1
   5 -10 -14 41491.3 2788.46   1
 -10   5 -14 35992.7 2835.01   1
   6   4  14 52564.2 3415.49   1
  -6  -4 -14 61110.7 3502.19   1
  -4  10 -14 55534.9 3440.61   1
   4 -10  14 58722.0 3514.94   1
   6   4  13 86630.7 4352.33   1
   4   6  13 83340.2 4211.00   1
  -6  -4 -13 81358.9 4111.55   1
  -4  -6 -13 91478.6 4278.85   1
  -4  10 -13 81340.5 4176.37   1
  -6  10 -13 98188.4 4490.19   1
   6   4  13 92554.7 4193.62   2
   4   6  13 88678.5 4116.62   2
   4 -10  13 89640.4 4436.66   1
   6 -10  13 89806.6 4369.01   1
   6   4  12 44722.6 3047.55   1
   4   6  12 50047.7 3186.69   1
  -6  -4 -12 48378.2 3083.89   1
  -4  -6 -12 55178.0 3254.07   1
  -4  10 -12 47420.0 3093.79   1
  -6  10 -12 55707.6 3312.76   1
   6   4  12 50521.1 3027.92   2
   4   6  12 52020.2 3079.56   2
   4 -10  12 56357.9 3375.30   1
   6 -10  12 54733.4 3316.37   1
   4 -10  11 8003.47 1280.32   1
   6   4  11 5454.62 1009.14   1
   4   6  11 5593.80 1069.73   1
   6 -10  11 7407.93 1120.24   1
  -6  -4 -11 7621.67 1164.56   1
  -4  -6 -11 7030.59 1109.34   1
  -4  10 -11 8009.33 1216.08   1
   6   4  11 10044.0 1351.73   2
  -6  10 -11 8551.81 1317.59   1
   4   6  11 5366.85 1033.95   2
   4   6  10 148728. 5567.93   1
  -6  -4 -10 150263. 5527.28   1
  -4  -6 -10 139987. 5368.22   1
  -4  10 -10 146786. 5521.78   1
  -6  10 -10 162628. 5797.84   1
   6   4  10 146158. 5375.57   2
   4 -10  10 155596. 5708.73   1
   4   6  10 153062. 5402.27   2
   6 -10  10 158915. 5783.48   1
   6   4   9 3984.70 867.987   1
   6 -10   9 5277.72 967.125   1
   4   6   9 5370.73 999.389   1
  -6  -4  -9 5183.24 975.906   1
  -4  10  -9 5084.02 1032.95   1
  -4  -6  -9 5106.71 919.709   1
   6   4   9 6157.40 1047.11   2
  -6  10  -9 6355.01 1065.64   1
   4   6   9 4633.46 996.196   2
   4 -10   9 3719.87 957.876   1
   6 -10   8 464.403 372.744   1
   4   6   8 722.285 391.144   1
  -6  -4  -8 470.595 417.939   1
  -4  10  -8 402.360 430.628   1
   4 -10   8-289.376 538.806   1
  -6  10  -8 1333.69 493.490   1
   6   4   8 805.138 410.820   2
  -4  -6  -8 1213.48 556.470   1
   4   6   8 956.009 645.883   2
   4   6   7 59883.3 3289.68   1
  -4  -6  -7 66873.6 3407.05   1
  -4  10  -7 60647.5 3356.81   1
   4 -10   7 62714.8 3416.80   1
  -6  10  -7 62090.7 3380.96   1
   6   4   7 56112.9 3185.85   2
   6 -10   7 58008.9 3285.65   1
   4   6   7 58962.0 3138.61   2
   4   6   6 38406.6 2526.27   1
  -4  -6  -6 39768.6 2524.64   1
   4 -10   6 35367.9 2532.57   1
  -4  10  -6 35714.1 2520.74   1
  -6  10  -6 36418.7 2524.95   1
   6 -10   6 36628.5 2533.61   1
   6   4   6 39541.2 2625.64   2
   4   6   6 38413.1 2502.63   2
   4   6   5 21997.1 1882.53   1
  -4  -6  -5 23200.2 1899.98   1
   4 -10   5 22328.2 1978.38   1
  -4  10  -5 21760.1 1950.79   1
  -6  10  -5 22096.6 1975.21   1
   6 -10   5 22294.9 1968.52   1
   6   4   5 20783.7 1889.36   2
   4   6   5 20658.2 1819.86   2
   4 -10   4 4982.87 996.690   1
   4   6   4 5402.01 910.718   1
   6 -10   4 6714.19 1078.73   1
  -4  10  -4 6585.64 1086.54   1
  -6  10  -4 7211.53 1145.80   1
   6   4   4 6185.86 1066.78   2
   4   6   4 6020.04 1014.25   2
  -4  -6  -4 6569.73 988.820   1
   4 -10   3 29722.4 2284.95   1
   6 -10   3 29088.9 2262.20   1
  -4  10  -3 28649.1 2224.24   1
  -6  10  -3 30716.7 2354.38   1
  -4  -6  -3 31555.9 2216.93   1
   6   4   3 32966.9 2322.62   2
   4   6   3 31312.4 2240.98   2
   4 -10   2 238451. 7151.40   1
   6 -10   2 236494. 7125.23   1
  -4  10  -2 228327. 6976.34   1
  -6  10  -2 224342. 6927.35   1
   6   4   2 248110. 6999.84   2
   4   6   2 250995. 7020.98   2
   4 -10   1 72725.7 3658.72   1
   6 -10   1 73037.6 3633.60   1
  -4  10  -1 74381.4 3683.89   1
  -6  10  -1 75986.5 3689.97   1
  10  -4  -1 82243.5 3972.75   2
   4 -10   0 57975.4 3213.57   1
   6 -10   0 55931.4 3170.09   1
  -4  10   0 57721.0 3189.42   1
  -6  10   0 55837.8 3162.73   1
  10  -4   0 60707.6 3328.38   2
   4 -10  -1 25375.7 2065.81   1
   6 -10  -1 25873.4 2094.46   1
  -4  10   1 25390.5 2079.70   1
  -6  10   1 22797.9 2009.38   1
  10  -4   1 23482.6 2094.17   2
   4 -10  -2 151041. 5454.63   1
   6 -10  -2 153064. 5433.98   1
  -4  10   2 156921. 5543.37   1
  -6  10   2 146028. 5413.72   1
  10  -4   2 162371. 5652.83   2
   4 -10  -3 22889.2 2002.57   1
   6 -10  -3 22594.9 1954.50   1
  -4  10   3 23830.7 2052.09   1
  -6  10   3 23144.8 2022.59   1
  10  -6   3 21769.0 2047.85   2
  10  -4   3 25113.4 2105.19   2
  -4  10   4 1478.06 534.079   1
  -6  10   4 2733.25 710.020   1
   4 -10  -4 1393.05 513.327   1
  10  -6   4 1539.66 587.728   2
  10  -4   4 2388.68 706.458   2
   6 -10  -4 1922.58 614.081   1
  -4  10   5 14100.4 1532.59   1
  -6  10   5 11826.4 1445.28   1
  10  -6   5 11528.3 1522.45   2
  10  -4   5 12565.1 1568.83   2
 -10   6  -5 13240.5 1569.42   1
   4 -10  -5 13701.1 1548.53   1
  -4  10   5 11835.6 1466.92   2
   6 -10  -5 14739.8 1572.30   1
  -4  10   6 59076.5 3375.62   1
  10  -6   6 60921.5 3381.41   1
  -6  10   6 64302.4 3442.19   1
  10  -6   6 61583.1 3446.65   2
  10  -4   6 67178.9 3534.48   2
 -10   6  -6 61042.7 3398.67   1
   4 -10  -6 66137.1 3470.42   1
   6 -10  -6 65175.7 3407.35   1
  -4  10   6 64515.7 3361.16   2
   4 -10  -7 6099.79 1070.78   1
   6 -10  -7 7032.90 1084.90   1
  10  -6   7 7978.92 1221.26   1
  -4  10   7 5562.90 1025.37   1
  -6  10   7 7100.42 1114.71   1
  10  -6   7 6318.72 1085.39   2
  10  -4   7 5615.89 1093.34   2
  -4  10   7 6167.32 1131.45   2
 -10   6  -7 6049.93 1098.88   1
  -4  10   8 11908.3 1507.44   1
  -6  10   8 10896.8 1403.42   1
  10  -6   8 13501.9 1569.95   1
  10  -6   8 10241.4 1383.22   2
  10  -4   8 10481.9 1439.32   2
 -10   6  -8 12808.1 1576.27   1
   4 -10  -8 11753.8 1475.91   1
   6 -10  -8 12119.5 1444.24   1
  -4  10   8 14099.1 1549.07   2
  -4  10   9 116268. 4729.01   1
  -6  10   9 102362. 4490.73   1
  10  -6   9 100280. 4525.26   2
  10  -4   9 106346. 4654.56   2
  10  -6   9 99802.8 4611.75   1
   4 -10  -9 104234. 4522.68   1
   6 -10  -9 103476. 4457.70   1
 -10   6  -9 98435.3 4584.26   1
  -4  10   9 107691. 4496.50   2
  -6  10   9 97927.7 4433.71   2
  -4  10  10 105088. 4538.48   1
  -6  10  10 105499. 4579.69   1
  10  -6  10 102302. 4622.74   2
  10  -4  10 94454.8 4418.93   2
   4 -10 -10 99802.5 4345.17   1
   6 -10 -10 98993.9 4399.16   1
  10  -6  10 93725.5 4515.01   1
 -10   6 -10 91743.0 4505.55   1
 -10   4 -10 99617.5 4693.50   1
  -4  10  10 107714. 4470.10   2
  -6  10  10 97848.8 4413.57   2
  -4  10  11 80691.5 3928.38   1
  -6  10  11 77081.1 3874.57   1
  10  -6  11 72584.2 3963.95   2
  10  -4  11 73452.9 3868.22   2
   4 -10 -11 70609.3 3672.72   1
   6 -10 -11 61450.6 3426.75   1
 -10   6 -11 72065.7 3926.73   1
  10  -6  11 56864.4 3527.74   1
 -10   4 -11 66516.2 3789.85   1
  -4  10  11 75918.7 3682.64   2
  -6  10  11 66711.9 3645.11   2
  -4  10  12 19858.8 1945.71   1
  -6  10  12 16350.8 1717.81   1
  10  -6  12 15741.3 1837.38   2
  10  -4  12 15551.7 1839.39   1
   4 -10 -12 18679.6 1859.39   1
  10  -4  12 14725.2 1754.97   2
   6 -10 -12 15324.4 1689.51   1
 -10   6 -12 15001.3 1804.40   1
 -10   4 -12 15714.2 1824.94   1
  10  -6  12 13715.5 1718.67   1
  -4  10  12 16501.1 1752.99   2
  -6  10  12 16331.7 1679.94   2
   4 -10 -13-257.028 440.717   1
   6 -10 -13 283.712 323.330   1
 -10   6 -13 149.484 361.609   1
 -10   4 -13 244.533 350.621   1
  10  -6  13 313.296 373.539   1
  10  -4  13 1197.24 515.389   1
  -4  10  13 209.465 288.239   1
  -6  10  13-153.293 383.326   1
  10  -6  13 98.6656 471.891   2
  10  -4  13 834.511 499.585   2
  -4  10  13 34.5323 422.863   2
  -6  10  13 504.073 377.487   2
  -6  10  14 83870.7 4227.29   1
   6 -10 -14 80647.1 4115.24   1
  10  -4  14 90899.1 4643.60   1
 -10   6 -14 91278.8 4602.22   1
 -10   4 -14 88282.9 4505.38   1
  -6  10  14 83008.4 4188.79   2
  10  -6  14 87678.2 4564.54   1
  -7  -3 -14 76649.6 4082.79   1
   3 -10  14 72901.7 4019.17   1
   3 -10  13 491.078 388.189   1
   7   3  13 37.2774 316.876   1
   3   7  13 565.519 434.185   1
  -7  -3 -13-417.832 566.756   1
  -3  -7 -13-8.06949 377.216   1
  -3  10 -13 624.192 474.247   1
   3   7  12 10700.2 1412.55   1
  -7  -3 -12 7660.29 1232.41   1
  -3  -7 -12 8144.14 1268.02   1
  -3  10 -12 5891.09 1062.32   1
   7   3  12 8616.27 1298.59   2
   3   7  12 8500.95 1192.68   2
  -7  10 -12 7168.89 1223.16   1
   7 -10  12 7187.06 1297.99   1
   3 -10  12 7541.69 1237.63   1
   3   7  11 8251.83 1248.48   1
   7 -10  11 8657.92 1288.88   1
  -3  10 -11 7551.26 1215.06   1
   7   3  11 6823.66 1073.64   2
  -3  -7 -11 10416.5 1367.38   1
  -7  10 -11 8181.51 1250.08   1
   3   7  11 7546.13 1198.40   2
   3 -10  11 8074.23 1209.18   1
   3   7  10 33862.0 2570.44   1
  -3  -7 -10 48196.7 2988.26   1
  -3  10 -10 37794.2 2682.46   1
   3 -10  10 42117.0 2904.54   1
  -7  10 -10 48159.9 3007.90   1
   7   3  10 45086.9 2864.33   2
   3   7  10 41153.8 2719.09   2
   7 -10  10 44627.6 2890.56   1
   3   7   9 30797.5 2398.30   1
  -3  -7  -9 38299.1 2621.40   1
  -3  10  -9 32969.2 2473.50   1
   3 -10   9 28998.0 2362.91   1
  -7  10  -9 35548.3 2614.43   1
   7   3   9 32709.0 2463.59   2
   3   7   9 30720.2 2361.21   2
   7 -10   9 35617.7 2593.09   1
   3   7   8 31277.9 2388.09   1
  -3  -7  -8 36857.7 2505.10   1
   3 -10   8 38660.2 2698.81   1
  -3  10  -8 35656.9 2570.12   1
  -7  10  -8 35208.0 2564.50   1
   7   3   8 34715.5 2484.22   2
   3   7   8 37628.0 2563.70   2
   7 -10   8 42042.4 2766.56   1
   3   7   7 28796.1 2218.19   1
  -3  -7  -7 32799.2 2333.82   1
   3 -10   7 30934.4 2386.70   1
  -3  10  -7 28954.3 2302.03   1
  -7  10  -7 31238.4 2430.81   1
   7   3   7 29769.8 2309.34   2
   7 -10   7 32077.1 2442.59   1
   3   7   7 30450.2 2264.24   2
   3   7   6 163562. 5599.64   1
   3 -10   6 160343. 5720.93   1
  -3  10  -6 167177. 5786.64   1
  -3  -7  -6 149126. 5429.42   1
  -7  10  -6 163297. 5759.48   1
   7   3   6 172450. 5823.51   2
   7 -10   6 170050. 5860.31   1
   3   7   6 159530. 5543.23   2
   3   7   5 67738.1 3344.42   1
   3 -10   5 58972.1 3313.70   1
  -3  10  -5 53320.4 3136.78   1
  -3  -7  -5 68027.3 3404.29   1
  -7  10  -5 58848.3 3327.77   1
   7 -10   5 62241.8 3419.81   1
   7   3   5 64546.9 3374.60   2
   3   7   5 63403.7 3288.20   2
  -3  -7  -4 1089.31 534.567   1
   3 -10   4 904.763 526.533   1
   3   7   4 1233.49 530.558   1
  -3  10  -4 103.767 360.648   1
   7 -10   4 474.044 445.020   1
  -7  10  -4-33.9467 461.901   1
   7   3   4 1168.88 377.996   2
   3   7   4 503.914 370.000   2
   3   7   3 73912.2 3457.18   1
   3 -10   3 68730.0 3574.29   1
  -3  10  -3 68982.9 3533.83   1
   7 -10   3 67875.8 3540.13   1
  -7  10  -3 63808.5 3428.13   1
  -3  -7  -3 70599.0 3469.09   1
   7   3   3 72079.6 3554.50   2
   3   7   3 73185.2 3549.23   2
   3 -10   2 124786. 4961.38   1
   3   7   2 129809. 4749.66   1
   7 -10   2 121411. 4861.41   1
  -3  10  -2 128531. 4912.21   1
  -7  10  -2 133941. 5064.43   1
  -3  -7  -2 125421. 4706.72   1
   7   3   2 130268. 4885.28   2
   3   7   2 134021. 4970.25   2
   3 -10   1 51489.6 2978.93   1
   3   7   1 46536.0 2695.48   1
   7 -10   1 47054.2 2901.95   1
  -3  10  -1 50771.4 2986.09   1
  -7  10  -1 51226.1 3001.13   1
  10  -3  -1 44804.3 2883.96   2
  -3  -7  -1 52202.4 2889.94   1
   3   7   1 52112.6 2976.16   2
   3 -10   0 27099.2 2133.86   1
   7 -10   0 26094.6 2072.89   1
  -3  10   0 25627.0 2130.94   1
  -7  10   0 25008.3 2086.15   1
  10  -3   0 30242.0 2208.64   2
  -3  -7   0 25572.5 2005.48   1
   7 -10  -1 6461.71 1062.49   1
  -3  10   1 9192.30 1287.97   1
  10  -3   1 9542.21 1330.37   2
  -7  10   1 8093.09 1206.62   1
   3 -10  -1 8993.68 1246.15   1
   3 -10  -2 105073. 4430.16   1
   7 -10  -2 105520. 4396.63   1
  -3  10   2 114210. 4647.14   1
  -7  10   2 105558. 4462.56   1
  10  -3   2 112661. 4603.41   2
  -3  10   3 2007.47 651.944   1
   3 -10  -3 1480.11 574.771   1
  -7  10   3 2814.40 746.044   1
  10  -3   3 900.340 439.327   2
   7 -10  -3 1568.33 556.343   1
 -10   7  -3 1500.84 521.665   1
  -3  10   3 2754.28 729.177   2
   7 -10  -4 20606.2 1904.49   1
  -3  10   4 20773.5 1923.93   1
  -7  10   4 22359.5 1969.22   1
  10  -3   4 19029.5 1894.57   2
 -10   7  -4 21170.4 1912.81   1
  -3  10   4 20027.6 1846.79   2
   3 -10  -4 20191.7 1865.35   1
  10  -7   4 22175.7 1943.97   1
  10  -7   5 38793.7 2626.62   1
  -3  10   5 40130.1 2702.85   1
  -7  10   5 37690.6 2648.74   1
  10  -3   5 35972.7 2557.35   2
 -10   7  -5 45520.0 2909.15   1
   3 -10  -5 38051.6 2636.63   1
  -3  10   5 37800.6 2537.15   2
   7 -10  -5 41754.0 2674.72   1
  10  -7   6 86832.6 4109.84   1
  -3  10   6 98990.1 4350.37   1
  -7  10   6 88827.7 4159.50   1
  10  -7   6 85600.9 4298.50   2
  10  -3   6 92482.9 4259.88   2
 -10   7  -6 96052.8 4374.25   1
   3 -10  -6 92831.7 4206.65   1
  -3  10   6 95834.4 4155.88   2
   7 -10  -6 97558.7 4251.18   1
  10  -7   7 168984. 5978.52   1
  -3  10   7 171954. 5965.05   1
  -7  10   7 157575. 5752.37   1
  10  -7   7 158520. 6094.68   2
  10  -3   7 153027. 5744.94   2
 -10   7  -7 176481. 6169.68   1
   3 -10  -7 175257. 6008.33   1
   7 -10  -7 160963. 5724.62   1
  -3  10   7 173168. 5752.09   2
   3 -10  -8 7722.11 1195.26   1
   7 -10  -8 8725.49 1297.68   1
  10  -7   8 6750.09 1151.43   1
  -3  10   8 7030.18 1085.74   1
  -7  10   8 7123.80 1143.48   1
  10  -7   8 7575.00 1290.49   2
  10  -3   8 7655.25 1280.18   2
  -3  10   8 7546.61 1191.80   2
 -10   7  -8 7873.51 1234.79   1
  -3  10   9 29081.8 2353.87   1
  -7  10   9 31619.5 2433.90   1
  10  -7   9 28196.6 2386.79   1
  10  -7   9 29533.7 2451.18   2
  10  -3   9 26304.4 2332.38   2
   3 -10  -9 31997.9 2387.56   1
 -10   7  -9 26640.4 2349.81   1
   7 -10  -9 28013.4 2272.89   1
  -3  10   9 33040.2 2292.67   2
  -3  10  10 177374. 6076.78   1
  -7  10  10 156410. 5785.87   1
  10  -7  10 144666. 5840.01   1
  10  -7  10 158329. 6120.72   2
  10  -3  10 162806. 6007.23   2
   3 -10 -10 182762. 6031.19   1
   7 -10 -10 168501. 5819.34   1
 -10   7 -10 157542. 6020.01   1
  -3  10  10 165465. 5702.52   2
   3 -10 -11 5039.89 947.651   1
   7 -10 -11 4605.57 952.711   1
  -3  10  11 6541.57 1019.80   1
  -7  10  11 5323.14 1075.67   1
  10  -7  11 5249.99 1056.72   2
  10  -7  11 4597.74 1014.41   1
  10  -3  11 5520.86 1002.26   2
  -3  10  11 5426.46 1036.73   2
  -7  10  11 3519.51 845.752   2
 -10   7 -11 4747.16 1042.54   1
 -10   7 -12 8109.07 1342.52   1
   3 -10 -12 9413.07 1360.43   1
   7 -10 -12 5908.28 1067.56   1
  -3  10  12 9991.36 1337.69   1
  -7  10  12 6536.95 1142.82   1
  10  -7  12 7375.71 1269.63   2
  10  -7  12 7118.41 1265.27   1
  10  -3  12 9110.13 1398.14   2
  -3  10  12 9250.55 1344.09   2
  -7  10  12 7318.97 1181.49   2
  -7  10  13 35436.1 2659.57   1
  10  -7  13 37195.4 2887.26   2
  10  -7  13 36663.3 2818.91   1
 -10   7 -13 37840.2 2831.31   1
  -7  10  13 34110.2 2654.17   2
  -7  10  14 10569.4 1436.46   2
   2 -10  13 1936.18 868.001   1
   8 -10  12 102391. 4735.84   1
   2   8  12 121359. 4930.68   1
  -2  -8 -12 104835. 4586.46   1
  -2  10 -12 82191.5 4287.86   1
   2 -10  12 88745.9 4463.55   1
  -8  10 -12 102988. 4734.63   1
   8   2  12 103006. 4574.42   2
   2   8  12 102302. 4456.56   2
   2   8  11 1818.21 643.736   1
   2 -10  11 1746.72 671.488   1
  -2  10 -11 1253.68 579.010   1
   8   2  11 408.251 398.932   2
   8 -10  11 192.657 278.220   1
  -2  -8 -11 2353.69 726.847   1
  -8  10 -11 1688.31 578.909   1
   2   8  11 1114.59 457.512   2
   2   8  10 673.416 460.114   1
   2 -10  10 731.903 561.945   1
   8 -10  10 706.989 533.725   1
  -2  10 -10-547.006 507.403   1
   8   2  10 1258.13 573.773   2
  -8  10 -10 1377.02 670.708   1
  -2  -8 -10 906.948 597.143   1
   2   8  10 965.956 426.263   2
   2   8   9 72.8533 306.545   1
   2 -10   9 203.170 354.232   1
   8 -10   9 427.957 371.920   1
  -2  10  -9 285.402 337.708   1
   8   2   9 211.577 352.019   2
  -8  10  -9 542.431 629.451   1
   2   8   9-56.5646 389.002   2
  -2  -8  -9 384.043 303.922   1
   2   8   8 111192. 4700.43   1
   2 -10   8 114094. 4915.48   1
  -2  10  -8 110663. 4750.97   1
  -2  -8  -8 113777. 4704.38   1
  -8  10  -8 133770. 5183.31   1
   8   2   8 115833. 4812.51   2
   2   8   8 116774. 4719.22   2
   8 -10   8 134742. 5247.70   1
   2   8   7 11332.7 1401.10   1
   2 -10   7 11257.9 1445.47   1
  -2  -8  -7 13335.2 1510.16   1
   8   2   7 13096.2 1529.30   2
  -2  10  -7 9874.70 1303.81   1
   8 -10   7 12852.1 1533.58   1
   2   8   7 9899.06 1406.53   2
  -8  10  -7 12832.7 1482.73   1
  -2  -8  -6 5157.67 991.790   1
   8 -10   6 4974.93 933.957   1
   2 -10   6 5511.07 1051.85   1
   2   8   6 5289.61 970.248   1
  -2  10  -6 4416.34 905.257   1
   8   2   6 5128.32 947.502   2
  -8  10  -6 6607.69 1109.99   1
   2   8   6 3572.26 915.556   2
  -2  -8  -5-215.681 295.123   1
   2 -10   5 307.697 381.189   1
   2   8   5 890.029 519.448   1
  -2  10  -5 556.018 503.827   1
   8   2   5 176.993 455.443   2
  -8  10  -5 428.614 410.156   1
   2   8   5-35.3319 470.018   2
   8 -10   5 432.404 365.907   1
   2   8   4 292052. 7950.79   1
   2 -10   4 258637. 7806.92   1
  -2  10  -4 282262. 7952.14   1
  -8  10  -4 288014. 8042.18   1
   8 -10   4 268248. 7880.87   1
  -2  -8  -4 286781. 7920.35   1
   8   2   4 300263. 8141.55   2
   2   8   4 283034. 7948.36   2
  -2  -8  -3 7729.45 1140.65   1
   2   8   3 4884.37 890.085   1
   8 -10   3 6045.97 1068.66   1
  -2  10  -3 5663.42 1020.64   1
  -8  10  -3 5742.00 1041.66   1
   8   2   3 6077.53 1050.03   2
   2   8   3 6199.74 1085.50   2
  -2  10  -3 3879.66 870.468   2
   2 -10   3 4675.94 905.125   1
   2 -10   2 18244.1 1802.43   1
   2   8   2 20704.8 1817.54   1
  -2  10  -2 17079.8 1776.53   1
   8 -10   2 16541.6 1709.70   1
  -8  10  -2 19739.1 1881.79   1
   8   2   2 19344.2 1831.84   2
  -2  -8  -2 20966.2 1853.65   1
   2   8   2 20391.7 1944.73   2
  -2  10  -2 12606.6 1493.18   2
  -2  -8  -1 431.254 401.747   1
   8 -10   1 57.1293 403.099   1
   2   8   1-8.68987 297.093   1
  -2  10  -1-29.0797 423.476   1
  -8  10  -1-144.501 353.857   1
   2 -10   1-169.814 557.321   1
   2   8   1 500.611 346.467   2
  -2  10  -1 144.386 336.990   2
   2 -10   0 172160. 5890.04   1
   2   8   0 164260. 5606.02   1
   8 -10   0 185815. 6146.32   1
  -2  10   0 174223. 5985.78   1
  -8  10   0 170223. 5855.56   1
  10  -2   0 172206. 5961.33   2
  -2  -8   0 181334. 5901.07   1
   8 -10  -1 1658.49 605.933   1
  -2  -8   1 2315.51 658.902   1
   2   8  -1 1826.62 531.066   1
  -2  10   1 2162.48 657.990   1
   2 -10  -1 1665.90 637.311   1
  -8  10   1 2046.05 581.247   1
  10  -2   1 2224.89 702.721   2
 -10   8  -1 1724.37 559.020   1
  -2  10   1 1627.97 649.487   2
   8 -10  -2 21466.7 1911.44   1
  -2  10   2 22854.6 2018.36   1
  -8  10   2 18953.8 1828.43   1
 -10   8  -2 19360.9 1740.88   1
  10  -2   2 20851.5 1940.74   2
  10  -8   2 22119.1 1940.04   1
  -2  -8   2 19958.7 1833.30   1
  -2  10   2 19563.9 1853.66   2
   2 -10  -2 19046.3 1857.66   1
  10  -8   3 1385.07 572.851   1
   2 -10  -3 359.090 310.149   1
  -2  10   3 920.313 616.077   1
  -8  10   3 1053.27 613.867   1
  10  -2   3 395.942 374.427   2
 -10   8  -3 617.755 473.438   1
   8 -10  -3-38.4340 392.534   1
  -2  10   3 58.0000 330.134   2
   8 -10  -4 167852. 5771.41   1
  -2  10   4 165096. 5898.15   1
  -8  10   4 182903. 6107.39   1
  10  -2   4 165491. 5988.63   2
 -10   8  -4 149956. 5668.43   1
  10  -8   4 185198. 6072.03   1
   2 -10  -4 175162. 6033.46   1
  -2  10   4 174734. 5779.74   2
  -2  10   5 10097.5 1361.72   1
  -8  10   5 8931.95 1328.57   1
   8 -10  -5 8633.92 1239.43   1
  10  -2   5 10056.6 1346.30   2
   2 -10  -5 10049.2 1346.01   1
 -10   8  -5 8966.13 1295.11   1
  -2  10   5 9578.60 1282.48   2
  10  -8   5 9512.79 1356.21   1
   2 -10  -6-90.4781 295.025   1
  -2  10   6 2.58571 367.825   1
   8 -10  -6 158.419 329.057   1
  -8  10   6 740.319 546.011   1
  10  -2   6 229.198 325.163   2
 -10   8  -6 597.651 459.504   1
  10  -8   6 718.589 459.992   1
  -2  10   6 768.064 436.978   2
  10  -8   7 4168.13 930.396   1
   2 -10  -7 4234.31 857.959   1
   8 -10  -7 4087.99 924.808   1
  -2  10   7 4672.13 906.734   1
  -8  10   7 4522.54 944.411   1
  10  -2   7 3026.99 776.198   2
 -10   8  -7 3342.10 772.000   1
  -2  10   7 4895.69 861.028   2
  10  -8   8 175091. 6347.90   1
  -2  10   8 216680. 6717.35   1
  -8  10   8 176824. 6174.41   1
  10  -2   8 185742. 6487.80   2
 -10   8  -8 175587. 6426.82   1
   2 -10  -8 205265. 6535.59   1
   8 -10  -8 178747. 6189.34   1
  -2  10   8 190907. 6186.78   2
   2 -10  -9 4398.00 892.635   1
  10  -8   9 3279.69 871.469   1
   8 -10  -9 3604.13 886.113   1
  -2  10   9 2841.74 724.626   1
  -8  10   9 3399.46 806.531   1
  10  -2   9 3728.96 891.203   2
 -10   8  -9 4043.47 892.252   1
  -2  10   9 4840.73 836.170   2
   2 -10 -10 980.185 433.369   1
  10  -8  10 1566.83 541.429   1
  -2  10  10 2006.11 667.090   1
  -8  10  10 709.705 494.648   1
  10  -2  10 1011.07 624.670   2
 -10   8 -10 298.835 520.578   1
  -2  10  10 1825.91 672.261   2
   2 -10 -11 1335.79 688.286   1
  10  -8  11 1869.10 639.661   1
  -2  10  11 1267.58 710.652   1
  10  -8  11 5.31527 562.697   2
  10  -2  11 768.483 359.947   2
  -2  10  11 1590.95 679.378   2
 -10   8 -11 1139.07 591.080   1
  -8  10  11 650.141 554.176   2
  -2  10  12 133730. 5207.05   1
  10  -8  12 123099. 5373.06   1
   2 -10 -12 141599. 5246.03   1
  10  -8  12 105283. 5092.98   2
  10  -2  12 119705. 5106.28   2
 -10   8 -12 117606. 5223.21   1
  -2  10  12 129698. 4955.44   2
  -8  10  13 591.565 601.075   2
   1   9  11 51917.5 3203.82   1
  -1  -9 -11 45743.3 2945.25   1
   9   1  11 46865.0 2989.65   2
  -9  10 -11 45860.6 3111.99   1
   1   9  11 41905.2 2870.36   2
   9 -10  11 48732.0 3191.10   1
   1   9  10 86179.3 4235.95   1
  -1  -9 -10 96618.2 4346.68   1
  -9  10 -10 96730.8 4539.14   1
   9   1  10 87592.0 4230.80   2
   1   9  10 91051.5 4215.50   2
   9 -10  10 94680.0 4527.61   1
   1   9   9 71430.1 3690.41   1
  -1  10  -9 58882.5 3453.84   1
  -1  -9  -9 68756.6 3645.86   1
  -9  10  -9 65294.6 3662.00   1
   9   1   9 64440.2 3555.09   2
   1   9   9 66248.9 3568.73   2
   9 -10   9 67588.9 3693.97   1
   1   9   8 25955.5 2206.93   1
   1 -10   8 23772.1 2205.07   1
  -1  10  -8 22913.2 2141.68   1
  -1  -9  -8 25836.0 2188.78   1
  -9  10  -8 29998.8 2442.29   1
   9   1   8 26844.7 2274.82   2
   1   9   8 25131.8 2202.38   2
   9 -10   8 31082.6 2470.09   1
  -1  -9  -7 5402.43 1039.60   1
   1 -10   7 6226.80 1148.24   1
   9 -10   7 5401.71 1026.21   1
   1   9   7 4919.47 895.045   1
  -1  10  -7 4268.04 920.977   1
   9   1   7 5574.04 1047.63   2
  -9  10  -7 5712.86 1066.49   1
   1   9   7 3014.25 786.071   2
   1   9   6 25197.0 2107.42   1
   1 -10   6 21417.2 2021.08   1
  -1  10  -6 20613.5 2002.52   1
  -9  10  -6 26832.6 2251.07   1
   9   1   6 24147.0 2117.02   2
  -1  -9  -6 24073.2 2072.87   1
   9 -10   6 21848.9 2061.18   1
   1   9   6 22699.1 2068.91   2
   1 -10   5 12554.1 1534.49   1
   1   9   5 12557.9 1538.49   1
  -1  10  -5 12880.6 1480.79   1
  -9  10  -5 15702.8 1698.39   1
   9   1   5 13791.4 1563.99   2
  -1  -9  -5 14094.4 1562.64   1
   9 -10   5 12992.4 1541.84   1
   1   9   5 12161.2 1507.29   2
  -1  -9  -4 1634.68 567.969   1
   1   9   4 1501.94 501.074   1
  -1  10  -4 1130.29 496.334   1
   9   1   4 1321.47 601.242   2
  -9  10  -4 3430.72 784.107   1
   9 -10   4 2514.09 722.761   1
   1 -10   4 2388.87 665.010   1
   1   9   4 2264.30 713.310   2
   1 -10   3 32350.5 2445.52   1
   1   9   3 27795.9 2229.72   1
  -1  10  -3 30205.8 2378.83   1
  -9  10  -3 33695.7 2435.69   1
   9 -10   3 33309.3 2439.33   1
   9   1   3 34491.7 2560.75   2
  -1  -9  -3 32946.0 2464.41   1
   1   9   3 29500.4 2297.23   2
   1 -10   2 158505. 5729.93   1
   1   9   2 175142. 5931.76   1
  -1  10  -2 145596. 5555.90   1
   9 -10   2 176650. 5991.68   1
  -9  10  -2 175324. 5969.38   1
  -1  -9  -2 150326. 5635.89   1
   1   9   2 162905. 5743.25   2
   1 -10   1 33517.2 2494.62   1
   1   9   1 37296.8 2556.57   1
  -1  10  -1 36819.7 2563.29   1
   9 -10   1 37526.4 2613.12   1
  -9  10  -1 36679.8 2614.89   1
  -1  -9  -1 34942.1 2494.90   1
   1   9   1 34569.1 2496.30   2
  -1  10  -1 32565.7 2438.08   2
   1   9   0 26318.3 2171.32   1
   9 -10   0 27610.9 2197.63   1
  -1  10   0 29028.4 2328.11   1
  10  -9   0 19584.3 1930.46   1
  -9  10   0 26463.2 2246.51   1
 -10   9   0 31179.9 2286.85   1
  -1  -9   0 27591.8 2256.32   1
  -1  10   0 26052.3 2156.02   2
   1 -10   0 25889.9 2160.64   1
   9 -10  -1 84418.5 3978.35   1
   1   9  -1 77948.6 3840.35   1
  -1  10   1 74239.2 3787.44   1
  -9  10   1 82670.5 3957.38   1
  10  -9   1 90040.4 4049.71   1
 -10   9  -1 78740.7 3880.75   1
  -1  10   1 72720.3 3660.69   2
  -1  -9   1 75758.2 3792.80   1
   1 -10  -1 71645.9 3761.87   1
  -1  10   2 164783. 5818.94   1
   1   9  -2 168325. 5780.52   1
  -9  10   2 150772. 5584.92   1
 -10   9  -2 145797. 5518.54   1
  10  -9   2 156285. 5625.44   1
  10  -1   2 155496. 5827.91   2
  -1  10   2 155293. 5500.28   2
   1 -10  -2 159656. 5709.05   1
  -1  -9   2 153343. 5604.40   1
   9 -10  -3 15927.7 1628.17   1
  -1  10   3 18660.0 1809.93   1
   1   9  -3 16977.5 1791.96   1
  -9  10   3 16321.7 1780.69   1
 -10   9  -3 20883.9 1913.21   1
  10  -1   3 17736.2 1863.93   2
  10  -9   3 18795.6 1830.54   1
   1 -10  -3 16489.0 1750.90   1
  -1  10   3 17840.3 1757.53   2
  -1  -9   3 20304.2 1938.85   1
  -1  -9   4 23141.4 2077.98   1
   9 -10  -4 23758.3 2033.98   1
  -1  10   4 26130.2 2194.92   1
  -9  10   4 24912.6 2139.56   1
 -10   9  -4 26979.3 2208.56   1
  10  -1   4 27372.0 2262.47   2
  10  -9   4 24062.7 2094.90   1
   1 -10  -4 25595.8 2192.82   1
  -1  10   4 21760.3 1942.72   2
  10  -9   5 6958.64 1146.20   1
   1 -10  -5 5253.10 922.249   1
  -1  10   5 5677.83 1067.81   1
  -9  10   5 5970.44 1079.15   1
   9 -10  -5 5467.62 913.286   1
  10  -1   5 5178.81 1017.87   2
 -10   9  -5 6802.82 1178.63   1
  -1  10   5 6251.11 1048.82   2
  -1  10   6 21546.2 1972.55   1
  -9  10   6 19496.8 1932.60   1
  10  -1   6 18479.5 1951.59   2
 -10   9  -6 18367.5 1907.33   1
   1 -10  -6 22301.2 1997.17   1
  -1  10   6 22075.8 1941.76   2
  10  -9   6 17168.4 1842.74   1
  -1  10   7 76214.4 3824.72   1
  10  -1   7 63796.6 3634.18   2
 -10   9  -7 68556.3 3774.27   1
   1 -10  -7 79831.6 3820.09   1
  -1  10   7 67976.1 3524.19   2
  10  -9   7 66332.8 3647.69   1
   1 -10  -8 1859.60 684.078   1
  -1  10   8 2671.16 758.323   1
  10  -1   8 1381.12 611.810   2
 -10   9  -8 1344.42 582.703   1
  10  -9   8 635.193 391.724   1
  -1  10   8 1371.50 572.388   2
  10  -9   9 15486.1 1770.02   1
  -1  10   9 19642.3 1971.62   1
   1 -10  -9 18088.0 1850.63   1
  10  -1   9 18527.1 1896.93   2
 -10   9  -9 14731.7 1760.35   1
  -1  10   9 19623.7 1906.39   2
  10  -9  10 123575. 5256.71   1
  -1  10  10 140465. 5357.80   1
   1 -10 -10 137703. 5285.42   1
  10  -1  10 124193. 5195.41   2
 -10   9 -10 115477. 5173.35   1
  -1  10  10 133014. 5061.99   2
  10  -9  11 2587.79 753.240   1
  10  -1  11 2165.28 727.592   2
 -10   9 -11 1884.92 720.479   1
  -9  10  12 3984.12 905.038   2
  10 -10   0 35423.3 2600.84   1
   0  10   0 37174.4 2647.96   1
 -10  10   0 40419.8 2739.23   1
   0 -10   0 42365.1 2787.34   1
  10 -10  -1 61472.0 3394.33   1
   0  10   1 59184.2 3310.01   1
   0  10  -1 57280.1 3337.32   1
  10 -10   1 53157.5 3195.58   1
 -10  10   1 60391.4 3416.06   1
 -10  10  -1 52191.5 3224.27   1
   0  10   1 53661.7 3195.46   2
   0 -10  -1 55438.7 3259.12   1
   0 -10   1 60024.9 3415.81   1
   0  10   2 179309. 6115.14   1
   0  10  -2 170598. 6115.82   1
 -10  10   2 179461. 6195.08   1
  10 -10   2 175303. 6149.31   1
 -10  10  -2 168716. 6095.86   1
   0 -10  -2 180219. 6185.01   1
   0  10   2 160655. 5885.56   2
   0 -10   2 163383. 5965.89   1
   0 -10   3 17478.4 1803.99   1
   0  10   3 15325.6 1723.90   1
   0  10  -3 17493.4 1785.08   1
  10 -10   3 17488.6 1835.31   1
 -10  10  -3 18123.9 1856.68   1
  10   0   3 14919.6 1782.59   2
   0 -10  -3 16776.7 1797.18   1
   0  10   3 17086.0 1728.36   2
   0 -10  -4 3843.12 906.457   1
   0  10   4 3107.98 814.772   1
   0  10  -4 3618.11 912.710   1
  10   0   4 4203.17 899.857   2
   0 -10   4 4307.69 905.776   1
  10 -10   4 5235.04 968.036   1
 -10  10  -4 3955.65 908.400   1
   0  10   4 3147.10 851.355   2
   0 -10   5 12464.3 1608.54   1
   0  10   5 15348.3 1699.43   1
   0  10  -5 11639.3 1544.51   1
 -10  10  -5 14379.2 1675.43   1
  10   0   5 12262.4 1611.84   2
   0 -10  -5 13840.9 1619.51   1
   0  10   5 12053.9 1542.69   2
  10 -10   5 12614.5 1526.87   1
  10 -10   6 8647.69 1337.56   1
   0  10   6 10330.3 1409.79   1
 -10  10  -6 12367.6 1565.79   1
   0 -10  -6 11533.6 1569.11   1
  10   0   6 9412.69 1413.00   2
   0  10   6 6932.75 1160.25   2
   0  10   7 27545.3 2260.99   1
 -10  10  -7 27465.2 2362.39   1
  10   0   7 23564.4 2169.64   2
   0 -10  -7 26936.5 2274.20   1
  10 -10   7 27521.6 2353.19   1
   0  10   7 26325.8 2234.02   2
   0 -10  -8 4901.78 955.389   1
  10 -10   8 2885.98 815.411   1
   0  10   8 4132.56 880.739   1
  10   0   8 3189.49 874.375   2
 -10  10  -8 2028.47 605.854   1
   0  10   8 2681.35 816.607   2
   0  10   9 31178.2 2390.71   1
   0 -10  -9 30705.2 2389.91   1
  10   0   9 25562.5 2329.65   2
 -10  10  -9 30543.8 2507.46   1
   0  10   9 28647.8 2353.17   2
  10 -10   9 29009.0 2497.16   1
 -10  10 -10 105760. 4913.04   1
  10 -10  10 116412. 5143.68   1
   5   6  12 14030.8 1778.56   1
  -5  -6 -12 12925.9 1619.02   1
   5   6  11 32457.2 2587.79   1
  -5  -6 -11 28695.9 2389.35   1
  -5  11 -11 33928.8 2602.29   1
  -6  11 -11 34464.6 2620.87   1
   5 -11  11 36785.3 2751.22   1
   6   5  11 38127.6 2642.75   2
   5   6  11 37229.4 2551.06   2
   6 -11  11 37687.8 2699.76   1
   5   6  10 121998. 5286.92   1
  -5  -6 -10 129371. 5258.74   1
  -5  11 -10 141159. 5454.81   1
  -6  11 -10 159439. 5793.52   1
   5 -11  10 141304. 5545.88   1
   6   5  10 134392. 5273.62   2
   6 -11  10 152367. 5664.09   1
   5   6  10 138754. 5279.84   2
  -5  -6  -9 35685.7 2643.91   1
  -5  11  -9 41342.4 2849.54   1
  -6  11  -9 45582.7 2935.29   1
   5 -11   9 45321.9 2980.88   1
   6 -11   9 41644.2 2873.09   1
   6   5   9 44449.7 2833.80   2
   5   6   9 43246.5 2844.21   2
   5 -11   8 3550.27 778.979   1
  -5  11  -8 4235.04 861.256   1
  -6  11  -8 4318.24 986.741   1
   6 -11   8 5224.29 1041.64   1
   6   5   8 4515.92 944.377   2
   5   6   8 5231.66 1017.05   2
   5 -11   7 18096.0 1851.49   1
  -5  11  -7 15352.7 1701.20   1
  -6  11  -7 15824.2 1706.59   1
   6 -11   7 15696.8 1698.44   1
   6   5   7 12303.4 1532.29   2
   5   6   7 12366.9 1521.90   2
   5 -11   6 41257.6 2816.23   1
  -5  11  -6 43639.5 2842.60   1
   6 -11   6 39575.9 2728.33   1
  -6  11  -6 42794.7 2846.24   1
   6   5   6 37991.9 2686.02   2
   5   6   6 40446.4 2713.50   2
   5 -11   5 41001.4 2793.35   1
   6 -11   5 43532.7 2831.57   1
  -5  11  -5 40166.2 2705.68   1
  -6  11  -5 40228.1 2750.10   1
   6   5   5 38945.1 2675.35   2
   5   6   5 36896.1 2672.31   2
   5 -11   4 10964.8 1378.74   1
   6 -11   4 12125.7 1536.32   1
  -6  11  -4 10131.4 1357.29   1
  -5  11  -4 10932.6 1425.37   1
   5   6   4 13212.7 1541.13   2
   6   5   4 10210.1 1366.82   2
   5 -11   3 27679.7 2281.98   1
   6 -11   3 27736.5 2331.34   1
  -5  11  -3 28655.7 2272.64   1
  -6  11  -3 28641.3 2283.62   1
   5   6   3 30098.3 2345.80   2
   5 -11   2 125802. 5059.09   1
   6 -11   2 131084. 5139.73   1
  -5  11  -2 113148. 4803.50   1
  -6  11  -2 124402. 4990.23   1
   5 -11   1 116.336 330.366   1
   6 -11   1 12.1945 406.296   1
  -5  11  -1 853.022 381.952   1
  -6  11  -1-546.013 472.486   1
   5 -11   0 16039.6 1694.99   1
   6 -11   0 18153.7 1814.26   1
  -5  11   0 18355.6 1813.23   1
  -6  11   0 17662.7 1765.94   1
   5 -11  -1 17589.8 1790.21   1
   6 -11  -1 16562.6 1738.29   1
  -5  11   1 17787.2 1809.71   1
  -6  11   1 16244.9 1776.97   1
  11  -5   1 14621.8 1709.37   2
   5 -11  -2 188238. 6264.22   1
   6 -11  -2 187433. 6229.53   1
  -5  11   2 179630. 6162.03   1
  -6  11   2 177384. 6122.19   1
   5 -11  -3 69206.0 3654.53   1
   6 -11  -3 66241.6 3561.66   1
  -5  11   3 72747.9 3755.93   1
  -6  11   3 71764.5 3705.21   1
  11  -6   3 61736.5 3608.90   2
  11  -5   3 67181.5 3710.17   2
  -5  11   4 18302.0 1871.01   1
  -6  11   4 16165.4 1782.75   1
  11  -6   4 13982.3 1682.72   2
  11  -5   4 14567.5 1792.00   2
   5 -11  -4 12234.1 1527.74   1
   6 -11  -4 17121.6 1783.42   1
  -5  11   5 33829.0 2532.49   1
  -6  11   5 33178.7 2515.84   1
  11  -6   5 28518.6 2440.43   2
  11  -5   5 34161.8 2604.59   2
   5 -11  -5 32220.4 2473.61   1
   6 -11  -5 33668.1 2466.53   1
  -5  11   6 54745.8 3257.67   1
  -6  11   6 56344.9 3274.87   1
  11  -6   6 51776.0 3212.79   2
  11  -5   6 47945.7 3137.63   2
   5 -11  -6 52682.7 3191.18   1
   6 -11  -6 53429.2 3158.23   1
  -5  11   6 48293.4 3002.32   2
  -5  11   7 37001.0 2610.44   1
  -6  11   7 34407.7 2542.55   1
  11  -6   7 33268.3 2626.85   2
  11  -5   7 28235.5 2335.76   2
   5 -11  -7 32682.6 2482.21   1
   6 -11  -7 38799.5 2689.55   1
  -5  11   7 27098.5 2266.52   2
   5 -11  -8 511.153 477.235   1
   6 -11  -8-310.336 541.838   1
  -5  11   8-683.769 549.279   1
  -6  11   8 837.833 577.709   1
  11  -6   8 980.235 665.439   2
  11  -5   8 932.817 563.410   2
  -5  11   8 666.096 456.270   2
  -6  11   8 500.144 505.625   2
  -5  11   9 23392.6 2076.69   1
  -6  11   9 23078.8 2094.17   1
  11  -6   9 23436.0 2251.53   2
  11  -5   9 20128.4 2035.55   2
   5 -11  -9 19184.4 1897.30   1
   6 -11  -9 19711.5 1953.80   1
  -5  11   9 22391.0 2025.89   2
  -6  11   9 16458.2 1761.64   2
  -5  11  10 86628.4 4151.03   1
  -6  11  10 85826.5 4155.88   1
  11  -6  10 74335.7 4088.14   2
  11  -5  10 77213.7 4118.66   2
   5 -11 -10 78860.6 4001.05   1
   6 -11 -10 78838.2 3985.54   1
  -5  11  10 88302.8 4102.24   2
  -6  11  10 80534.4 4085.63   2
   5 -11 -11 3336.99 824.049   1
   6 -11 -11 3887.66 957.401   1
  -5  11  11 4782.10 1043.69   1
  -6  11  11 3551.97 851.873   1
  -5  11  11 4126.67 776.585   2
  -6  11  11 3493.45 787.839   2
   4   7  11 5921.57 1158.57   1
  -4  -7 -11 4589.55 945.028   1
   4 -11  11 7199.57 1275.35   1
  -4  11 -11 5267.71 1091.44   1
   7   4  11 5356.64 985.399   2
   4   7  10 27727.5 2349.80   1
  -4  -7 -10 26991.1 2290.53   1
  -4  11 -10 30880.8 2408.97   1
   4 -11  10 31163.7 2478.56   1
  -7  11 -10 30793.0 2465.35   1
   7   4  10 32465.3 2509.50   2
   4   7  10 31286.2 2392.82   2
   7 -11  10 30738.5 2477.20   1
   7 -11   9 2640.89 755.087   1
   4   7   9 1883.38 645.472   1
   4 -11   9 1789.57 675.240   1
  -4  11  -9 1759.66 619.338   1
  -4  -7  -9 1602.75 617.437   1
  -7  11  -9 2276.60 627.762   1
   7   4   9 2569.96 723.628   2
   4   7   9 1382.49 640.117   2
   4   7   8 219573. 7107.92   1
  -4  -7  -8 232710. 7253.22   1
   4 -11   8 237182. 7423.01   1
  -4  11  -8 226510. 7290.78   1
  -7  11  -8 240913. 7388.83   1
   7 -11   8 240070. 7510.71   1
   7   4   8 213099. 7072.46   2
   4   7   8 244557. 7321.70   2
   4   7   7 13224.8 1547.94   1
  -4  -7  -7 15811.1 1646.06   1
   4 -11   7 15163.3 1694.56   1
  -4  11  -7 15005.0 1630.57   1
  -7  11  -7 14749.8 1674.08   1
   7 -11   7 11812.9 1580.56   1
   7   4   7 13701.9 1646.14   2
   4   7   7 14453.5 1651.54   2
   4 -11   6 3262.38 771.776   1
   7 -11   6 5540.55 1046.69   1
  -4  11  -6 3671.62 823.578   1
  -7  11  -6 5937.59 1074.91   1
   7   4   6 4182.52 942.249   2
   4   7   6 4155.43 956.542   2
  -4  -7  -6 4065.64 904.811   1
   4 -11   5 859.465 587.506   1
   7 -11   5 466.682 443.559   1
  -4  11  -5 82.2418 387.818   1
  -7  11  -5 1277.92 583.282   1
   7   4   5 234.339 387.401   2
   4   7   5 779.867 452.787   2
   4 -11   4 110639. 4796.11   1
  -4  11  -4 114175. 4785.70   1
   7 -11   4 125767. 5052.81   1
  -7  11  -4 111897. 4788.75   1
   7   4   4 120111. 4947.93   2
   4   7   4 119075. 4891.30   2
   4 -11   3 3508.75 869.490   1
   7 -11   3 5518.69 1005.45   1
  -4  11  -3 4538.60 968.550   1
  -7  11  -3 3028.95 778.332   1
   4   7   3 3679.45 886.643   2
   4 -11   2 14410.8 1549.96   1
   7 -11   2 13840.0 1622.12   1
  -4  11  -2 11279.6 1460.72   1
  -7  11  -2 12593.6 1586.26   1
   7 -11   1 1534.32 609.692   1
  -4  11  -1 1237.02 464.770   1
  -7  11  -1 1985.08 707.483   1
   4 -11   1 833.056 400.650   1
   4 -11   0 282283. 7977.95   1
   7 -11   0 284375. 8020.02   1
  -4  11   0 258515. 7771.70   1
  -7  11   0 261420. 7772.25   1
  11  -4   0 262379. 8004.62   2
  -4  11   1 6241.49 1162.20   1
  11  -4   1 4645.38 1000.77   2
  -7  11   1 4802.87 888.299   1
   4 -11  -1 5315.41 983.129   1
   7 -11  -1 4877.64 951.040   1
   4 -11  -2 22055.9 1956.32   1
   7 -11  -2 22536.3 2033.99   1
  -4  11   2 21293.9 2043.22   1
  -7  11   2 22028.7 2055.82   1
  11  -4   2 22829.9 2044.38   2
  -4  11   3 750.313 464.840   1
  -7  11   3 1171.88 575.502   1
   4 -11  -3-136.341 411.633   1
  11  -4   3-50.8465 457.326   2
   7 -11  -3 604.478 376.232   1
  -4  11   3 771.343 575.092   2
   7 -11  -4 110500. 4682.68   1
  -4  11   4 126878. 5022.36   1
  -7  11   4 110999. 4822.89   1
  11  -4   4 115328. 4928.08   2
  -4  11   4 110373. 4634.05   2
   4 -11  -4 122714. 4894.17   1
  -4  11   5 21527.9 2004.86   1
  -7  11   5 22351.2 2060.73   1
  11  -4   5 20467.1 2032.49   2
   4 -11  -5 24468.0 2107.24   1
  -4  11   5 22051.4 2044.10   2
   7 -11  -5 25760.8 2203.33   1
   4 -11  -6 4374.57 893.898   1
   7 -11  -6 3157.39 835.423   1
  -4  11   6 4507.56 984.626   1
  -7  11   6 2791.46 763.179   1
  11  -7   6 4283.62 995.299   2
  11  -4   6 4140.86 964.471   2
  -4  11   6 4248.57 945.795   2
   4 -11  -7 172.287 349.262   1
   7 -11  -7 195.902 284.929   1
  -4  11   7 341.790 345.371   1
  -7  11   7 1748.13 677.925   1
  11  -7   7 1604.89 612.814   2
  11  -4   7 308.770 406.291   2
  -4  11   7 420.069 493.502   2
  -4  11   8 277402. 7942.16   1
  -7  11   8 263635. 7813.92   1
  11  -7   8 258738. 8182.04   2
  11  -4   8 246937. 7844.49   2
   4 -11  -8 244705. 7629.12   1
   7 -11  -8 241792. 7517.48   1
  -4  11   8 252615. 7447.70   2
   4 -11  -9 6188.04 1193.88   1
   7 -11  -9 6146.28 1130.36   1
  -4  11   9 8201.80 1341.67   1
  -7  11   9 4938.24 992.337   1
  11  -7   9 5899.03 1198.03   2
  11  -4   9 6708.31 1140.61   2
  -4  11   9 6119.19 1063.73   2
 -11   7  -9 3685.03 915.869   1
  -7  11   9 4945.76 1027.39   2
   4 -11 -10 936.769 518.447   1
   7 -11 -10 1055.19 525.998   1
  -4  11  10 1739.85 638.491   1
  -7  11  10 1008.85 574.572   1
  11  -7  10 103.227 521.774   2
  11  -4  10 235.692 347.984   2
  -4  11  10 391.574 409.811   2
 -11   7 -10 1314.70 734.878   1
  -7  11  10 1252.61 495.804   2
   7 -11 -11 1949.46 672.194   1
  -7  11  11 2934.70 812.501   1
  11  -7  11 2279.71 830.842   1
  -7  11  11 2769.56 835.202   2
 -11   7 -11 1751.87 675.114   1
  -7  11  12 34025.0 2631.27   1
   7 -11 -12 39325.5 2851.17   1
 -11   7 -12 40949.8 3101.82   1
   3   8  11 1003.21 584.415   1
   3 -11  11 1721.94 670.190   1
  -3  11 -11 754.129 465.349   1
  -3  -8 -11 1435.04 546.875   1
   3   8  10 67424.6 3764.09   1
  -3  -8 -10 80032.5 4019.40   1
   3 -11  10 79060.9 4162.34   1
  -3  11 -10 77145.8 4033.74   1
   8   3  10 81678.8 4095.00   2
   3   8  10 82386.7 3986.11   2
   8 -11   9 7906.29 1292.77   1
   3   8   9 5655.04 1030.99   1
   3 -11   9 5660.45 1090.69   1
  -3  11  -9 6443.80 1084.22   1
   8   3   9 6450.58 1150.07   2
  -8  11  -9 6831.54 1222.30   1
  -3  -8  -9 5789.69 1052.47   1
   3   8   9 5160.66 1062.84   2
   3   8   8 54068.7 3254.00   1
   3 -11   8 60957.4 3594.22   1
  -3  -8  -8 62117.9 3468.98   1
  -3  11  -8 63471.6 3520.58   1
  -8  11  -8 64211.7 3591.50   1
   8   3   8 60458.4 3469.49   2
   8 -11   8 67080.7 3660.01   1
   3   8   8 58161.6 3345.51   2
   3   8   7 28363.5 2322.90   1
   3 -11   7 31850.5 2528.32   1
  -3  -8  -7 30366.7 2356.10   1
  -3  11  -7 25488.2 2214.46   1
  -8  11  -7 29430.9 2358.11   1
   8 -11   7 33114.7 2500.66   1
   8   3   7 28875.8 2382.15   2
   3   8   7 25514.5 2162.80   2
   3   8   6 101290. 4526.20   1
   3 -11   6 120479. 5034.42   1
  -3  11  -6 106122. 4699.99   1
  -3  -8  -6 121970. 4882.87   1
  -8  11  -6 120586. 4913.11   1
   8 -11   6 120852. 4950.07   1
   8   3   6 109724. 4794.53   2
   3   8   6 103810. 4630.19   2
   3   8   5 67504.0 3592.45   1
   3 -11   5 72500.0 3881.64   1
  -3  11  -5 69926.9 3738.99   1
  -8  11  -5 79801.3 3950.56   1
  -3  -8  -5 76174.3 3833.77   1
   8 -11   5 82958.5 4020.65   1
   8   3   5 70851.4 3752.01   2
   3   8   5 68095.3 3725.70   2
   3 -11   4 1777.84 699.435   1
  -3  -8  -4 2258.94 680.280   1
   3   8   4 1299.88 460.047   1
   8 -11   4 1252.47 547.360   1
  -3  11  -4 2509.63 686.665   1
  -8  11  -4 2956.91 861.872   1
   8   3   4 1811.93 628.901   2
   3   8   4 1863.01 598.676   2
   3 -11   3 74676.8 3783.37   1
  -3  11  -3 75720.6 3808.84   1
   8 -11   3 71089.9 3702.56   1
  -8  11  -3 73918.8 3807.79   1
  -3  -8  -3 69515.0 3657.28   1
   3   8   3 66430.0 3659.12   2
   3 -11   2 61333.9 3461.14   1
   8 -11   2 61596.9 3463.57   1
  -3  11  -2 57236.5 3338.98   1
  -8  11  -2 62773.3 3473.42   1
   3 -11   1 17526.2 1788.57   1
   8 -11   1 14253.1 1658.94   1
  -3  11  -1 16671.7 1789.27   1
  -8  11  -1 15107.8 1628.28   1
   8 -11   0 6285.12 1143.46   1
  -3  11   0 6177.35 1077.31   1
  -8  11   0 6298.28 1122.14   1
   3 -11   0 6435.28 1149.46   1
  -3  11   0 3740.40 869.537   2
  -3  11   1 978.988 545.084   1
  11  -3   1 751.107 350.329   2
  -8  11   1 2293.81 661.280   1
   3 -11  -1 1379.75 526.829   1
   8 -11  -1 1037.66 493.175   1
  -3  11   1 472.586 430.221   2
   8 -11  -2 97815.3 4343.78   1
  -3  11   2 101863. 4493.66   1
  -8  11   2 93514.0 4318.99   1
  11  -3   2 83003.5 4144.80   2
  -3  11   2 76989.3 3875.46   2
   3 -11  -2 98439.8 4465.57   1
   3 -11  -3 6945.17 1183.45   1
  -3  11   3 3745.20 870.842   1
  -8  11   3 4761.08 1045.15   1
  11  -3   3 4329.74 913.341   2
   8 -11  -3 3773.60 899.640   1
  -3  11   3 5293.09 962.281   2
   8 -11  -4 66921.1 3582.32   1
  -3  11   4 70318.0 3712.64   1
  -8  11   4 73523.9 3754.83   1
  11  -3   4 65209.7 3658.60   2
   3 -11  -4 71176.1 3694.02   1
  -3  11   4 58659.4 3308.07   2
  -3  11   5 23744.9 2168.49   1
  -8  11   5 21835.8 2058.86   1
  11  -3   5 22184.3 2076.83   2
   3 -11  -5 27320.8 2280.15   1
  -3  11   5 23392.8 2011.82   2
   8 -11  -5 24243.6 2169.27   1
  -3  11   6 161608. 5773.49   1
  -8  11   6 142523. 5524.17   1
  11  -3   6 130975. 5430.62   2
   3 -11  -6 149743. 5612.26   1
  -3  11   6 145212. 5285.64   2
   8 -11  -6 114936. 4962.68   1
  -3  11   7 75350.5 3882.35   1
  -8  11   7 67693.9 3661.93   1
  11  -3   7 66557.1 3723.29   2
 -11   8  -7 65385.0 3768.13   1
   3 -11  -7 74659.8 3830.26   1
   8 -11  -7 63314.3 3500.47   1
  -3  11   7 69366.4 3601.64   2
  11  -8   8 1071.44 632.707   1
   3 -11  -8 333.357 427.933   1
   8 -11  -8 1139.17 560.153   1
  -3  11   8 1062.76 580.008   1
  -8  11   8 452.122 318.365   1
  11  -3   8 246.603 356.852   2
 -11   8  -8 287.846 463.588   1
  -3  11   8 796.838 425.652   2
  11  -8   9 41849.9 3040.96   1
  -3  11   9 48496.4 3047.01   1
  -8  11   9 48525.4 3092.88   1
  11  -3   9 51782.9 3278.05   2
   3 -11  -9 54516.9 3187.78   1
 -11   8  -9 43450.3 3121.84   1
   8 -11  -9 38449.4 2799.77   1
  -3  11   9 52661.7 3097.05   2
  11  -8  10 35038.3 2809.68   1
  -8  11  10 34790.8 2668.93   1
  11  -3  10 35710.4 2713.66   2
 -11   8 -10 32080.4 2650.48   1
   8 -11 -10 30967.7 2514.91   1
  11  -8  11 11821.0 1679.13   1
  -8  11  11 6153.05 1115.19   1
 -11   8 -11 9680.10 1509.02   1
   2 -11  10 73273.6 4110.32   1
   2 -11   9 2538.76 810.351   1
   2   9   9 2253.51 747.166   1
  -2  11  -9 1382.89 545.462   1
   9   2   9 3017.24 844.065   2
   2   9   9 2342.44 598.632   2
  -2  -9  -9 2726.61 804.296   1
   9 -11   8 6802.49 1166.69   1
   2 -11   8 4754.96 947.176   1
   2   9   8 4819.37 934.773   1
  -2  11  -8 4784.83 910.031   1
   9   2   8 5159.86 1076.36   2
  -9  11  -8 4744.18 980.929   1
   2   9   8 3985.93 926.151   2
  -2  -9  -8 5039.67 987.528   1
   2   9   7 20767.6 1979.67   1
   2 -11   7 19843.6 2038.96   1
  -2  11  -7 16384.2 1822.24   1
  -2  -9  -7 20643.6 1987.88   1
  -9  11  -7 21450.5 2101.67   1
   9   2   7 18509.5 1876.32   2
   9 -11   7 21740.4 2088.28   1
   2   9   7 18746.5 1959.27   2
   2   9   6 84285.3 4181.23   1
   2 -11   6 100928. 4631.89   1
  -2  11  -6 91371.1 4354.86   1
  -2  -9  -6 94352.3 4410.11   1
  -9  11  -6 106464. 4720.84   1
   9 -11   6 112118. 4805.28   1
   9   2   6 103494. 4675.19   2
   2   9   6 95272.4 4453.58   2
   2 -11   5 38603.8 2761.15   1
   2   9   5 34730.7 2553.29   1
  -2  11  -5 35999.5 2625.51   1
  -9  11  -5 42279.2 2833.61   1
   9 -11   5 36942.8 2727.06   1
  -2  -9  -5 35268.5 2570.35   1
   9   2   5 34122.2 2610.85   2
   2   9   5 32778.1 2555.43   2
  -2  -9  -4 6819.89 1118.89   1
   2   9   4 6187.18 1073.05   1
   9 -11   4 6789.10 1173.92   1
  -2  11  -4 6081.30 1128.11   1
  -9  11  -4 7206.68 1208.37   1
   2 -11   4 7601.73 1203.26   1
   2   9   4 5058.30 931.691   2
   2 -11   3 44834.1 2997.55   1
   2   9   3 52798.5 3147.98   1
  -2  11  -3 46766.7 3011.98   1
   9 -11   3 45269.2 2991.90   1
  -9  11  -3 56695.2 3366.59   1
  -2  -9  -3 46426.5 2981.62   1
   2   9   3 50659.0 3201.00   2
   2 -11   2 37891.3 2725.99   1
   2   9   2 34272.8 2547.03   1
   9 -11   2 40810.8 2840.32   1
  -2  11  -2 36613.2 2672.45   1
  -9  11  -2 41969.4 2825.10   1
  -2  -9  -2 37103.5 2630.96   1
   2 -11   1 39236.1 2720.32   1
   9 -11   1 36451.0 2600.23   1
  -2  11  -1 34857.9 2584.53   1
  -9  11  -1 33827.3 2543.13   1
  -2  -9  -1 30273.1 2427.72   1
  -2  11  -1 25637.6 2252.48   2
   9 -11   0 6325.05 1152.52   1
  -2  11   0 6052.75 1095.87   1
   2 -11   0 7414.47 1265.40   1
  -9  11   0 5525.59 1014.56   1
  -2  11   0 5111.74 983.662   2
   9 -11  -1 288.349 404.673   1
  -2  11   1 208.884 387.222   1
  -9  11   1-440.368 532.685   1
  -2  11   1 390.112 280.105   2
   9 -11  -2 118888. 4990.44   1
  -2  11   2 137502. 5284.55   1
  -9  11   2 124036. 5171.07   1
  11  -2   2 127256. 5303.98   2
  -2  11   2 110919. 4793.65   2
   2 -11  -2 141498. 5384.46   1
   9 -11  -3 26559.0 2198.70   1
  -2  11   3 30681.1 2412.92   1
  -9  11   3 27866.1 2369.48   1
  11  -2   3 25619.2 2281.16   2
   2 -11  -3 28859.1 2367.41   1
  -2  11   3 23123.7 2088.40   2
   9 -11  -4 35484.2 2623.83   1
  -2  11   4 42450.5 2838.09   1
  -9  11   4 40042.2 2838.61   1
  11  -2   4 35402.9 2662.79   2
   2 -11  -4 37277.4 2671.01   1
  -2  11   4 37945.0 2632.65   2
  -2  11   5 131837. 5197.27   1
  -9  11   5 122241. 5141.47   1
  11  -2   5 106122. 4942.82   2
 -11   9  -5 120384. 5173.59   1
   2 -11  -5 134595. 5244.37   1
  -2  11   5 109894. 4645.69   2
   9 -11  -5 111348. 4877.14   1
  -2  11   6 139032. 5354.97   1
  -9  11   6 106085. 4786.44   1
  11  -2   6 105539. 4846.79   2
 -11   9  -6 108040. 4922.65   1
   2 -11  -6 135535. 5252.55   1
  11  -9   6 107124. 4867.98   1
  -2  11   6 120688. 4905.34   2
   9 -11  -6 101155. 4617.94   1
   2 -11  -7 4698.93 910.929   1
  -2  11   7 4951.92 1032.25   1
  -9  11   7 5179.20 988.079   1
  11  -9   7 4751.05 1017.29   1
  11  -2   7 3054.00 895.638   2
 -11   9  -7 5427.90 1112.25   1
  -2  11   7 5306.06 1018.46   2
   2 -11  -8 1110.89 521.121   1
  -2  11   8 1574.52 593.152   1
  11  -2   8 310.066 461.025   2
  11  -9   8 1142.11 475.271   1
 -11   9  -8 910.886 616.163   1
  -2  11   8 1096.25 537.835   2
  11  -2   9 9764.33 1466.42   2
 -11   9  -9 8780.97 1380.59   1
  11  -9   9 8361.42 1363.34   1
  11  -9  10 19494.3 2089.74   1
 -11   9 -10 16161.0 1896.20   1
   1  10   8 100699. 4659.60   1
  -1 -10  -8 105596. 4648.90   1
  10   1   8 90038.9 4558.28   2
  -1 -10  -7 7325.92 1226.44   1
   1  10   7 6240.65 1152.35   1
  10   1   7 5759.41 1143.42   2
 -10  11  -7 8578.80 1300.94   1
   1  10   7 4551.61 1039.44   2
   1 -11   7 6538.56 1196.34   1
  10 -11   7 8351.29 1319.64   1
  -1 -10  -6 761.919 500.108   1
   1  10   6 313.992 391.900   1
  -1  11  -6 551.724 457.083   1
  10   1   6 617.355 455.045   2
 -10  11  -6-179.368 442.869   1
  10 -11   6 502.664 422.493   1
   1 -11   6-234.104 288.147   1
   1  10   6 157.030 514.451   2
  -1 -10  -5 4663.69 1016.83   1
   1  10   5 4543.92 929.256   1
  -1  11  -5 4025.24 878.288   1
  10 -11   5 4528.92 963.190   1
 -10  11  -5 4395.97 985.070   1
   1 -11   5 4380.31 990.162   1
   1  10   5 3605.73 941.374   2
   1 -11   4 67004.2 3745.15   1
   1  10   4 65702.4 3607.50   1
  -1  11  -4 61024.9 3604.77   1
  10 -11   4 74450.3 3945.36   1
 -10  11  -4 76313.1 3995.88   1
  -1 -10  -4 66837.9 3648.86   1
   1  10   4 69629.1 3811.18   2
  -1 -10  -3 4292.46 1002.02   1
  10 -11   3 3672.81 858.447   1
   1  10   3 3375.04 792.420   1
  -1  11  -3 4607.29 974.475   1
   1 -11   3 3276.84 837.126   1
 -10  11  -3 4680.88 977.379   1
   1  10   3 4127.96 974.419   2
  -1 -10  -2 4256.06 921.677   1
  10 -11   2 4791.99 1016.04   1
   1  10   2 4070.36 934.386   1
  -1  11  -2 4571.91 1001.56   1
   1 -11   2 3841.55 949.248   1
 -10  11  -2 5398.06 1027.40   1
  10 -11   1 3096.09 844.138   1
  -1 -10  -1 3487.30 822.129   1
   1  10   1 4089.57 981.022   1
  -1  11  -1 2345.71 694.851   1
   1 -11   1 1759.94 540.509   1
 -10  11  -1 3912.61 922.849   1
  10 -11   0 152520. 5921.26   1
   1  10   0 150706. 5799.53   1
  -1  11   0 159483. 5940.54   1
 -10  11   0 170159. 6146.04   1
  -1 -10   0 164815. 6038.90   1
  -1 -10   1 1956.52 623.316   1
   1 -11  -1 3190.09 909.313   1
  -1  11   1 2408.56 740.068   1
 -10  11   1 2755.92 793.573   1
  -1  11   1 2055.79 707.141   2
  10 -11  -1 2503.01 716.454   1
   1 -11  -2 890.749 570.371   1
  -1  11   2 1685.50 672.717   1
 -10  11   2 1323.69 389.867   1
  10 -11  -2 1287.67 530.403   1
  -1  11   2 779.362 452.878   2
   1 -11  -3 781.184 375.735   1
  -1  11   3 334.683 328.274   1
 -10  11   3 890.707 654.097   1
 -11  10  -3 588.853 434.025   1
  -1  11   3 485.296 366.585   2
  -1  11   4 185599. 6355.85   1
 -11  10  -4 154967. 5995.07   1
  11  -1   4 147893. 6106.20   2
   1 -11  -4 196085. 6446.73   1
  -1  11   4 146034. 5678.03   2
   1 -11  -5 4756.10 1017.87   1
  -1  11   5 3929.52 902.030   1
  11  -1   5 3042.04 825.354   2
 -11  10  -5 3284.33 858.288   1
  11 -10   5 2096.14 701.924   1
  -1  11   5 2906.27 772.684   2
  11 -10   6 3673.44 876.124   1
   1 -11  -6 3959.87 925.617   1
  -1  11   6 2589.53 746.516   1
  11  -1   6 2346.68 663.473   2
 -11  10  -6 3514.44 964.890   1
  -1  11   6 4808.76 1043.22   2
   1 -11  -7 7520.08 1245.91   1
  11 -10   7 4179.37 983.417   1
  -1  11   7 8539.89 1272.42   1
  11  -1   7 6264.47 1088.83   2
 -11  10  -7 6628.51 1185.98   1
  -1  11   7 5469.35 1013.53   2
  11  -1   8 47504.9 3242.20   2
 -11  10  -8 47519.7 3202.36   1
  11 -10   8 46976.8 3234.56   1
   0  11   0 17333.9 1869.82   1
   0 -11   0 20259.4 2028.27   1
   0 -11  -1 3376.89 893.961   1
   0 -11   1 3921.98 913.303   1
   0  11   1 2870.47 812.370   1
   0  11  -1 3011.21 802.853   1
   0  11   2 55585.5 3397.13   1
   0  11  -2 49883.8 3290.70   1
 -11  11  -2 61618.1 3616.72   1
   0 -11  -2 56487.1 3414.03   1
   0 -11   2 49591.5 3199.96   1
   0  11   3 40234.9 2850.31   1
  11 -11   3 42679.0 2970.82   1
 -11  11  -3 39670.8 2911.52   1
   0 -11  -3 38855.3 2804.72   1
   0  11   3 33412.4 2639.96   2
   0 -11   3 35452.0 2743.91   1
   0  11   4 11426.3 1548.42   1
  11 -11   4 13157.8 1688.30   1
 -11  11  -4 13953.1 1658.62   1
   0 -11  -4 13218.9 1618.59   1
   0  11   4 12030.2 1572.45   2
   0  11   5 47772.4 3080.25   1
 -11  11  -5 43521.9 3104.36   1
  11 -11   5 46092.4 3071.58   1
   0 -11  -5 47864.1 3142.57   1
   0  11   5 42173.8 2973.40   2
 -11  11  -6 55462.2 3481.97   1
  11 -11   6 50364.2 3364.32   1
   6   6   8 200650. 6856.80   2
   6 -12   7-790.177 632.645   1
  -6  12  -7 557.185 530.037   1
   6   6   7 307.805 373.303   2
   6 -12   6 13569.4 1659.33   1
  -6  12  -6 12906.8 1555.09   1
   6   6   6 9294.27 1375.43   2
   6 -12   5 261.442 464.915   1
  -6  12  -5 431.406 540.357   1
   6 -12   4 153966. 5767.11   1
  -6  12  -4 147124. 5617.76   1
   6 -12   3-2.78094 375.607   1
  -6  12  -3-113.035 297.519   1
   6 -12   2 498.010 430.459   1
  -6  12  -2-145.994 381.890   1
  -6  12  -1 164.202 439.120   1
   6 -12   1-70.8427 348.918   1
   6 -12   0 99993.8 4445.64   1
  -6  12   0 97437.8 4449.25   1
  -6  12   1 225.598 346.091   1
   6 -12  -1 189.982 381.328   1
  -6  12   2 1002.24 496.370   1
   6 -12  -2 972.502 404.952   1
  -6  12   3 1623.20 704.802   1
   6 -12  -3 226.632 574.638   1
  -6  12   4 304433. 8794.05   1
   6 -12  -4 349251. 9112.88   1
   6 -12  -5 1031.53 655.193   1
  -6  12   5-120.398 449.116   1
  12  -6   5 872.024 648.029   2
  -6  12   6 23509.0 2077.77   1
  12  -6   6 20480.3 2079.59   2
   6 -12  -6 21376.5 2050.09   1
   6 -12  -7-913.171 451.222   1
  -6  12   7-804.654 617.065   1
  12  -6   7 489.601 376.328   2
  -6  12   7-88.8973 349.255   2
   7   5   8 18806.1 1980.06   2
   5   7   8 20142.3 2061.94   2
   5 -12   7 45405.8 3048.18   1
  -5  12  -7 46515.1 2967.61   1
   7 -12   7 49918.0 3123.76   1
  -7  12  -7 47724.4 3069.59   1
   7   5   7 37177.3 2793.35   2
   5   7   7 38573.3 2824.73   2
   5 -12   6 182241. 6408.69   1
   7 -12   6 181023. 6366.66   1
  -5  12  -6 180880. 6311.25   1
  -7  12  -6 179622. 6333.49   1
   7   5   6 164738. 6229.62   2
   5   7   6 158627. 6069.25   2
   5 -12   5 7276.63 1197.88   1
   7 -12   5 9270.00 1325.41   1
  -5  12  -5 7551.29 1197.37   1
  -7  12  -5 6259.01 1110.73   1
   7 -12   4 2472.71 703.215   1
  -5  12  -4 1702.96 514.759   1
  -7  12  -4 2410.46 651.290   1
   5 -12   3 1329.06 633.248   1
   7 -12   3 804.005 530.141   1
  -5  12  -3 1254.44 660.559   1
  -7  12  -3 1528.46 609.952   1
   5 -12   2 41464.1 2809.09   1
   7 -12   2 42383.3 2843.20   1
  -5  12  -2 38898.6 2749.66   1
  -7  12  -2 39951.0 2779.57   1
   5 -12   1 58496.8 3402.51   1
   7 -12   1 51235.3 3173.85   1
  -5  12  -1 58363.7 3398.03   1
  -7  12  -1 57502.5 3362.83   1
   5 -12   0 14297.7 1640.44   1
   7 -12   0 14101.6 1678.76   1
  -5  12   0 15413.6 1739.76   1
  -7  12   0 12897.8 1565.91   1
   5 -12  -1 15393.2 1770.02   1
   7 -12  -1 16029.2 1726.35   1
  -5  12   1 19271.4 1931.42   1
  -7  12   1 18645.6 1921.88   1
   5 -12  -2 104158. 4571.05   1
   7 -12  -2 99370.8 4504.72   1
  -5  12   2 108586. 4691.98   1
  -7  12   2 102156. 4600.90   1
  -5  12   3 2083.63 672.138   1
  -7  12   3 1083.13 465.462   1
   5 -12  -3 1718.59 778.270   1
  12  -5   3 954.294 446.971   2
   7 -12  -3 808.188 536.650   1
   5 -12  -4 5330.51 1078.37   1
  -5  12   4 5139.13 1017.60   1
  -7  12   4 5344.76 1064.92   1
   7 -12  -4 4982.17 1031.04   1
  12  -5   4 5532.68 1130.15   2
  -5  12   4 3314.70 769.259   2
  -5  12   5 96344.6 4398.18   1
  -7  12   5 97433.8 4520.35   1
  12  -5   5 75961.9 4136.75   2
   5 -12  -5 90043.3 4267.33   1
  -5  12   5 75207.4 3892.67   2
   7 -12  -5 84253.0 4187.19   1
  -5  12   6 117234. 4894.20   1
  -7  12   6 112781. 4925.88   1
  12  -7   6 107152. 5024.11   2
  12  -5   6 104944. 4871.78   2
   5 -12  -6 114479. 4870.56   1
   7 -12  -6 118176. 4970.15   1
  -5  12   6 96690.5 4485.75   2
  -5  12   7 44500.1 2970.63   1
  -7  12   7 39193.2 2790.23   1
  12  -7   7 36076.9 2757.35   2
  12  -5   7 38181.2 2868.43   2
   5 -12  -7 44372.9 2961.61   1
   7 -12  -7 39833.9 2855.57   1
  -5  12   7 33458.3 2521.17   2
   7 -12  -8 10793.1 1421.93   1
  -7  12   8 11506.5 1511.27   1
   8   4   8 47769.8 3224.49   2
   4   8   8 50006.5 3182.33   2
   4 -12   7 26158.4 2244.69   1
  -4  12  -7 21815.4 2087.18   1
   8   4   7 19496.6 2062.54   2
   4   8   7 20214.1 2107.18   2
   4 -12   6 67162.0 3761.46   1
  -4  12  -6 71045.1 3768.53   1
   8 -12   6 70668.9 3820.49   1
  -8  12  -6 68911.0 3740.48   1
   4 -12   5 52413.2 3263.85   1
   8 -12   5 51321.8 3213.93   1
  -4  12  -5 49653.4 3110.92   1
  -8  12  -5 51273.6 3207.21   1
   4   8   5 43070.9 2988.58   2
   4 -12   4 1793.34 684.198   1
   8 -12   4 1253.51 605.512   1
  -4  12  -4 1953.50 662.482   1
  -8  12  -4 1409.01 631.262   1
   4 -12   3 31811.2 2448.25   1
   8 -12   3 34622.1 2617.27   1
  -4  12  -3 29291.3 2409.12   1
  -8  12  -3 30399.8 2441.68   1
   4 -12   2 72497.8 3823.76   1
   8 -12   2 71737.8 3851.63   1
  -4  12  -2 70175.3 3787.08   1
  -8  12  -2 75718.8 3950.03   1
   8 -12   1 5124.17 1031.91   1
  -4  12  -1 2811.94 782.259   1
  -8  12  -1 3958.53 861.186   1
   4 -12   1 3288.05 792.529   1
  -4  12   0 1090.26 572.773   1
  -8  12   0 68.2441 377.644   1
   4 -12   0 226.392 491.803   1
   8 -12   0 201.313 357.091   1
  -4  12   0-329.830 501.847   2
   4 -12  -1 29577.1 2414.65   1
   8 -12  -1 30735.5 2450.11   1
  -4  12   1 28996.9 2392.02   1
  -8  12   1 32862.4 2516.95   1
  12  -4   1 23215.3 2280.26   2
   8 -12  -2 75121.8 3905.57   1
  -4  12   2 91996.9 4302.32   1
  -8  12   2 79207.3 4049.21   1
  12  -4   2 61817.8 3773.27   2
  -4  12   2 55311.2 3365.97   2
   4 -12  -2 84621.2 4142.05   1
   8 -12  -3 40972.1 2835.25   1
  -4  12   3 44770.7 2966.80   1
  -8  12   3 42402.8 2932.87   1
  -4  12   3 35066.7 2577.65   2
   4 -12  -3 43893.4 2918.86   1
  -4  12   4 38683.4 2807.60   1
  -8  12   4 39569.4 2826.13   1
  12  -4   4 28089.0 2489.71   2
   4 -12  -4 40186.8 2828.74   1
  -4  12   4 38666.2 2636.81   2
   8 -12  -4 38038.0 2756.80   1
   4 -12  -5 2147.28 802.276   1
  -4  12   5 1800.15 684.297   1
  -8  12   5 1110.17 578.235   1
   8 -12  -5 1224.91 464.991   1
  12  -4   5 2658.40 928.758   2
  -4  12   5 2267.49 693.260   2
  -4  12   6 134631. 5441.40   1
  -8  12   6 138966. 5545.07   1
  12  -4   6 126758. 5462.65   2
   4 -12  -6 140444. 5532.84   1
   8 -12  -6 129504. 5321.28   1
  -4  12   6 133014. 5214.22   2
  -8  12   7 24613.6 2267.72   1
  12  -4   7 22604.9 2276.12   2
   8 -12  -7 23598.6 2198.58   1
   8 -12  -8 7882.83 1317.74   1
  -8  12   8 9918.80 1423.84   1
   3   9   7 1294.99 707.029   2
   3 -12   6 1288.81 505.015   1
  -3  12  -6 823.644 485.880   1
   3   9   6 522.641 451.778   2
   9 -12   5 1393.54 570.046   1
  -3  12  -5 1446.23 567.515   1
  -9  12  -5 1190.70 571.797   1
   3   9   5 1776.96 752.784   2
   3 -12   5 1642.70 668.722   1
   3 -12   4 123857. 5226.03   1
   9 -12   4 136674. 5412.95   1
  -3  12  -4 119092. 5164.44   1
  -9  12  -4 131338. 5323.78   1
   9 -12   3-110.474 355.902   1
  -3  12  -3 185.048 395.871   1
  -9  12  -3 205.834 552.949   1
   3 -12   3 866.089 478.296   1
   9 -12   2 4986.27 1037.25   1
  -3  12  -2 3868.70 892.994   1
  -9  12  -2 6264.74 1121.04   1
   3 -12   2 5572.04 1063.60   1
   9 -12   1 1528.36 648.907   1
  -3  12  -1-181.683 432.318   1
  -9  12  -1 572.728 479.343   1
   3 -12   1-82.5633 451.137   1
  -3  12  -1 348.729 365.511   2
   3 -12   0 81287.9 4084.61   1
   9 -12   0 86322.5 4137.74   1
  -3  12   0 91960.0 4342.62   1
  -9  12   0 87927.7 4182.55   1
  -3  12   1 2765.23 838.407   1
   3 -12  -1 2226.88 744.485   1
  -9  12   1 2612.76 810.640   1
   9 -12  -1 2758.05 753.861   1
  -3  12   1 1211.49 520.473   2
   3 -12  -2 287.543 528.695   1
  -3  12   2 734.635 563.620   1
  -9  12   2 1164.74 566.045   1
   9 -12  -2 102.232 422.137   1
  -3  12   2 37.7243 487.178   2
   3 -12  -3 7130.72 1203.59   1
  -3  12   3 6497.17 1084.79   1
  -9  12   3 6267.10 1144.96   1
  12  -3   3 3127.18 879.746   2
   9 -12  -3 5704.88 1136.87   1
  -3  12   3 4494.73 963.502   2
  -3  12   4 246222. 7465.23   1
  -9  12   4 211811. 7131.99   1
  12  -3   4 179581. 6776.68   2
   3 -12  -4 247830. 7487.48   1
  -3  12   4 212464. 6920.76   2
   9 -12  -4 194270. 6843.86   1
   9 -12  -5 1368.33 565.575   1
  -9  12   5 2415.73 751.053   1
  12  -3   5 2334.36 743.307   2
  -3  12   5 2946.49 677.965   2
  -9  12   6 8848.71 1425.74   1
   9 -12  -6 9743.40 1419.19   1
  12  -3   6 9345.50 1462.02   2
  -9  12   7 854.445 551.922   1
   2 -12   5 28997.9 2466.78   1
  -2  12  -5 34662.0 2644.39   1
   2 -12   4 15037.6 1798.15   1
  -2  12  -4 15959.3 1836.80   1
  10 -12   3 9746.20 1469.27   1
  -2  12  -3 8680.68 1319.38   1
 -10  12  -3 7930.71 1269.60   1
   2 -12   3 8001.83 1276.64   1
   2 -12   2 44445.9 3029.88   1
  10 -12   2 42835.2 2997.20   1
  -2  12  -2 43701.6 3000.26   1
 -10  12  -2 44073.7 2993.10   1
  10 -12   1 1119.58 589.877   1
  -2  12  -1 1131.59 627.577   1
   2 -12   1 1562.01 721.180   1
 -10  12  -1 345.795 459.583   1
  10 -12   0 7889.78 1275.71   1
  -2  12   0 8206.54 1316.10   1
   2 -12   0 10458.7 1453.23   1
 -10  12   0 9732.15 1392.63   1
  10 -12  -1 22199.1 2133.71   1
  -2  12   1 29796.9 2478.44   1
 -10  12   1 24946.4 2266.89   1
  -2  12   1 20893.4 1988.23   2
   2 -12  -1 30405.1 2475.76   1
  10 -12  -2 80693.6 4125.34   1
  -2  12   2 74417.9 3953.18   1
 -10  12   2 75728.3 4031.55   1
   2 -12  -2 81286.5 4076.43   1
  10 -12  -3 57831.3 3527.54   1
  -2  12   3 49765.1 3217.25   2
 -10  12   4 5287.65 1083.50   1
  -2  12   4 4269.51 1008.78   2
   0   0   0    0.00    0.00   0
;
_shelx_hkl_checksum              14354
loop_
_space_group_symop_operation_xyz
'x, y, z'
'-y, x-y, z'
'-x+y, -x, z'
'-y, -x, -z+1/2'
'-x+y, y, -z+1/2'
'x, x-y, -z+1/2'
'-x, -y, -z'
'y, -x+y, -z'
'x-y, x, -z'
'y, x, z-1/2'
'x-y, -y, z-1/2'
'-x, -x+y, z-1/2'
loop_
_atom_site_label
_atom_site_type_symbol
_atom_site_fract_x
_atom_site_fract_y
_atom_site_fract_z
_atom_site_U_iso_or_equiv
_atom_site_adp_type
_atom_site_occupancy
_atom_site_site_symmetry_order
_atom_site_calc_flag
_atom_site_refinement_flags_posn
_atom_site_refinement_flags_adp
_atom_site_refinement_flags_occupancy
Mn2 Mn 0.6667 0.3333 0.2500 0.00799(10) Uani 1 6 d S T P
Fe1 Fe 1.0000 0.0000 0.0000 0.00718(10) Uani 1 6 d S T P
O1 O 0.88959(13) 0.34272(13) 0.16592(7) 0.02045(19) Uani 1 1 d . . .
O2 O 1.01630(11) 0.20775(12) 0.08166(6) 0.01352(16) Uani 1 1 d . . .
C1 C 0.87810(16) 0.21181(16) 0.11746(7) 0.01422(19) Uani 1 1 d . . .
H1 H 0.7600 0.1098 0.1067 0.037(6) Uiso 1 1 calc R . .
C2 C 1.3333 0.6667 0.1609(8) 0.120(3) Uani 1 3 d S T P
N1 N 1.2779(4) 0.5558(9) 0.2500 0.079(4) Uani 0.3333 2 d S T P
loop_
_atom_site_aniso_label
_atom_site_aniso_U_11
_atom_site_aniso_U_22
_atom_site_aniso_U_33
_atom_site_aniso_U_23
_atom_site_aniso_U_13
_atom_site_aniso_U_12
Mn2 0.00671(12) 0.00671(12) 0.01053(16) 0.000 0.000 0.00336(6)
Fe1 0.00639(12) 0.00639(12) 0.00875(15) 0.000 0.000 0.00319(6)
O1 0.0167(4) 0.0147(4) 0.0282(4) -0.0071(3) 0.0063(3) 0.0066(3)
O2 0.0119(3) 0.0123(3) 0.0170(3) -0.0027(3) 0.0014(3) 0.0065(3)
C1 0.0126(4) 0.0144(4) 0.0171(4) -0.0042(3) -0.0004(3) 0.0079(4)
C2 0.0225(10) 0.0225(10) 0.314(10) 0.000 0.000 0.0113(5)
N1 0.0146(19) 0.010(2) 0.212(12) 0.000 -0.029(4) 0.0052(11)
loop_
_atom_type_symbol
_atom_type_description
_atom_type_scat_dispersion_real
_atom_type_scat_dispersion_imag
_atom_type_scat_source
C C 0.0030 0.0010 'International Tables Vol C Tables 4.2.6.8 and 6.1.1.4'
H H 0.0000 0.0000 'International Tables Vol C Tables 4.2.6.8 and 6.1.1.4'
N N 0.0050 0.0030 'International Tables Vol C Tables 4.2.6.8 and 6.1.1.4'
O O 0.0090 0.0050 'International Tables Vol C Tables 4.2.6.8 and 6.1.1.4'
Fe Fe 0.3380 0.7620 'International Tables Vol C Tables 4.2.6.8 and 6.1.1.4'
Mn Mn 0.3240 0.6570 'International Tables Vol C Tables 4.2.6.8 and 6.1.1.4'
loop_
_geom_angle_atom_site_label_1
_geom_angle_atom_site_label_2
_geom_angle_atom_site_label_3
_geom_angle
_geom_angle_site_symmetry_1
_geom_angle_site_symmetry_3
O1 Mn2 O1 89.34(5) . 4_665
O1 Mn2 O1 84.12(5) . 6
O1 Mn2 O1 93.33(4) 4_665 6
O1 Mn2 O1 93.33(4) . 3_665
O1 Mn2 O1 84.12(5) 4_665 3_665
O1 Mn2 O1 176.42(5) 6 3_665
O1 Mn2 O1 93.33(4) . 2_655
O1 Mn2 O1 176.42(5) 4_665 2_655
O1 Mn2 O1 89.34(5) 6 2_655
O1 Mn2 O1 93.33(4) 3_665 2_655
O1 Mn2 O1 176.42(5) . 5_655
O1 Mn2 O1 93.33(4) 4_665 5_655
O1 Mn2 O1 93.33(4) 6 5_655
O1 Mn2 O1 89.34(5) 3_665 5_655
O1 Mn2 O1 84.12(5) 2_655 5_655
O2 Fe1 O2 180.0 . 7_755
O2 Fe1 O2 88.80(3) . 9_545
O2 Fe1 O2 91.20(3) 7_755 9_545
O2 Fe1 O2 91.20(3) . 3_765
O2 Fe1 O2 88.80(3) 7_755 3_765
O2 Fe1 O2 180.00(6) 9_545 3_765
O2 Fe1 O2 91.20(3) . 2_645
O2 Fe1 O2 88.80(3) 7_755 2_645
O2 Fe1 O2 88.80(3) 9_545 2_645
O2 Fe1 O2 91.20(3) 3_765 2_645
O2 Fe1 O2 88.80(3) . 8_665
O2 Fe1 O2 91.20(3) 7_755 8_665
O2 Fe1 O2 91.20(3) 9_545 8_665
O2 Fe1 O2 88.80(3) 3_765 8_665
O2 Fe1 O2 180.00(6) 2_645 8_665
C1 O1 Mn2 125.04(8) . .
C1 O2 Fe1 124.85(7) . .
O1 C1 O2 124.27(11) . .
N1 C2 N1 55.8(5) 3_775 2_755
N1 C2 N1 55.8(5) 3_775 .
N1 C2 N1 55.8(5) 2_755 .
N1 N1 N1 60.000(1) 3_775 2_755
N1 N1 C2 62.1(3) 3_775 .
N1 N1 C2 62.1(3) 2_755 .
N1 N1 C2 62.1(3) 3_775 4_775
N1 N1 C2 62.1(3) 2_755 4_775
C2 N1 C2 114.6(6) . 4_775
loop_
_geom_bond_atom_site_label_1
_geom_bond_atom_site_label_2
_geom_bond_distance
_geom_bond_site_symmetry_2
Mn2 O1 2.1524(9) .
Mn2 O1 2.1524(9) 4_665
Mn2 O1 2.1524(9) 6
Mn2 O1 2.1524(9) 3_665
Mn2 O1 2.1524(9) 2_655
Mn2 O1 2.1524(9) 5_655
Fe1 O2 2.0077(8) .
Fe1 O2 2.0077(8) 7_755
Fe1 O2 2.0077(8) 9_545
Fe1 O2 2.0077(8) 3_765
Fe1 O2 2.0077(8) 2_645
Fe1 O2 2.0077(8) 8_665
O1 C1 1.2384(13) .
O2 C1 1.2632(13) .
C2 N1 1.471(10) 3_775
C2 N1 1.471(10) 2_755
C2 N1 1.471(10) .
N1 N1 1.376(11) 3_775
N1 N1 1.376(11) 2_755
N1 C2 1.471(10) 4_775
