#------------------------------------------------------------------------------
#$Date: 2017-02-04 00:25:41 +0200 (Sat, 04 Feb 2017) $
#$Revision: 191246 $
#$URL: file:///home/coder/svn-repositories/cod/cif/4/34/50/4345099.cif $
#------------------------------------------------------------------------------
#
# This file is available in the Crystallography Open Database (COD),
# http://www.crystallography.net/
#
# All data on this site have been placed in the public domain by the
# contributors.
#
data_4345099
loop_
_publ_author_name
'Mazzuca, Lidia'
'Ca\~nadillas-Delgado, Laura'
'Rodr\'iguez-Velamaz\'an, J Alberto'
'Fabelo, Oscar'
'Scarrozza, Marco'
'Stroppa, Alessandro'
'Picozzi, Silvia'
'Zhao, Jiong-Peng'
'Bu, Xian-He'
'Rodr\'iguez-Carvajal, Juan'
_publ_section_title
;
 Magnetic Structures of Heterometallic M(II)-M(III) Formate Compounds.
;
_journal_issue                   1
_journal_name_full               'Inorganic chemistry'
_journal_page_first              197
_journal_page_last               207
_journal_paper_doi               10.1021/acs.inorgchem.6b01866
_journal_volume                  56
_journal_year                    2017
_chemical_formula_sum            'C8 H14 Co Fe N O12'
_chemical_formula_weight         430.97
_chemical_name_systematic
;
 ?
;
_space_group_crystal_system      trigonal
_space_group_IT_number           163
_space_group_name_Hall           '-P 3 2c'
_space_group_name_H-M_alt        'P -3 1 c'
_symmetry_space_group_name_Hall  '-P 3 2c'
_symmetry_space_group_name_H-M   'P -3 1 c'
_atom_sites_solution_hydrogens   geom
_audit_creation_method           SHELXL-2014
_cell_angle_alpha                90
_cell_angle_beta                 90
_cell_angle_gamma                120
_cell_formula_units_Z            2
_cell_length_a                   8.21270(10)
_cell_length_b                   8.21270(10)
_cell_length_c                   13.6789(2)
_cell_measurement_reflns_used    6463
_cell_measurement_temperature    75(2)
_cell_measurement_theta_max      32.485
_cell_measurement_theta_min      5.582
_cell_volume                     799.013(18)
_computing_cell_refinement       'CrysAlis PRO software program'
_computing_data_collection       'CrysAlis PRO software program'
_computing_data_reduction        'CrysAlis PRO software program'
_computing_molecular_graphics    'Mercury (McRae, 2006)'
_computing_publication_material  'WINGX (Farrugia, 1999)'
_computing_structure_refinement  'SHELXL-2014 (Sheldrick, 2014)'
_computing_structure_solution    'SHELXL-2014 (Sheldrick, 2014)'
_diffrn_ambient_temperature      75(2)
_diffrn_measured_fraction_theta_full 0.797
_diffrn_measured_fraction_theta_max 0.854
_diffrn_measurement_device_type  'CRISTAL beamline, SOLEIL synchrotron'
_diffrn_radiation_type           synchrotron
_diffrn_radiation_wavelength     0.66951
_diffrn_reflns_av_R_equivalents  0.0531
_diffrn_reflns_av_unetI/netI     0.0214
_diffrn_reflns_Laue_measured_fraction_full 0.797
_diffrn_reflns_Laue_measured_fraction_max 0.854
_diffrn_reflns_limit_h_max       12
_diffrn_reflns_limit_h_min       -12
_diffrn_reflns_limit_k_max       13
_diffrn_reflns_limit_k_min       -13
_diffrn_reflns_limit_l_max       18
_diffrn_reflns_limit_l_min       -19
_diffrn_reflns_number            9110
_diffrn_reflns_point_group_measured_fraction_full 0.797
_diffrn_reflns_point_group_measured_fraction_max 0.854
_diffrn_reflns_theta_full        23.685
_diffrn_reflns_theta_max         32.485
_diffrn_reflns_theta_min         5.582
_diffrn_source                   synchrotron
_exptl_absorpt_coefficient_mu    1.618
_exptl_absorpt_correction_T_max  1.00000
_exptl_absorpt_correction_T_min  0.78000
_exptl_absorpt_correction_type   multi-scan
_exptl_absorpt_process_details
;
CrysAlisPro, Agilent Technologies,
Version 1.171.37.33 (release 27-03-2014 CrysAlis171 .NET)
(compiled Mar 27 2014,17:12:48)
Empirical absorption correction using spherical harmonics,
 implemented in SCALE3 ABSPACK scaling algorithm.
;
_exptl_crystal_colour            red
_exptl_crystal_density_diffrn    1.791
_exptl_crystal_description       prism
_exptl_crystal_F_000             436
_exptl_crystal_size_max          0.09
_exptl_crystal_size_mid          0.07
_exptl_crystal_size_min          0.06
_refine_diff_density_max         0.385
_refine_diff_density_min         -0.342
_refine_diff_density_rms         0.081
_refine_ls_extinction_method     none
_refine_ls_goodness_of_fit_ref   1.181
_refine_ls_hydrogen_treatment    refU
_refine_ls_matrix_type           full
_refine_ls_number_parameters     41
_refine_ls_number_reflns         997
_refine_ls_number_restraints     0
_refine_ls_restrained_S_all      1.181
_refine_ls_R_factor_all          0.0328
_refine_ls_R_factor_gt           0.0321
_refine_ls_shift/su_max          0.000
_refine_ls_shift/su_mean         0.000
_refine_ls_structure_factor_coef Fsqd
_refine_ls_weighting_details
'w=1/[\s^2^(Fo^2^)+(0.0673P)^2^+0.2143P] where P=(Fo^2^+2Fc^2^)/3'
_refine_ls_weighting_scheme      calc
_refine_ls_wR_factor_gt          0.1055
_refine_ls_wR_factor_ref         0.1067
_reflns_Friedel_coverage         0.000
_reflns_number_gt                966
_reflns_number_total             997
_reflns_threshold_expression     'I > 2\s(I)'
_cod_data_source_file            FeCo_75K.cif
_cod_data_source_block           shelx
_cod_original_cell_volume        799.01(2)
_cod_database_code               4345099
_shelx_space_group_comment
;
The symmetry employed for this shelxl refinement is uniquely defined
by the following loop, which should always be used as a source of
symmetry information in preference to the above space-group names.
They are only intended as comments.
;
_shelxl_version_number           2014-3
_shelx_res_file
;
TITL FeCo_warm4 in P-31c
CELL  0.66951   8.2127   8.2127  13.6789   90.000   90.000  120.000
ZERR     2.00   0.0001   0.0001   0.0002    0.000    0.000    0.000
LATT   1
SYMM  - Y,   X - Y,   Z
SYMM  - X + Y, - X,   Z
SYMM  - Y, - X, 1/2 - Z
SYMM  - X + Y,   Y, 1/2 - Z
SYMM    X,   X - Y, 1/2 - Z
SFAC  C        2.31000 20.84392  1.02000 10.20751   1.58860   0.56870 =
         0.86500  51.65125   0.21560   0.003   0.001     5.315   0.770  12.011
SFAC  H        0.49300 10.51091  0.32291 26.12573   0.14019   3.14236 =
         0.04081  57.79977   0.00304   0.000   0.000     0.000   0.320   1.008
SFAC  N       12.21261  0.00570  3.13220  9.89331   2.01250  28.99754 =
         1.16630   0.58260 -11.52901   0.005   0.003    10.897   0.700  14.007
SFAC  O        3.04850 13.27711  2.28680  5.70111   1.54630   0.32390 =
         0.86700  32.90894   0.25080   0.009   0.005    20.072   0.660  15.999
SFAC  FE      11.76951  4.76111  7.35731  0.30720   3.52220  15.35351 =
         2.30450  76.88058   1.03690   0.338   0.760  2867.351   1.260  55.845
SFAC  CO      12.28411  4.27910  7.34091  0.27840   4.00340  13.53591 =
         2.34880  71.16927   1.01180   0.346   0.876  3304.255   1.260  58.933
UNIT  16   28   2    24   2    2
MERG   2
FMAP   2
PLAN   20
ACTA
L.S.   8
WGHT    0.067300    0.214300
FVAR      19.93882
CO1   6    0.666667    0.333333    0.250000    10.16667    0.00951    0.00951 =
         0.01372    0.00000    0.00000    0.00476
FE1   5    1.000000    0.000000    0.000000    10.16667    0.00857    0.00857 =
         0.01148    0.00000    0.00000    0.00429
O1    4    0.883294    0.343369    0.168051    11.00000    0.01899    0.01711 =
         0.02877   -0.00635    0.00575    0.00824
O2    4    1.012882    0.208865    0.082919    11.00000    0.01599    0.01665 =
         0.02187   -0.00318    0.00256    0.00892
C1    1    0.873278    0.209745    0.120477    11.00000    0.01571    0.01663 =
         0.02101   -0.00459   -0.00003    0.00925
AFIX  43
H1    2    0.755406    0.103827    0.112081    11.00000    0.03430
AFIX   0
C2    1    1.333333    0.666667    0.153326    10.33333    0.02738    0.02738 =
         0.54026    0.00000    0.00000    0.01369
N1    3    1.278012    0.556025    0.250000    10.16700    0.03876    0.01292 =
         0.39281    0.00000   -0.09283    0.00646
HKLF    4

REM  FeCo_warm4 in P-31c
REM R1 =  0.0321 for     966 Fo > 4sig(Fo)  and  0.0328 for all     997 data
REM     41 parameters refined using      0 restraints

END

WGHT      0.0673      0.2143

REM Highest difference peak  0.385,  deepest hole -0.342,  1-sigma level  0.081
Q1    1   1.0005  0.0994  0.0455  11.00000  0.05    0.39
Q2    1   0.9083  0.1612  0.0994  11.00000  0.05    0.38
Q3    1   1.3333  0.6667  0.2500  10.16667  0.05    0.36
Q4    1   0.8674  0.2969  0.1325  11.00000  0.05    0.32
Q5    1   0.5991  0.1982  0.2500  10.50000  0.05    0.29
Q6    1   0.7534  0.2754 -0.0065  11.00000  0.05    0.29
Q7    1   0.6667  0.3333  0.3292  10.33333  0.05    0.28
Q8    1   1.0000  0.0000 -0.0829  10.33333  0.05    0.28
Q9    1   1.3333  0.6667  0.0903  10.33333  0.05    0.27
Q10   1   1.2160  0.6080  0.2500  10.50000  0.05    0.26
Q11   1   0.6512  0.1955  0.0841  11.00000  0.05    0.26
Q12   1   0.6050  0.2609  0.2930  11.00000  0.05    0.26
Q13   1   1.3085  0.7308  0.1462  11.00000  0.05    0.26
Q14   1   1.1013  0.6076  0.1510  11.00000  0.05    0.24
Q15   1   0.9957  0.3024  0.0578  11.00000  0.05    0.24
Q16   1   0.7457  0.1379  0.0759  11.00000  0.05    0.24
Q17   1   1.3084  0.4711  0.2549  11.00000  0.05    0.24
Q18   1   1.3962  0.7045  0.0326  11.00000  0.05    0.24
Q19   1   0.8193  0.2707  0.2122  11.00000  0.05    0.23
Q20   1   0.8890  0.4539  0.1937  11.00000  0.05    0.23
;
_shelx_res_checksum              70133
_shelx_hkl_file
;
   0   0  -3 23.3844 82.3474   1
   0   0   3 48.3136 66.9960   1
   0   0  -5 943.621 190.911   1
   0   0   5-27.7989 98.9727   1
   0   0   6 63979.0 1682.11   1
   0   0  -6 68660.2 1739.11   1
   0   0  -7 190.073 134.436   1
   0   0   7 19.4708 116.081   1
   0   0  -9 175.127 185.776   1
   0   0   9 102.197 119.283   1
   0   0 -10 26684.1 1395.54   1
   0   0  10 24270.2 1303.52   1
   0   0  11-38.2363 160.461   1
   0   0 -11 161.736 240.941   1
   0   0  13 192.750 189.289   1
   0   0 -13 127.255 130.559   1
   0  -1   4 5491.76 255.577   1
   0  -1   4 5979.53 431.436   2
   1   0   4 5389.06 463.169   1
  -1   0  -4 5391.72 474.787   1
   1  -1  -4 4930.97 332.483   2
   0  -1  -4 5706.37 511.600   1
  -1   0   4 4929.61 320.771   1
  -1   1   4 5566.77 452.775   1
   1  -1   4 5525.11 414.384   1
   0   1   4 4873.48 460.854   1
   1   0  -4 5756.80 337.565   1
  -1   1  -4 5979.71 441.060   1
   1  -1  -4 5752.92 462.337   1
   0   1  -4 5601.62 270.014   1
   0  -1  -5 15240.2 900.766   2
   0  -1   5 20002.0 593.849   1
   0   1   5 18722.8 969.384   1
   1   0  -5 19403.0 695.839   1
  -1   0   5 23049.5 722.739   1
  -1   1   5 18291.8 868.836   1
  -1   0  -5 20335.5 990.752   1
   1  -1  -5 14506.8 683.833   2
  -1   1  -5 18598.6 847.913   1
   1  -1   5 18212.4 817.319   1
   1  -1  -5 13817.1 806.666   1
   0  -1  -5 18044.3 951.092   1
   1   0   5 19059.3 951.864   1
   0   1  -5 19715.4 639.341   1
   0  -1   6 49146.4 1167.27   1
  -1   1   6 53994.7 1663.56   1
  -1   0   6 62302.7 1376.97   1
   1  -1  -6 52278.7 1461.79   2
  -1   1  -6 57794.7 1687.44   1
   0  -1  -6 53789.2 1841.33   1
   1  -1  -6 58571.7 1762.39   1
  -1   0  -6 63766.6 1985.51   1
   0   1  -6 58942.4 1288.99   1
   1   0  -6 43195.0 1238.33   1
   1  -1   6 55366.2 1596.42   1
   0  -1  -6 53611.5 1816.35   2
   1   0   6 43702.4 1611.18   1
   0   1   6 51590.6 1764.31   1
   0  -1  -7 163013. 3570.92   2
   0   1   7 161873. 3439.03   1
   1   0   7 156623. 3348.21   1
  -1   0  -7 166502. 3582.25   1
   1  -1  -7 126676. 2755.59   2
   0  -1  -7 161287. 3515.25   1
  -1   1  -7 167320. 3219.67   1
   1  -1  -7 130496. 3054.72   1
   1  -1  -8 74632.2 2240.23   1
   1   0   8 56304.8 2017.22   1
  -1   0  -8 65660.9 2244.43   1
   1  -1  -8 51290.8 1759.18   2
   0  -1   8 56627.6 1540.01   1
   0  -1  -8 65940.9 2348.27   2
   1  -1   8 78232.5 2131.08   1
   0   1  -8 74015.4 1783.27   1
   0  -1  -8 66892.2 2280.03   1
   0   1   8 63455.4 2176.33   1
  -1   1  -8 68845.3 2118.73   1
  -1   1   8 58319.8 1939.14   1
  -1   0   8 59833.9 1651.45   1
   1   0  -8 56593.2 1658.09   1
   0  -1   9 238793. 3828.77   1
   0  -1 -11 240262. 5349.58   2
   0   1  11 225394. 5165.59   1
   1  -1 -11 213332. 4826.90   1
   0  -1 -11 255593. 5419.00   1
  -1   1  11 257096. 5017.22   1
  -1   0 -11 277889. 5518.91   1
   1   0  11 267881. 5396.73   1
   1   0 -12 74684.7 2406.82   1
   1  -1  12 83822.5 2742.30   1
   0  -1 -12 89192.4 3144.76   1
  -1   1 -12 70885.5 2577.07   1
   1  -1 -12 84609.5 2903.73   1
   0   1  12 89658.4 3087.91   1
  -1   0 -12 95561.1 3190.23   1
  -1   1  12 84370.3 2796.59   1
   0  -1 -12 87881.4 3233.85   2
   1   0  12 91444.2 3080.15   1
   1   0  13 179110. 4668.80   1
  -1   1 -13 207880. 4756.05   1
   0  -1 -13 148994. 4468.41   1
   1  -1 -13 219834. 5025.21   1
  -1   1  13 194243. 4610.01   1
   0  -1 -13 151246. 4601.86   2
   0   1  13 191479. 4877.95   1
  -1   0 -13 173453. 4769.89   1
   0  -1 -14 435667. 8359.84   1
   1   0  14 438842. 8272.35   1
  -1   0 -14 445674. 8445.40   1
   1   1  15-124.451 191.329   1
  -1  -1 -15-55.0341 185.781   1
  -1  -1 -15 360.646 313.836   2
   1   1  14 12856.8 1303.25   1
  -1  -1 -14 13643.0 1391.86   2
  -1  -1 -14 11079.8 1256.55   1
   1   1  13-63.9956 215.837   1
  -1  -1 -13-36.4512 313.736   2
  -1  -1 -13 202.266 194.775   1
   1   1  11 130.384 215.615   1
   2  -1 -11 148.151 178.770   1
  -1  -1 -11 45.7365 156.575   1
  -2   1  11 697.865 188.231   1
   1  -2  11 369.678 157.551   1
  -1   2 -11 96.5641 104.098   1
  -1  -1 -11-37.0250 217.862   2
   1   1  10 86472.6 2990.85   1
  -1  -1 -10 86301.4 3216.01   2
   1  -2  10 82890.2 2251.32   1
  -2   1  10 91076.3 2542.38   1
  -1   2 -10 84338.2 2360.83   1
  -1  -1 -10 89266.7 3084.86   1
  -1  -1  -9-112.095 202.392   1
   2  -1  -9 71.9575 71.5047   2
  -2   1   9-82.3968 149.563   1
   2  -1  -9 58.7191 142.830   1
  -1  -1  -9-248.580 176.863   2
   1  -2   9 82.7646 89.3871   1
   1   1   9-55.2965 195.305   1
   1  -2   7 144.977 105.505   1
  -1  -1  -7 15.0003 229.386   1
   2  -1  -7 3.04682 40.1662   2
  -1   2  -7 68.3969 74.0739   1
   1   1   7-68.5649 164.609   1
   2  -1  -7 131.976 135.190   1
  -2   1   7 135.805 95.1292   1
  -2   1   6 6586.83 533.847   1
  -1   2  -6 9165.75 586.732   1
  -1  -1  -6 6488.64 655.441   1
   2  -1  -6 4799.74 260.792   2
   2  -1  -6 7105.82 567.892   1
   1   1   6 7346.73 715.986   1
   1  -2   6 6794.83 481.066   1
  -1  -1  -5 48.7382 147.806   1
   1  -2   5 169.327 107.817   1
  -2   1   5 124.946 128.101   1
   2  -1  -5 16.7462 88.2947   1
  -1  -1  -5 179.114 153.284   2
   1  -2   5-184.659 141.994   2
   1   1   5 21.3128 130.636   1
   2  -1  -3-14.9586 100.832   1
  -1  -1  -3 286.469 209.235   2
   1  -2   3 11.8984 101.535   1
   1  -2   3 321.094 159.174   2
   2  -1  -3 51.1790 39.5506   2
  -1   2  -3 158.306 127.723   1
  -1  -1  -3 184.161 117.533   1
   1   1   3 233.044 157.743   1
  -2   1   3 175.913 90.6012   1
  -2   1   1 53.0295 102.128   1
  -1  -1  -1-128.001 156.919   1
   1   1   1-51.5697 130.929   1
   1  -2   1 44.3837 113.529   2
   1  -2   1 307.985 168.062   1
  -1   2  -1 53.2761 94.5670   1
  -1  -1  -1 67.4627 141.261   2
   2  -1  -1-14.1013 104.040   1
  -1  -1   1 58.2007 89.1688   2
   1   1  -1 22.1069 71.8726   1
   1  -2  -1-3.45937 110.714   2
   1  -2  -1 192.289 95.4550   1
  -1  -1   1-282.220 108.914   1
  -2   1  -1 147.025 134.503   1
  -1   2   1 384.703 166.971   1
   2  -1   3 290.007 165.770   1
  -1   2   3 41.0310 143.738   1
  -2   1  -3 299.754 196.498   1
  -1  -1   3 445.604 118.721   2
   1  -2  -3-174.525 104.859   2
   1  -2  -3 246.366 165.028   1
   1  -2  -5 152.034 157.138   2
   2  -1   5 7.02391 92.0807   1
  -1   2   5-36.1073 96.9664   1
   1  -2  -5 103.134 129.997   1
  -2   1  -5 133.649 112.765   1
  -1  -1   5 226.571 103.773   2
   1  -2  -6 18720.5 1138.73   1
   2  -1   6 22246.1 1149.89   1
   1  -2  -6 20527.4 1082.28   2
  -2   1  -6 20920.7 1166.58   1
  -1   2   6 18844.3 1108.10   1
   2  -1   7 75.9238 134.765   1
  -1   2   7-249.605 227.184   1
   1  -2  -7-133.645 115.974   1
   1  -2  -7-93.8958 130.888   2
  -2   1  -7 277.210 192.570   1
  -1  -1   9 62.4526 55.9297   1
   1  -2  -9 51.7416 160.196   2
   1   1  -9 33.1126 38.6497   1
  -2   1  -9-47.6681 141.965   1
   2  -1   9-32.3518 147.559   1
  -1   2   9-86.3745 175.777   1
   1  -2  -9 179.391 194.479   1
   1  -2 -10 182418. 4527.23   1
   2  -1  10 182184. 4272.10   1
  -2   1 -10 184721. 4477.83   1
   1  -2 -10 168007. 4047.51   2
   1   1 -10 179370. 2760.96   1
  -1   2  10 178151. 4314.13   1
  -2   1 -11 294.294 139.134   1
   1  -2 -11-165.069 152.617   1
  -1   2  11-11.3152 127.729   1
   2  -1  11 21.5980 158.512   1
   1  -2 -11-0.36395 146.410   2
   2  -1  13-380.031 258.623   1
   1  -2 -13 151.344 226.756   1
  -2   1 -13 72.4549 216.081   1
   1  -2 -13 28.8925 139.539   2
  -1   2  13 128.415 223.637   1
  -1   2  14 31648.0 1991.34   1
   2  -1  14 37547.9 2124.01   1
  -2   1 -14 35629.3 2092.48   1
   1  -2 -14 29031.3 1988.42   1
  -2   2  -1 134089. 2659.52   1
   2  -2   7 147148. 3177.09   1
   0   2   7 144592. 3585.78   1
   2  -2  -7 120929. 2623.35   2
   2  -2  -7 147704. 3447.45   1
   0  -2  -7 126255. 3357.99   2
   0  -2  -7 135197. 3600.83   1
  -2   2   7 171890. 3581.13   1
   2   0   7 137204. 3451.60   1
  -2   2  -7 147089. 3300.73   1
  -2   0  -7 154891. 3735.72   1
   0  -2  -8 6982.39 792.492   1
  -2   0   8 7451.66 502.996   1
   0   2  -8 5258.92 323.213   1
  -2   0  -8 5401.69 692.431   1
   2  -2   8 5872.64 637.896   1
   2   0   8 5323.88 673.564   1
   2  -2  -8 4794.51 618.690   1
  -2   2  -8 6222.94 671.366   1
  -2   2   8 6256.62 654.133   1
   2  -2  -8 4529.47 468.163   2
   0  -2   8 4767.39 282.009   1
   0  -2  -8 4249.17 603.450   2
   0   2   8 5801.70 708.866   1
   2   0  -8 6641.46 512.487   1
   0   2   9 78052.8 2728.73   1
  -2   0   9 79466.1 1773.44   1
   2  -2  -9 69476.9 2025.93   2
   0  -2  -9 77151.1 2756.73   1
   0  -2   9 73967.2 1296.70   1
   2  -2   9 89968.1 2547.91   1
   2   0   9 70620.8 2536.39   1
  -2   0  -9 75570.9 2774.52   1
   2  -2  -9 83693.7 2699.01   1
  -2   2   9 93008.5 2675.24   1
   0   2  -9 71561.5 1376.56   1
  -2   2  -9 84611.7 2576.47   1
   2   0  -9 88082.9 1922.44   1
   0  -2  -9 84378.0 2786.97   2
   0   2  10 360888. 6046.59   1
   2  -2 -10 330699. 5443.92   1
  -2   2  11 362908. 6701.04   1
   0  -2 -11 370322. 7354.69   1
   0   2  12 97447.2 3470.56   1
   2  -2  12 105202. 3192.47   1
  -2   2 -12 97263.9 3246.74   1
  -2   0 -12 100609. 3606.29   1
   0  -2 -12 94988.1 3561.76   1
   2   0  12 102664. 3524.35   1
   0  -2 -12 100710. 3534.43   2
   2  -2 -12 100309. 3336.69   1
   0   2  13 126633. 4249.76   1
  -2   2  13 126395. 3851.97   1
  -2   2 -13 139040. 4055.58   1
  -2   0 -13 139103. 4352.59   1
   0  -2 -13 127036. 4192.41   2
   0  -2 -13 139253. 4448.08   1
   2   0  13 134908. 4262.87   1
   0  -2 -14 277571. 6461.02   2
   0   2  14 271862. 6459.19   1
  -2   0 -14 257347. 6277.59   1
  -2   0 -15 5323.51 877.675   1
   2   0  15 3509.60 744.086   1
   0   2  15 5351.43 895.932   1
   0  -2 -15 3244.89 725.464   1
   0  -2 -16 3852.52 827.858   1
  -2   0 -16 3610.67 837.817   2
  -2  -1 -17 131861. 5141.16   2
  -2  -1 -16 130.003 208.326   2
   2   1  16 258.657 363.758   1
  -1  -2 -16 728.958 275.635   2
  -1  -2 -16 128.032 237.033   1
  -2  -1 -16 12.3540 168.506   1
   1   2  16-3.35352 280.969   1
  -2  -1 -15 184759. 5992.40   2
  -1  -2 -15 204514. 6126.71   2
   1   2  15 237380. 6410.52   1
  -2  -1 -15 206788. 6006.82   1
   2   1  15 241096. 6362.27   1
  -1  -2 -15 193515. 5934.93   1
  -2  -1 -14 91928.8 3951.30   2
  -1  -2 -14 102919. 4009.90   2
   2   1  14 112646. 4151.75   1
  -2  -1 -14 97202.8 3910.74   1
  -1  -2 -14 109601. 4122.54   1
   1   2  14 115776. 4231.91   1
   1   2  13 30259.6 2034.43   1
  -1  -2 -13 23860.3 1843.73   2
  -1  -2 -13 30699.6 2061.91   1
  -2  -1 -13 26554.5 1916.78   1
   2   1  13 26549.5 1914.79   1
  -2  -1 -13 26460.9 2008.80   2
   1   2  12 2284.09 561.700   1
   2   1  12 4040.45 712.294   1
  -1  -2 -12 2413.07 555.478   2
  -3   2  12 2064.42 419.309   1
  -2  -1 -12 2606.07 552.616   1
  -2  -1 -12 2949.47 653.003   2
  -1  -2 -12 2241.94 590.901   1
   3  -2 -12 2498.01 555.589   1
   3  -1 -11 6255.52 665.465   1
  -3   2  11 4908.69 671.512   1
  -1  -2 -11 4745.43 815.215   1
   2  -3  11 4436.97 580.039   1
  -2   3 -11 5266.04 661.767   1
   2   1  11 4503.92 735.877   1
   3  -2 -11 6153.34 759.508   1
   1   2  11 3935.93 715.336   1
  -2  -1 -11 7005.60 1049.88   2
  -2  -1 -11 5504.29 832.980   1
  -1  -2 -11 5283.77 821.732   2
   2  -3   9 93806.9 2565.51   1
  -3   2   9 87963.4 2717.23   1
  -2  -1  -9 95343.9 3289.22   1
  -2   3  -9 92981.9 2661.20   1
  -1   3  -9 92300.6 2182.10   1
   3  -2  -9 75070.9 1697.10   2
  -3   1   9 118603. 2749.69   1
   1   2   9 94798.4 3224.96   1
   3  -1  -9 101229. 2668.20   1
  -1  -2  -9 96714.4 3333.36   2
   1  -3   9 93091.6 2094.49   1
   2   1   9 107920. 3399.71   1
   3  -2  -9 98683.4 2968.77   1
  -1  -2  -9 88428.0 3181.49   1
   1  -3   2 155421. 3260.06   2
   1   2   2 155198. 3266.57   1
  -1  -2  -2 141622. 3288.18   2
   2  -3   2 149180. 3038.53   1
  -2  -1  -2 178266. 3473.15   1
  -2  -1  -2 182185. 3640.47   2
  -3   1   2 122419. 2820.39   1
   1   2   0 966.105 215.783   1
  -2  -1   0 1083.92 257.536   1
   3  -2   0 970.339 250.091   1
   1  -3   0 853.172 237.513   1
   2  -3   0 965.187 260.946   2
  -3   2   0 862.441 198.903   1
   2   1   0 694.972 158.220   1
  -3   1   0 1409.49 284.374   1
   2  -3   0 1100.45 265.285   1
  -1  -2   0 791.881 203.726   1
  -2  -1   0 741.022 194.186   2
  -1  -2   0 1501.43 302.502   2
   3  -1   0 663.600 194.447   1
   1  -3   0 1224.21 286.438   2
  -1   3   0 805.012 207.807   1
  -2   3   0 1037.81 234.047   1
  -1   3   1 179837. 3491.50   1
  -1  -2   3 50041.0 1194.77   1
   2   1  -3 41019.5 1187.58   1
  -2  -1   3 59585.2 1392.61   1
  -2  -1   3 49464.9 1367.17   2
  -3   2  -3 49751.1 1828.52   1
   1   2  -3 48037.0 1200.42   1
   1  -3  -3 44384.1 1672.35   2
  -3   1  -3 51505.0 1847.23   1
   1  -3  -3 47954.7 1813.01   1
   3  -1   3 52859.5 1878.16   1
  -1   3   3 49336.3 1782.88   1
  -1  -2   3 40895.4 1418.82   2
   2  -3  -3 45267.5 1585.12   2
  -2   3   3 45361.7 1736.82   1
   3  -2   3 45235.0 1701.56   1
   2  -3  -3 46605.3 1775.34   1
   1  -3  -8 47268.1 2191.97   1
   3  -2   8 51247.5 2081.26   1
  -1   3   8 44940.9 2073.11   1
  -1  -2   8 43691.5 1702.76   2
   3  -1   8 52323.1 2238.01   1
   2  -3  -8 44848.8 1856.76   2
   1  -3  -8 43729.3 2024.28   2
  -2   3   8 55721.2 2244.46   1
   2  -3  -8 43754.6 2032.11   1
  -3   2  -8 47938.8 2091.92   1
  -3   1  -8 50603.5 2246.20   1
   3  -2  10 253807. 5443.37   1
  -2   3  10 287901. 5806.81   1
   3  -1  10 273158. 5717.44   1
  -1   3  10 236024. 5483.22   1
  -3   2 -10 232241. 5385.81   1
   1  -3 -10 237585. 5455.70   2
  -3   1 -10 255605. 5732.63   1
   1  -3 -10 218402. 5476.38   1
   2  -3 -10 296250. 6021.50   1
   2  -3 -10 268997. 5299.47   2
   3  -1  11 81123.3 3021.12   1
   2  -3 -11 77111.2 2709.66   2
  -3   2 -11 82443.2 3022.62   1
   1  -3 -11 80183.8 3199.28   1
  -3   1 -11 80151.8 3161.85   1
   2  -3 -11 68418.3 2875.43   1
   3  -2  11 76128.3 2860.43   1
  -2   3  11 63431.0 2685.81   1
   1  -3 -11 79792.2 3069.89   2
  -1   3  11 74028.4 2935.27   1
   3  -1  12 1631.24 481.243   1
   1  -3 -12 1030.90 423.537   2
   2  -3 -12 718.979 329.475   1
  -3   2 -12 1091.54 367.456   1
  -2   3  12 1004.50 391.524   1
   1  -3 -12 1200.05 442.662   1
   3  -2  12 1202.70 353.351   1
  -3   1 -12 971.021 365.527   1
  -1   3  12 2176.53 548.678   1
   2  -3 -12 1046.18 366.766   2
  -3   1 -13 27346.7 1939.42   1
   2  -3 -13 25964.0 1833.82   1
  -3   2 -13 26410.1 1880.28   1
   1  -3 -13 28738.6 1940.79   2
   3  -1  13 26720.7 1822.18   1
   3  -2  13 31953.5 1958.50   1
  -1   3  13 29513.0 1998.49   1
  -2   3  13 25280.7 1807.12   1
   1  -3 -13 20575.6 1719.80   1
   3  -1  14 211988. 5713.26   1
  -1   3  14 226081. 5928.38   1
   1  -3 -14 217325. 6000.46   1
  -3   1 -14 192443. 5635.56   1
  -3   2 -14 214616. 5719.38   1
  -2   3  14 196099. 5400.27   1
   2  -3 -14 229286. 5967.69   1
  -1   3  15 48368.0 2734.37   1
   2  -3 -15 43482.0 2571.10   1
  -3   1 -15 46245.2 2687.70   1
   3  -1  15 45586.5 2623.34   1
   1  -3 -16 183790. 5800.97   1
  -3   0   1 2477.93 371.778   1
   0  -3  -1 1826.85 362.488   2
   0  -3  -1 1871.94 342.100   1
  -3   0  -1 1188.51 315.443   1
   0  -3   1 1271.32 270.670   1
   3   0   1 1717.66 311.015   1
   0  -3   1 1557.02 288.062   2
  -3   3  -1 1408.76 314.860   1
   3  -3   1 3105.78 407.929   1
   0   3  -1 2958.72 378.689   1
   0   3   1 1653.79 334.219   1
  -3   3   1 956.723 243.396   1
   3   0  -1 2096.94 320.328   1
   3  -3   1 1701.52 341.585   2
   3  -3  -1 1286.52 266.233   2
   0   3  -2 33301.9 1246.81   1
   3   0  -2 33241.9 1301.22   1
   0  -3   2 28874.5 1371.67   2
  -3   3   2 30774.8 1434.69   1
  -3   0  -2 35638.3 1552.20   1
   3  -3   2 36415.1 1603.66   2
  -3   0   2 36883.9 1366.14   1
   0   3   2 33124.6 1497.50   1
   3   0   2 31883.2 1468.84   1
  -3   0   2 40549.1 1288.24   2
   0  -3  -2 34527.9 1558.19   2
   0  -3  -2 34064.2 1524.92   1
   3  -3   2 31655.0 1414.74   1
  -3   3  -2 32535.1 1489.95   1
   0  -3   2 33009.3 1229.28   1
   3  -3  -2 36850.5 1575.11   1
   3  -3  -2 39097.8 1468.92   2
   0  -3  -3 34415.8 1588.56   2
   0  -3  -3 38250.3 1653.93   1
  -3   3   3 34111.6 1538.10   1
   3  -3   3 41961.3 1826.65   2
   3  -3   3 37094.9 1543.12   1
   3  -3  -3 35006.1 1340.83   2
   3   0  -3 35803.9 1322.25   1
  -3   0  -3 38145.9 1715.13   1
   0   3  -3 35151.1 1177.47   1
   3   0   3 32363.9 1558.37   1
  -3   3  -3 38219.0 1612.01   1
   0   3   3 37535.2 1674.24   1
   0  -3   3 39338.1 1586.45   2
  -3   0   3 35006.0 1071.76   2
   3  -3  -3 32413.2 1556.45   1
   0  -3   3 31234.8 1125.91   1
   0   3   5 14432.6 1116.56   1
   0  -3   5 17892.7 689.478   1
  -3   3   5 18643.8 1147.19   1
   3  -3  -5 16724.1 1147.81   1
   3  -3   5 17755.0 1104.68   1
  -3   0   5 17451.9 848.696   1
   3   0  -5 17751.0 873.251   1
   0  -3   5 14345.2 995.187   2
   3  -3  -5 13832.6 861.831   2
  -3   3  -5 17517.9 1157.04   1
   0  -3  -5 16265.8 1157.48   2
   3   0   5 17985.8 1210.06   1
   0  -3  -5 15273.8 1149.88   1
  -3   0  -5 15280.0 1168.93   1
  -3   0   5 16060.9 485.850   2
   0   3  -5 16488.4 686.472   1
  -3   0  -6 3928.40 610.667   1
   3   0  -6 4901.32 445.081   1
   0   3  -6 3999.99 303.843   1
   0  -3  -6 3759.83 595.001   1
  -3   0   6 4577.94 415.922   1
   0  -3  -6 3990.66 564.312   2
   3  -3  -6 3113.94 407.550   2
  -3   3  -6 4260.16 588.257   1
   3   0   6 4306.68 621.901   1
   3  -3  -6 3878.57 572.185   1
   3  -3   6 4926.46 623.064   1
   0  -3   6 3613.63 535.346   2
  -3   3   6 3698.59 534.252   1
   0   3   6 4460.43 665.054   1
   0  -3  -7 13306.1 1160.45   1
   3  -3  -7 16383.8 1211.15   1
  -3   3   7 14365.8 1098.77   1
  -3   0  -7 15540.3 1210.17   1
  -3   3  -7 15579.0 1121.27   1
   3  -3  -7 16777.5 968.008   2
  -3   0   7 14704.0 760.782   1
   0  -3  -7 16721.5 1268.92   2
   0  -3   7 17500.0 1179.39   2
   3   0  -7 13735.0 744.564   1
   3  -3   7 15067.8 1050.17   1
   0   3   7 19063.4 1346.50   1
   3   0   7 18074.7 1274.42   1
  -3   3  -9 10177.1 956.864   1
   3  -3   9 11437.0 972.533   1
   3  -3  -9 10561.0 992.723   1
  -3   3   9 11974.3 1046.68   1
  -3   0  -9 12354.3 1210.15   1
   3  -3  -9 10918.9 809.795   2
   0  -3  -9 11552.3 1139.71   2
   0   3   9 10354.6 1068.24   1
   0  -3  -9 11149.6 1108.56   1
   3   0  -9 10824.9 652.526   1
   3   0   9 11667.1 1111.75   1
  -3   0   9 8515.98 591.558   1
  -3   3  10 1399.96 409.829   1
   0  -3 -10 1250.86 482.368   2
  -3   3 -10 1178.88 337.675   1
   0   3  10 1899.15 493.783   1
   0  -3 -10 1305.69 386.207   1
   3  -3 -10 1083.30 281.454   2
  -3   0 -10 1840.83 529.113   1
   3  -3 -10 1519.91 415.812   1
   3   0  10 1135.74 375.632   1
  -3   3  11 1449.43 397.262   1
   3  -3 -11 1366.29 417.773   1
   3  -3  11 1120.79 327.625   1
   3   0  11 1370.68 447.227   1
  -3   3 -11 1506.96 425.001   1
  -3   0 -11 1127.76 488.197   1
   0   3  11 1141.03 410.340   1
   0  -3 -11 1376.75 504.776   1
   0  -3 -11 1496.25 514.661   2
  -3   0 -12 482087. 9255.62   1
  -3   0 -13 299.864 350.813   1
   3   0  13 216.651 271.840   1
   0   3  13-73.7173 170.143   1
   3  -3 -13 164.332 177.872   1
   0  -3 -13-164.175 249.738   1
  -3   3  13 162.904 139.802   1
   3   0  14 234.051 276.652   1
   3  -3 -14 151.816 201.897   1
   0  -3 -14 52.2282 191.485   1
  -3   0 -14 183.909 177.394   1
   0   3  14 207.980 210.597   1
   0  -3 -14 176.751 276.609   2
   0   3  15 697.604 365.752   1
   0  -3 -15 572.258 218.231   2
  -3   0 -15 579.032 473.750   1
   0  -3 -15 701.148 422.138   1
   3   0  15 831.057 381.215   1
   0   3  16 350118. 8239.04   1
   3   0  16 315856. 7975.34   1
  -3   0 -16 358489. 8331.53   1
  -3   0 -16 301987. 8266.76   2
   0  -3 -17 817.360 460.680   1
  -3   0 -17 108.554 330.555   2
  -3   0 -18 232.672 420.917   2
  -2  -2 -17 29.5745 330.848   2
  -2  -2 -17 12.2304 297.244   1
   2   2  17 371.892 272.533   1
  -2  -2 -16 536427. 10846.2   1
  -2  -2 -16 520564. 10757.6   2
   2   2  16 503946. 10536.9   1
   2   2  15-316.296 402.791   1
  -2  -2 -15-425.574 381.714   2
  -2  -2 -15-233.418 305.407   1
   2   2  14 159531. 5127.97   1
  -2  -2 -14 167902. 5441.36   2
  -2  -2 -13-242.738 196.055   1
  -2  -2 -13-215.638 240.010   2
   2   2  13-391.647 263.199   1
  -2  -2 -12 104627. 4027.71   2
   2   2  12 92752.1 3702.37   1
  -2  -2 -12 103566. 3899.13   1
   4  -2 -11 280.700 234.630   1
  -4   2  11 23.5252 165.953   1
  -2  -2 -11-165.426 226.196   1
   2   2  11 198.586 178.405   1
  -2  -2 -10 261887. 6196.01   1
  -2  -2 -10 308872. 6876.58   2
   4  -2 -10 255959. 5476.82   1
   2   2  10 292445. 6438.64   1
  -2   4  -9 84.2766 131.150   1
  -4   2   9 71.4781 167.895   1
  -2  -2  -9-23.3908 166.433   1
  -2  -2  -9 149.759 316.623   2
   2   2   9 248.319 267.199   1
   2  -4   9-9.99631 167.338   1
   2  -4   7 228.551 158.348   1
  -2  -2  -7 101.419 224.402   1
   2   2   7-10.8096 156.562   1
  -2   4  -7 246.854 162.004   1
   2  -4   7 535.876 279.830   2
   4  -2  -7 315.056 237.798   1
  -2  -2  -7 50.2561 249.601   2
  -4   2   7 44.5668 113.843   1
   2  -4   6 1552.18 307.637   1
  -2  -2  -6 2102.63 502.613   2
   2  -4   6 3067.34 577.230   2
   2   2   6 1881.62 420.520   1
   4  -2  -6 2022.26 417.899   1
  -2   4  -6 1889.42 345.460   1
  -2  -2  -6 1903.35 481.663   1
  -4   2   6 1895.57 388.805   1
  -2   4  -5 274.544 176.907   1
   4  -2  -5-95.7159 198.995   1
  -4   2   5 74.7491 122.590   1
   2   2   5 36.8691 160.061   1
   2  -4   5-0.35172 250.565   2
  -2  -2  -5-123.496 261.288   1
   2  -4   5-29.8654 88.2290   1
  -2  -2  -5-120.941 258.779   2
   2  -4   3 119.025 206.012   2
  -2  -2  -3 145.284 201.919   2
   4  -2  -3 364.493 166.829   1
  -2  -2  -3-42.1678 213.679   1
  -2   4  -3 75.3154 158.053   1
   2  -4   3 217.787 127.892   1
   2   2   3 191.843 216.952   1
  -4   2   3 161.947 124.339   1
   2   2   1 130.750 102.245   1
  -2   4  -1 488.605 218.976   1
   2  -4   1 539.406 229.267   2
  -2  -2  -1-257.109 232.821   2
   4  -2  -1 291.802 221.981   1
   2  -4   1 158.382 209.418   1
  -4   2   1 498.425 241.184   1
  -2  -2  -1-50.8752 149.708   1
   2  -4  -1-16.9909 158.148   2
  -2  -2   1 191.879 151.450   1
  -2   4   1-161.158 213.219   1
   4  -2   1 112.349 130.998   1
   2  -4  -1 269.654 214.554   1
  -4   2  -1 187.749 140.514   1
  -2  -2   1 421.593 208.957   2
   2   2  -1 12.8399 123.931   1
  -2   4   3 280.869 248.056   1
   2  -4  -3 53.2520 161.638   2
  -2  -2   3-57.3410 99.6172   1
   4  -2   3 284.076 246.549   1
   2   2  -3 49.9397 92.4800   1
  -4   2  -3 117.140 179.067   1
   2  -4  -3 636.823 294.099   1
  -2  -2   3 74.4932 134.397   2
  -2   4   5 149.661 191.141   1
   4  -2   5-56.5691 190.268   1
   2   2  -5-68.9561 77.5353   1
  -2  -2   5 225.317 83.8545   1
  -2  -2   5 190.323 158.411   2
   2  -4  -5 100.071 217.879   2
  -4   2  -5 89.9650 232.284   1
   2  -4  -5 294.604 286.937   1
   2  -4  -6 3943.29 620.655   1
   4  -2   6 2936.71 527.749   1
  -2  -2   6 5156.33 518.195   2
  -4   2  -6 3459.36 560.157   1
  -2   4   6 4001.88 586.257   1
   2  -4  -6 4159.76 588.359   2
   2  -4  -7 48.4392 146.951   2
   2  -4  -7 33.2495 185.245   1
  -2   4   7-5.33579 153.296   1
  -2  -2   7 79.8502 89.3520   2
   4  -2   7 361.512 274.786   1
   4  -2   9 343.537 274.602   1
  -4   2  -9 233.008 273.254   1
   2  -4  -9 0.39346 235.410   2
  -2   4   9-298.364 277.617   1
   2  -4  -9 159.135 188.683   1
  -2   4  10 192028. 4972.01   1
   4  -2  10 197194. 5006.65   1
  -4   2 -10 201413. 5199.97   1
   2  -4 -10 204851. 4918.63   2
   4  -2  11 377.915 303.147   1
  -2   4  11 105.755 199.826   1
   2  -4 -11 137.567 250.598   2
   2  -4 -11-168.637 303.609   1
  -4   2 -11 119.650 154.058   1
  -2   4  12 85068.8 3412.91   1
   2  -4 -12 92486.5 3622.14   1
  -4   2 -12 86637.9 3471.83   1
   2  -4 -12 92553.5 3453.39   2
   4  -2  12 94471.9 3495.15   1
   2  -4 -13-246.545 247.945   1
   4  -2  13 277.504 320.762   1
  -2   4  13-178.930 286.030   1
  -4   2 -13 19.5100 221.203   1
   2  -4 -14 48851.1 2805.06   1
  -4   2 -14 58364.6 3096.76   1
   4  -2  14 54834.3 2870.62   1
  -2   4  15-165.165 252.080   1
  -4   2 -15 211.255 298.983   1
   2  -4 -16 508363. 10437.1   1
  -3  -1 -18 138435. 5545.55   2
   1   3  17 20339.9 1952.39   1
  -3  -1 -17 21814.6 2079.10   1
  -1  -3 -17 22294.1 2042.53   1
  -3  -1 -17 17414.3 1927.50   2
   3   1  17 16531.6 1792.92   1
  -3  -1 -16 4035.68 839.681   1
   3   1  16 2277.83 616.175   1
  -1  -3 -16 2800.95 775.992   2
  -3  -1 -16 1919.03 608.087   2
  -1  -3 -16 1555.30 473.078   1
   1   3  16 2752.72 771.203   1
  -3  -1 -15 202104. 6328.82   2
  -3  -1 -15 202195. 6082.98   1
  -1  -3 -15 221498. 6423.22   1
   3   1  15 207349. 6198.70   1
  -1  -3 -15 216610. 6383.88   2
   1   3  14 112128. 4334.45   1
  -3  -1 -14 117604. 4401.78   1
  -3  -1 -14 107967. 4520.99   2
   3   1  14 116174. 4353.54   1
  -1  -3 -14 115829. 4410.56   2
  -1  -3 -14 118356. 4500.00   1
  -3  -1 -13 267889. 6766.60   1
   3   1  13 283217. 6845.90   1
  -1  -3 -13 274409. 6920.61   2
  -1  -3 -13 262372. 6768.87   1
  -1  -3 -12 18705.3 1696.26   1
  -3  -1 -12 25386.6 1925.70   1
   1   3  12 24098.3 1847.99   1
   4  -3 -12 28345.3 1859.79   1
   3   1  12 21635.8 1691.27   1
  -3  -1 -12 19376.8 1754.78   2
  -1  -3 -12 23056.1 1821.21   2
  -4   3  12 20499.3 1508.61   1
  -3   4 -11 15862.5 1265.18   1
  -3  -1 -11 13957.2 1438.41   1
  -3  -1 -11 16881.8 1617.39   2
  -4   3  11 14562.3 1246.25   1
  -1  -3 -11 11888.8 1273.02   2
   3   1  11 13162.3 1351.44   1
   1   3  11 12897.6 1290.23   1
   3  -4  11 14502.6 1165.75   1
   4  -3 -11 12569.2 1232.31   1
  -1  -3 -11 13314.1 1385.77   1
  -4   1   9 18611.9 1119.24   1
  -4   3   9 19845.4 1418.17   1
   1   3   9 14440.7 1283.56   1
  -1  -3  -9 17823.1 1447.63   2
   4  -3  -9 17822.9 1354.75   1
  -3   4  -9 15311.8 1172.86   1
   3  -4   9 16291.4 1183.00   1
  -3  -1  -9 15425.3 1404.09   1
  -1  -3  -9 17474.2 1438.60   1
   3   1   9 16785.2 1358.29   1
   4  -1  -9 14027.3 970.369   1
  -3  -1  -9 15800.0 1468.62   2
   1  -4   9 16914.5 1336.57   2
  -3  -1  -8 337575. 7055.95   2
  -1  -3  -8 323126. 6643.21   1
  -3   4  -8 316803. 5959.02   1
   1  -4   7 436171. 7567.81   2
  -3  -1  -6 540443. 9110.46   2
   4  -1  -4 22833.5 1219.69   1
  -4   1   4 26506.6 1320.84   1
  -1  -3  -4 24534.7 1481.38   1
  -3  -1  -4 28108.4 1628.10   2
   3  -4   4 29329.5 1660.64   2
  -1  -3  -4 25983.3 1550.26   2
   1   3   4 25253.0 1486.06   1
  -1   4  -4 25314.6 1186.85   1
  -3  -1  -4 28022.7 1579.50   1
   4  -3  -4 24885.2 1164.79   2
   1  -4   4 27751.7 1235.84   1
  -4   3   4 31895.9 1577.70   1
   4  -3  -4 24549.5 1464.00   1
   1  -4   4 26565.8 1468.40   2
   3   1   4 24084.3 1437.28   1
  -3   4  -4 26520.4 1405.18   1
   3  -4   4 23997.1 1295.82   1
   4  -3   0 82626.0 2581.45   1
   1   3   0 90333.1 2506.86   1
  -3  -1   0 107817. 2740.49   1
  -1  -3   0 86668.7 2481.25   1
   3   1   0 79573.4 2433.67   1
   4  -3   0 80884.4 2526.15   2
  -3   4   0 90666.5 2694.80   1
   1  -4   0 91641.3 2593.91   1
  -4   3   0 89961.2 2732.11   1
  -3  -1   0 84466.4 2473.63   2
   3  -4   0 94463.9 2760.97   1
   1  -4   0 91762.4 2733.07   2
   4  -1   0 79591.2 2503.99   1
  -4   1   0 84118.5 2561.20   1
  -1  -3   0 86369.1 2603.04   2
   3  -4   0 93959.9 2754.51   2
  -1   4   0 88061.2 2527.25   1
   3   1  -3 69313.5 1942.92   1
   4  -3   3 68868.4 2375.65   1
   1   3  -3 64121.6 1826.78   1
   3  -4  -3 67636.9 2417.38   1
   1  -4  -3 63984.7 2346.90   2
  -1   4   3 62339.8 2318.44   1
  -4   1  -3 73455.2 2516.82   1
  -3   4   3 65611.9 2362.30   1
  -1  -3   3 65301.6 2175.77   2
  -3  -1   3 75098.3 2020.57   2
  -1  -3   3 65715.7 1791.47   1
   1  -4  -3 68122.5 2454.44   1
   3  -4  -3 71592.6 2303.36   2
  -4   3  -3 71513.2 2461.88   1
   4  -1   3 68183.4 2424.72   1
  -3  -1   3 75388.0 2026.82   1
  -3  -1   5 55673.6 1545.19   2
   1  -4  -5 52394.0 2192.84   2
  -1  -3   5 52298.2 1265.55   1
   3  -4  -5 49230.2 2162.82   1
  -3   4   5 56977.2 2305.44   1
   1  -4  -5 53654.3 2311.32   1
  -1   4   5 58645.0 2374.93   1
  -3  -1   5 57229.3 1554.78   1
   4  -1   5 60765.3 2335.49   1
   3   1  -5 63607.2 1647.25   1
   1   3  -5 55790.0 1331.92   1
  -1  -3   5 50172.5 1917.48   2
  -4   3  -5 53994.0 2209.59   1
   4  -3   5 57237.8 2232.73   1
  -4   1  -5 57448.3 2343.81   1
   3  -4  -5 52747.6 2045.05   2
   1  -4  -7 325772. 6493.79   1
   1  -4  -7 311905. 6209.66   2
  -4   1  -7 305079. 6292.10   1
  -4   3  -7 311520. 6114.30   1
   4  -3   7 308644. 6004.17   1
   1  -4  -8 11186.1 1109.33   2
  -1   4   8 10544.7 1076.82   1
   3  -4  -8 10886.3 942.501   2
   4  -1   8 11546.7 1093.40   1
  -4   3  -8 13870.8 1191.09   1
  -4   1  -8 12874.6 1226.13   1
   1  -4  -8 9688.69 1071.28   1
  -1  -3   8 11962.7 1002.68   2
   3  -4  -8 12529.3 1125.21   1
  -3   4   8 11273.7 1083.60   1
   4  -3   8 12113.6 1062.55   1
  -1   4  10 185058. 4982.42   1
   4  -1  10 173390. 4768.17   1
   3  -4 -10 177384. 4315.62   2
   1  -4 -10 157085. 4744.85   1
   1  -4 -10 178806. 4851.92   2
  -3   4  10 182595. 4798.33   1
   4  -3  10 182278. 4693.28   1
  -4   3 -10 186991. 4902.84   1
  -4   1 -10 186053. 5057.38   1
   3  -4 -10 166237. 4729.95   1
  -1   4  11 167453. 4988.77   1
   3  -4 -11 200614. 4754.34   2
   1  -4 -11 207138. 5572.48   1
   3  -4 -11 181267. 5128.16   1
   4  -1  11 223963. 5518.99   1
  -4   1 -11 212448. 5651.45   1
  -4   3 -11 198312. 5256.53   1
   4  -3  11 248684. 5650.94   1
  -3   4  11 188256. 5058.38   1
   1  -4 -11 211330. 5496.94   2
   4  -1  12 10511.7 1160.61   1
  -1   4  12 9677.55 1133.89   1
   4  -3  12 10709.8 1152.24   1
   1  -4 -12 9881.71 1207.02   1
   1  -4 -12 9711.64 1186.18   2
   3  -4 -12 9338.57 1150.87   1
  -4   1 -12 10147.9 1193.92   1
  -4   3 -12 10096.0 1154.11   1
  -3   4  12 8496.37 1031.12   1
   4  -1  13 10678.7 1224.04   1
   3  -4 -13 10408.9 1226.02   1
  -1   4  13 11549.0 1305.83   1
   4  -3  13 10291.3 1166.76   1
  -4   3 -13 10119.6 1171.44   1
  -4   1 -13 11191.5 1325.99   1
   1  -4 -13 12144.3 1393.79   1
   1  -4 -13 10097.4 1256.31   2
  -3   4  14 429215. 8612.39   1
  -4   1 -14 381660. 8578.82   1
   4  -1  14 417115. 8658.48   1
   3  -4 -14 382860. 8387.24   1
   1  -4 -14 375007. 8411.36   2
   1  -4 -14 402673. 8855.70   1
  -4   3 -14 394839. 8405.54   1
  -1   4  14 420299. 8757.67   1
   4  -1  15 43634.3 2689.04   1
  -1   4  15 40962.1 2617.49   1
  -4   1 -15 42295.4 2742.51   1
   1  -4 -15 47820.3 2850.19   1
   3  -4 -15 46543.5 2731.96   1
   1  -4 -16 88956.4 4129.47   1
  -4   1 -16 82809.8 3924.62   1
  -1   4  16 88999.1 3979.64   1
   1  -4 -17 114078. 4797.58   1
  -4   0   0 82561.9 2568.51   1
   4   0   0 70379.3 2452.75   1
   0  -4   0 76082.4 2617.22   2
   0   4   0 76661.4 2454.30   1
  -4   4   0 85060.5 2767.75   1
   4  -4   0 78376.1 2631.03   1
   0  -4   0 75428.6 2419.34   1
   4  -4   0 79733.4 2626.96   2
   0  -4  -4 191320. 4593.09   2
   4   0   4 220533. 4862.72   1
  -4   4   4 190819. 4513.10   1
   0  -4  -4 203537. 4722.65   1
   0   4  -4 175319. 3529.42   1
  -4   0  -4 193663. 4585.23   1
   0  -4   4 225401. 4647.34   2
   4  -4  -4 196855. 4635.58   1
   4  -4  -4 188454. 4058.05   2
   0  -4   4 197225. 3600.33   1
  -4   4  -4 197594. 4591.70   1
   0   4   4 204827. 4709.49   1
   4  -4   4 196577. 4423.60   1
   4   0  -4 193213. 3909.68   1
   4  -4  -5 135543. 3268.01   2
  -4   0  -5 129116. 3774.42   1
   0  -4  -5 123633. 3691.00   1
   4  -4   5 125183. 3448.88   1
   4   0   5 119652. 3594.50   1
   0  -4   5 124323. 3420.64   2
   4   0  -5 111893. 2822.81   1
   4  -4  -5 137917. 3788.33   1
  -4   4  -5 129223. 3565.93   1
   0   4   5 133322. 3774.60   1
  -4   4   5 130619. 3639.81   1
   0   4  -5 121363. 2601.91   1
   0  -4   5 133274. 2664.39   1
  -4   0   5 103417. 2711.01   1
   0  -4  -5 130935. 3725.22   2
   4   0   6 54528.8 2424.17   1
  -4   0  -6 51151.7 2425.62   1
  -4   4  -6 58694.7 2392.99   1
   0  -4  -6 53413.6 2479.52   1
   0   4  -6 56929.9 1572.86   1
   0  -4   6 51871.9 1447.47   1
  -4   0   6 50350.6 1757.42   1
   0  -4  -6 60482.7 2551.23   2
   4  -4   6 56988.2 2287.82   1
   4  -4  -6 64462.2 2556.60   1
  -4   4   6 57398.2 2401.42   1
   0  -4   6 66844.4 2466.47   2
   4  -4  -6 49472.4 1926.09   2
   4   0  -6 49247.5 1769.86   1
  -4   0   6 49871.6 1098.05   2
   0   4   6 58881.1 2527.20   1
  -4   4   7 5230.75 688.995   1
   0  -4  -7 6175.63 792.843   2
  -4   0  -7 5085.13 781.901   1
   4  -4   7 5807.48 732.629   1
   4   0   7 5628.75 766.432   1
   0  -4  -7 5819.37 834.012   1
   0  -4   7 5752.26 758.192   2
   4   0  -7 3990.90 471.165   1
  -4   0   7 5745.05 559.007   1
   4  -4  -7 6458.32 833.024   1
   0   4   7 6725.60 862.527   1
   0   4  -7 5596.02 427.624   1
  -4   4  -7 5565.19 747.588   1
   4  -4  -7 5171.63 625.955   2
   4  -4   8 4530.34 634.048   1
  -4   0   8 4197.74 441.148   1
   0  -4  -8 3467.16 658.498   1
   0  -4   8 3416.45 569.372   2
   4   0  -8 4643.00 495.591   1
  -4   4  -8 4308.83 647.448   1
   0  -4  -8 3137.52 621.781   2
   4   0   8 4515.51 678.327   1
   4  -4  -8 3958.12 671.082   1
  -4   0  -8 3281.08 635.641   1
   4  -4  -8 3995.24 521.387   2
   0   4   8 3851.77 729.309   1
  -4   4   8 3642.92 637.620   1
   4   0   9 77199.0 3085.05   1
   0  -4  -9 84951.9 3309.61   1
   4  -4   9 89467.5 3095.64   1
  -4   4  -9 79476.4 2978.03   1
   4  -4  -9 72437.5 2933.40   1
  -4   4   9 90400.9 3200.57   1
   0  -4  -9 78862.7 3261.36   2
   0   4   9 73906.8 3076.62   1
   0  -4   9 95009.1 3312.12   2
  -4   0  -9 84963.7 3342.19   1
   4  -4  -9 68915.0 2304.44   2
   4  -4  11 414462. 7651.91   1
   0   4  11 359472. 7853.26   1
   4   0  11 363904. 7915.75   1
  -4   4  11 403108. 7829.05   1
  -4   0 -11 409078. 8391.09   1
   0  -4 -11 467016. 8834.31   1
   0  -4 -11 436170. 8547.79   2
  -4   4 -12 108216. 3874.36   1
   4  -4  12 123468. 4032.85   1
   0   4  12 107147. 4060.65   1
  -4   0 -12 115343. 4291.88   1
   0  -4 -12 117161. 4322.51   1
   4  -4 -12 103603. 3873.25   1
   4   0  12 127601. 4308.71   1
  -4   4  12 121577. 4069.90   1
   0  -4 -12 129046. 4457.88   2
   4  -4 -13 237446. 6291.27   1
   0   4  13 307657. 7191.53   1
  -4   4  13 286026. 6665.03   1
  -4   0 -13 237049. 6519.44   1
   0  -4 -13 273538. 6915.84   1
   0  -4 -13 253878. 6710.15   2
   4   0  13 223812. 6260.44   1
   0  -4 -14 422502. 9357.49   2
   0  -4 -14 439019. 9433.73   1
   0   4  14 422476. 9137.03   1
  -4   0 -14 443947. 9436.93   1
   4  -4 -14 458290. 9236.73   1
   4   0  14 447784. 9336.69   1
  -4   0 -15 41000.6 2707.53   1
   4   0  15 45244.6 2786.17   1
  -4   0 -15 36810.4 2705.38   2
   0  -4 -15 36501.2 2617.12   2
   0  -4 -15 40996.0 2721.32   1
  -4   0 -16 2676.25 763.484   2
   0   4  16 2655.24 710.478   1
   4   0  16 3059.93 769.670   1
  -4   0 -16 3439.92 786.203   1
   0  -4 -16 3016.21 815.111   1
  -4   0 -17 7828.03 1267.49   1
   0   4  17 10963.0 1439.33   1
   0  -4 -17 9252.51 1385.04   1
   4   0  17 12363.1 1568.77   1
  -4   0 -17 9318.08 1400.20   2
   0  -4 -18 28945.1 2474.40   1
  -4   0 -18 23559.4 2255.04   2
  -4   0 -19 13956.7 1791.49   2
   3   2  18 115963. 5047.19   1
   2   3  18 119647. 5102.97   1
  -3  -2 -18 118714. 5043.62   1
  -2  -3 -18 115692. 5005.07   1
  -3  -2 -17 64360.8 3597.72   1
  -2  -3 -17 58530.8 3545.17   2
  -2  -3 -17 50268.8 3199.37   1
   2   3  17 49744.7 3218.79   1
   3   2  17 56791.9 3350.86   1
  -3  -2 -17 57260.8 3392.18   2
   2   3  16 41743.3 2802.38   1
   3   2  16 36697.0 2611.70   1
  -3  -2 -16 37985.5 2718.37   2
  -2  -3 -16 36620.3 2687.58   1
  -2  -3 -16 33566.4 2591.97   2
  -3  -2 -16 38331.6 2677.10   1
  -3  -2 -15 32355.4 2423.00   1
   2   3  15 33463.3 2427.42   1
  -2  -3 -15 29503.6 2386.09   2
  -3  -2 -15 32229.2 2448.66   2
   3   2  15 30209.9 2344.61   1
  -2  -3 -15 29564.3 2306.38   1
  -3  -2 -14 210251. 6333.61   2
  -2  -3 -14 222483. 6465.30   2
  -2  -3 -14 223670. 6482.04   1
   2   3  14 216534. 6287.63   1
   3   2  14 207485. 6157.92   1
  -3  -2 -14 208981. 6215.32   1
  -3  -2 -13 26234.4 2060.67   1
  -2  -3 -13 29541.9 2162.77   1
   2   3  13 26347.3 2005.72   1
  -3  -2 -13 29162.4 2195.98   2
   3   2  13 31651.4 2248.54   1
  -2  -3 -13 31008.3 2251.92   2
   3   2  12 8432.24 1128.66   1
  -2  -3 -12 8166.53 1126.62   1
  -3  -2 -12 7095.41 1064.31   1
   2   3  12 9081.49 1157.60   1
  -2  -3 -12 9620.10 1202.61   2
  -3  -2 -12 9053.30 1219.89   2
   2   3  11 197303. 5462.86   1
  -3  -2 -11 151199. 4941.30   1
  -5   3  11 174324. 4804.47   1
  -2  -3 -11 160723. 5113.52   1
  -3  -2 -11 186917. 5598.47   2
   5  -3 -11 215045. 5235.76   1
  -2  -3 -11 157508. 5013.13   2
   3   2  11 186383. 5349.03   1
  -5   3  10 235084. 5503.75   1
  -3  -2 -10 238374. 6239.33   1
  -2  -3 -10 286697. 6660.52   2
  -3  -2 -10 257208. 6571.67   2
  -3   5 -10 263907. 5452.68   1
   5  -3 -10 246614. 5703.34   1
   5  -2 -10 304022. 5808.20   1
   2   3  10 262344. 6343.55   1
  -2  -3 -10 216128. 5860.23   1
   3   2  10 230782. 6002.49   1
  -5   2  10 260030. 5439.70   1
   2   3   9 285425. 6579.41   1
   3   2   9 298522. 6655.80   1
  -2  -3  -9 270037. 6529.67   2
  -2  -3  -9 312550. 6828.99   1
  -5   3   9 296514. 6147.25   1
  -3  -2  -9 283907. 6750.83   1
   2  -5   9 304487. 6705.18   2
   5  -3  -9 298376. 6254.40   1
  -3  -2  -9 311424. 7047.91   2
  -3  -2  -8 64874.2 2975.79   2
   5  -2  -8 54168.6 2261.03   1
  -2  -3  -8 55211.5 2644.08   1
   3   2   8 63160.7 2778.56   1
  -3  -2  -8 54811.2 2733.84   1
  -5   2   8 71510.1 2567.35   1
   2  -5   8 51824.6 2544.10   2
  -3   5  -8 65077.5 2484.46   1
   5  -3  -8 60923.1 2514.37   1
   3  -5   8 62065.0 2835.12   2
   3  -5   8 60537.4 2319.77   1
  -5   3   8 51048.4 2307.16   1
  -2   5  -8 59899.1 2128.15   1
   2   3   8 64377.9 2856.62   1
   2  -5   8 57606.2 2040.06   1
  -2  -3  -8 54543.2 2664.40   2
  -2  -3  -7 210822. 5340.26   1
  -3   5  -7 220044. 4873.84   1
  -2  -3  -7 232111. 5593.87   2
   2  -5   7 231413. 5511.41   2
  -3  -2  -7 247455. 5823.83   1
   3  -5   7 263011. 5959.84   2
   3   2   7 232089. 5583.18   1
   5  -3  -7 227239. 5153.63   1
   5  -2  -7 258182. 5094.90   1
  -5   3   7 186044. 4759.11   1
   2   3   7 230387. 5565.87   1
  -3  -2  -7 243407. 5855.74   2
   3   2   5 293093. 6083.13   1
  -3  -2  -5 317829. 6433.02   2
  -3  -2  -5 297699. 6271.79   1
   2   3   5 296805. 6175.77   1
  -2  -3  -5 314066. 6269.49   1
  -5   2   5 259127. 5417.09   1
  -3   5  -5 276032. 5550.11   1
  -2  -3  -5 315887. 6391.35   2
   2  -5   4 183505. 4528.95   2
   2  -5   4 181411. 3978.73   1
  -5   3   4 155555. 4068.45   1
   5  -3  -4 206094. 4562.49   1
  -3  -2  -4 189019. 4715.39   2
   3  -5   4 189546. 4227.19   1
   3   2   4 183714. 4542.81   1
   3  -5   4 185188. 4655.26   2
  -2   5  -4 171835. 3957.24   1
  -3   5  -4 194145. 4389.20   1
  -3  -2  -4 189342. 4652.87   1
   2   3   4 171833. 4446.02   1
  -5   2   4 195539. 4395.49   1
  -2  -3  -4 199982. 4884.58   2
  -2  -3  -4 204386. 4704.32   1
   5  -2  -4 164383. 4095.53   1
  -3   5  -3 194741. 4393.64   1
   2   3   3 185856. 4516.33   1
  -3  -2  -3 176827. 4446.21   1
   5  -2  -3 156395. 4037.61   1
  -5   2   3 217102. 4630.91   1
   5  -3  -3 203801. 4539.40   1
  -3  -2  -3 212296. 4850.07   2
   2  -5   3 194308. 4238.35   1
   2  -5   3 203417. 4725.03   2
  -2  -3  -3 211450. 4898.64   2
   3  -5   3 220900. 4946.18   2
   3  -5   3 197421. 4373.97   1
   3   2   3 203704. 4699.14   1
  -2  -3  -3 202730. 4654.05   1
  -2   5  -3 190048. 4242.15   1
  -2  -3  -1 88215.2 2948.45   2
  -2   5  -1 91869.8 2857.32   1
  -3  -2  -1 104723. 3099.58   2
  -5   3   1 99873.3 3091.74   1
   2   3   1 94788.8 2893.41   1
  -2  -3  -1 100696. 2969.85   1
   3  -5   1 100889. 3192.75   2
   2  -5   1 99949.9 3172.79   2
  -3  -2  -1 91634.1 2900.79   1
  -5   2   1 106239. 3108.24   1
   5  -3  -1 81533.9 2771.56   1
  -3   5  -1 91853.2 2953.86   1
   3  -5   1 97766.5 3015.70   1
   2  -5   1 101835. 2989.83   1
   3   2   1 87554.2 2798.93   1
   5  -2  -1 89704.1 2893.19   1
  -2  -3   0 34815.7 1647.58   1
   5  -3   0 32260.5 1695.60   1
  -5   3   0 37442.9 1885.52   1
   5  -2   0 36820.7 1803.91   1
   3  -5   0 37393.3 1863.17   2
  -2   5   0 34452.8 1759.65   1
  -3  -2   0 36918.5 1765.36   2
   2  -5   0 36488.2 1862.32   2
   2  -5   0 35180.3 1766.28   1
   3  -5   0 35609.1 1817.03   1
  -3   5   0 34904.9 1772.45   1
   2   3   0 35011.7 1678.43   1
  -3  -2   0 42664.4 1839.96   1
   3   2   0 32911.2 1650.20   1
  -2  -3   0 36009.8 1768.54   2
  -5   2   0 43880.6 1961.94   1
   2   3  -1 208623. 4288.47   1
  -5   2  -1 183161. 4504.80   1
   3   2  -1 193673. 4203.19   1
  -2   5   1 208337. 4659.96   1
   2  -5  -1 219125. 4897.64   2
  -3   5   1 210688. 4703.53   1
   3  -5  -1 233589. 4952.16   2
  -2  -3   1 199255. 4474.69   2
   5  -2   1 205844. 4654.04   1
   2  -5  -1 217383. 4709.77   1
   3  -5  -1 224043. 4885.86   1
   5  -3   1 222292. 4820.95   1
  -3  -2   1 224333. 4534.43   2
   3  -5  -4 80575.2 2812.82   2
  -3   5   4 81081.0 2912.68   1
   2  -5  -4 83790.2 2958.48   1
  -5   3  -4 81291.2 2940.01   1
  -5   2  -4 82582.0 2945.49   1
   2  -5  -4 70664.8 2748.64   2
  -2   5   4 76357.8 2777.52   1
  -3  -2   4 70124.1 2251.14   2
  -3  -2   4 79044.2 2169.88   1
   2   3  -4 81163.3 2135.49   1
   5  -3   4 72708.6 2756.93   1
   3  -5  -4 77770.9 2849.28   1
   5  -2   4 77704.5 2873.77   1
   3   2  -4 66957.8 2027.21   1
  -2  -3   4 76695.3 2054.98   1
  -2  -3   4 85986.1 2614.26   2
  -5   2  -5 416626. 7634.86   1
   3  -5  -7 361243. 7130.74   1
   2  -5  -7 358307. 6991.90   2
   2  -5  -7 349444. 7107.79   1
   5  -2   7 365124. 7049.50   1
  -2  -3   8 60738.2 2233.85   2
   3  -5  -8 61199.6 2537.72   2
  -5   2  -8 54072.3 2626.42   1
   3  -5  -8 54672.5 2598.34   1
   5  -3   8 55026.2 2566.89   1
   2  -5  -8 60114.3 2705.57   1
   2  -5  -8 55660.8 2540.20   2
  -3   5   8 46117.4 2365.17   1
   5  -2   8 52281.1 2505.82   1
  -2   5   8 60675.8 2700.71   1
  -5   3  -8 57997.3 2637.19   1
   5  -3   9 67524.8 2858.52   1
   3  -5  -9 64368.3 2676.79   2
   2  -5  -9 61706.2 2905.89   1
  -2   5   9 65129.1 2867.70   1
  -5   2  -9 68253.6 3007.47   1
   3  -5  -9 61570.3 2844.30   1
   5  -2   9 63764.3 2845.00   1
   2  -5  -9 61993.7 2774.55   2
  -5   3  -9 67010.4 2905.75   1
  -5   3 -10 364026. 7715.43   1
   2  -5 -10 432485. 8326.78   1
  -3   5  10 395654. 7821.47   1
  -2   5  10 351771. 7510.99   1
  -5   2 -10 340345. 7617.27   1
   2  -5 -10 375796. 7578.21   2
   5  -2  10 361133. 7578.52   1
   5  -3  10 383944. 7589.30   1
   3  -5 -10 382887. 7394.21   2
   3  -5 -10 356306. 7631.96   1
   5  -2  11 32170.3 2110.16   1
  -5   3 -11 29129.6 2021.67   1
   5  -3  11 27338.9 1883.27   1
   3  -5 -11 33189.6 2183.54   1
  -2   5  11 34486.1 2181.86   1
  -3   5  11 23907.2 1846.22   1
   2  -5 -11 31010.7 2130.55   1
   3  -5 -11 29704.5 1907.85   2
   2  -5 -11 28422.7 1970.00   2
  -5   2 -11 30548.1 2104.82   1
  -2   5  12 47712.7 2637.46   1
   3  -5 -12 53706.2 2829.69   1
  -5   2 -12 46302.9 2676.02   1
   5  -2  12 53707.8 2746.51   1
   5  -3  12 51508.8 2686.85   1
   2  -5 -12 49630.7 2735.77   2
  -5   3 -12 54716.8 2882.72   1
   2  -5 -12 48796.6 2697.74   1
  -3   5  12 47312.6 2650.91   1
   3  -5 -13 116637. 4370.09   1
   5  -3  13 119690. 4267.54   1
  -3   5  13 111553. 4180.14   1
   2  -5 -13 106361. 4119.89   2
  -2   5  13 106675. 4163.02   1
  -5   2 -13 106801. 4214.82   1
   5  -2  13 113689. 4245.67   1
   2  -5 -13 109918. 4311.19   1
  -5   3 -13 109269. 4203.64   1
   2  -5 -14 138512. 5044.72   1
   5  -3  14 163861. 5197.09   1
   3  -5 -14 155550. 5214.49   1
  -5   2 -14 143475. 5141.79   1
  -5   3 -14 155859. 5200.77   1
  -2   5  14 138727. 4902.85   1
   5  -2  14 156665. 5191.56   1
   5  -2  15 87968.7 3952.43   1
  -2   5  15 87072.0 3945.18   1
   3  -5 -15 84365.1 3904.14   1
  -3   5  15 88053.8 3956.09   1
   2  -5 -15 84702.4 3978.26   1
  -5   2 -15 87490.0 4098.05   1
  -5   2 -16 10122.0 1391.42   1
  -2   5  16 9253.32 1264.43   1
   2  -5 -16 9919.29 1379.35   1
   3  -5 -16 9725.89 1340.05   1
   2  -5 -17 41879.2 2885.78   1
  -4  -1 -19 897.919 465.736   2
   1   4  18 1245.89 551.681   1
  -4  -1 -18 2513.85 771.439   1
  -4  -1 -18 2002.01 660.116   2
  -1  -4 -18 2753.04 793.797   1
  -1  -4 -17 1926.47 663.163   1
  -4  -1 -17 1290.73 513.677   2
  -4  -1 -17 1783.77 648.200   1
   4   1  17 1876.24 606.351   1
   1   4  17 1039.96 474.827   1
  -4  -1 -16 107277. 4609.06   1
   1   4  16 111078. 4662.69   1
  -1  -4 -16 104742. 4587.75   1
  -1  -4 -16 115164. 4867.56   2
   4   1  16 112599. 4759.97   1
  -4  -1 -16 108388. 4811.40   2
  -4  -1 -15 921.810 570.049   2
  -1  -4 -15 871.444 419.679   1
  -4  -1 -15 1472.14 592.572   1
  -1  -4 -15 1139.32 522.426   2
   4   1  15 1556.50 600.002   1
   1   4  15 595.637 361.425   1
   4   1  14 3343.43 780.199   1
  -4  -1 -14 5095.83 974.203   2
  -1  -4 -14 4371.14 929.637   2
  -4  -1 -14 4402.51 861.504   1
  -1  -4 -14 4245.93 886.546   1
   1   4  14 3944.47 856.008   1
   1   4  13 81.3018 286.496   1
   5  -4 -13-107.138 339.924   1
   4   1  13-26.3343 289.242   1
  -4  -1 -13 208.188 245.262   1
  -1  -4 -13 465.890 292.443   1
  -4  -1 -13 757.979 383.656   2
  -1  -4 -13 309.328 309.863   2
  -1  -4 -11 1342.83 475.110   1
  -4  -1 -11 755.517 411.059   2
  -5   4  11 1091.78 410.592   1
   5  -4 -11 1271.78 403.817   1
   1   4  11 908.889 394.222   1
  -1  -4 -11 751.511 442.382   2
   4  -5  11 720.304 238.912   1
   4   1  11 950.609 420.085   1
  -4  -1 -11 2696.99 685.845   1
  -4   5 -11 1309.58 439.621   1
   5  -4 -10 7969.95 1023.43   1
   4  -5  10 7764.53 913.064   1
  -1  -4 -10 7424.82 969.394   2
   1  -5  10 7029.50 957.823   2
   4   1  10 8202.96 1062.42   1
  -4  -1 -10 7367.80 1084.16   1
  -4   5 -10 8433.18 975.951   1
  -4  -1 -10 8996.90 1192.87   2
  -1  -4 -10 6595.23 922.706   1
  -5   4  10 9044.26 1016.49   1
   1   4  10 6674.48 971.425   1
  -4  -1  -9 7817.55 1067.32   1
   5  -1  -9 9487.28 880.486   1
   1   4   9 10160.8 1151.34   1
  -1  -4  -9 8778.68 1136.38   2
   4  -5   9 10951.2 1069.97   1
  -5   4   9 9345.69 1021.37   1
   4   1   9 8813.87 1088.44   1
   5  -4  -9 8600.82 1027.42   1
  -4  -1  -9 9272.79 1199.80   2
   1  -5   9 10181.2 1156.73   2
  -1  -4  -9 7712.44 1046.24   1
  -4   5  -9 10809.2 1081.38   1
   1   4   8 290771. 6590.05   1
  -4  -1  -8 308257. 6856.65   1
   5  -4  -8 299412. 6546.87   1
   4   1   8 308373. 6675.36   1
  -4  -1  -8 320306. 7208.08   2
  -4   5  -8 308573. 6304.52   1
   1  -5   8 267143. 6219.70   2
  -1  -4  -8 334853. 6988.55   1
  -1  -4  -8 270638. 6529.34   2
   1  -5   7 4331.19 684.198   2
   5  -4  -7 4610.48 554.420   2
  -1  -4  -7 4735.95 764.122   2
  -1   5  -7 5084.10 551.078   1
   1   4   7 4259.34 778.281   1
   5  -1  -7 5298.24 642.229   1
   5  -4  -7 4423.37 730.357   1
  -1  -4  -7 4914.43 839.185   1
   4  -5   7 4801.39 680.340   1
   1  -5   7 4736.12 513.306   1
   4   1   7 4716.15 772.792   1
  -4   5  -7 5880.65 761.013   1
  -5   1   7 5094.57 639.421   1
  -5   4   7 4484.61 678.694   1
  -4  -1  -7 4640.32 808.645   1
  -4  -1  -7 4209.41 781.822   2
   1   4   6 25928.6 1714.85   1
   4   1   6 21829.4 1566.63   1
  -4  -1  -6 21651.3 1588.56   1
  -4   5  -6 26734.0 1668.49   1
  -4  -1  -6 30430.5 1942.98   2
   4  -5   6 26860.1 1835.99   2
   1  -5   6 24252.9 1228.32   1
  -5   4   6 28830.0 1724.40   1
   5  -4  -6 27165.3 1375.29   2
   1  -5   6 28785.5 1762.61   2
  -1  -4  -6 29672.8 1875.78   2
  -1  -4  -6 25930.9 1776.08   1
  -1   5  -6 24097.7 1252.08   1
   5  -1  -6 16028.1 1161.84   1
  -5   1   6 33330.5 1632.49   1
   4  -5   6 24851.0 1547.37   1
  -5   1   5 35304.7 1721.36   1
  -5   1   5 31754.6 1151.59   2
  -1   5  -5 38046.8 1616.60   1
   5  -1  -5 42908.1 1884.79   1
  -4  -1  -5 44829.9 2330.76   2
   1  -5   5 39777.9 2042.50   2
  -5   4   5 37762.8 1990.73   1
  -4  -1  -5 34571.2 1986.06   1
   1  -5   5 43432.0 1719.35   1
   1   4   5 33860.1 1941.15   1
   4  -5   5 37448.2 1831.90   1
   5  -4  -5 32758.4 1853.21   1
   4  -5   5 32048.8 1992.83   2
   4   1   5 35660.2 1944.26   1
  -4   5  -5 37137.8 1962.13   1
   5  -4  -5 38111.8 1689.18   2
  -1  -4  -5 41118.2 2132.84   1
  -1  -4  -5 35293.3 1984.81   2
   1   4   3 4101.84 620.555   1
  -4  -1  -3 4251.34 666.940   2
   4  -5   3 4842.21 775.197   2
  -1   5  -3 5557.21 642.070   1
  -5   4   3 5598.83 735.647   1
   5  -4  -3 4536.88 647.257   1
  -4  -1  -3 4136.07 635.184   1
  -5   1   3 3590.61 566.408   1
   4   1   3 4417.41 652.420   1
   1  -5   3 4635.09 584.720   1
   5  -4  -3 5595.69 680.323   2
   1  -5   3 4809.38 704.822   2
   4  -5   3 5719.82 725.575   1
   5  -1  -3 4192.78 617.908   1
  -1  -4  -3 4753.05 630.135   2
  -1  -4  -3 5049.53 730.078   1
   1  -5   2 57615.3 2169.05   1
  -4  -1  -2 70936.7 2665.94   2
   1   4   2 60167.8 2420.23   1
  -4  -1  -2 64520.6 2532.88   1
  -1  -4  -2 62097.4 2530.23   2
  -1  -4  -2 59276.8 2392.01   1
   5  -4  -2 65970.4 2553.44   1
  -1   5  -2 60646.3 2222.88   1
  -4   5  -2 59400.5 2414.33   1
   4   1   2 51104.7 2241.83   1
   4  -5   2 66576.6 2484.48   1
  -5   1   2 46406.0 2064.89   1
  -5   4   2 63001.0 2522.20   1
   5  -1  -2 49278.0 2099.92   1
   4  -5   2 61223.9 2548.72   2
   1  -5   2 62759.3 2520.33   2
   5  -4  -2 64467.5 2400.18   2
   4   1   1 16.7409 143.482   1
   1  -5   1-46.4534 123.199   1
   5  -1  -1 668.227 288.201   1
  -1  -4  -1 165.742 237.550   2
  -4   5  -1 52.8429 198.331   1
  -1  -4  -1 91.0045 203.579   1
   1   4   1 350.197 261.671   1
   5  -4  -1 59.1898 196.296   2
  -5   1   1 142.328 189.610   1
  -5   4   1 45.1600 292.384   1
   4  -5   1 222.284 197.597   2
  -4  -1  -1-9.03856 159.161   1
   1  -5   1 255.693 304.464   2
  -4  -1  -1 62.8316 151.892   2
   5  -4  -1 309.578 215.726   1
   4  -5   1 445.016 308.624   1
  -1   5  -1 48.1676 128.678   1
  -1   5   1 17636.7 1269.62   1
  -1  -4   1 16877.9 1127.07   1
   5  -4   1 17206.1 1281.06   1
  -1  -4   1 17620.8 1282.39   2
   1  -5  -1 16148.4 1225.34   1
  -5   1  -1 16673.6 1238.99   1
   4  -5  -1 16703.0 1256.99   2
   1  -5  -1 18246.8 1326.57   2
  -4   5   1 20357.8 1390.36   1
   1   4  -1 18030.8 1216.32   1
  -4  -1   1 20994.5 1297.87   1
   5  -1   1 16437.9 1234.71   1
  -4  -1   1 17800.3 1164.55   2
   4  -5  -1 17791.8 1345.28   1
  -5   4  -1 18730.0 1363.01   1
   4   1  -1 18098.6 1224.58   1
   5  -1   2 143501. 3944.79   1
  -4  -1   2 169306. 3657.56   2
   1   4  -2 141645. 3400.25   1
  -1  -4   2 145271. 3442.44   1
   4  -5  -2 135361. 3715.86   2
   5  -4   2 138482. 3741.17   1
  -4  -1   2 123973. 3286.53   1
   4   1  -2 129593. 3396.46   1
  -5   1  -2 145010. 3933.30   1
  -1  -4   2 133777. 3664.29   2
  -5   4  -2 143605. 3985.41   1
   1  -5  -2 138498. 3847.50   1
   1  -5  -2 152368. 4077.38   2
   4  -5  -2 142955. 3978.87   1
  -1   5   2 131927. 3712.79   1
  -4   5   2 122049. 3651.15   1
   1  -5  -3 10732.6 1064.74   2
  -4  -1   3 9671.67 851.840   1
   5  -1   3 10723.0 1055.30   1
  -4  -1   3 10109.3 822.000   2
  -1  -4   3 10423.0 830.099   1
  -1   5   3 10887.1 1013.73   1
  -5   4  -3 10310.5 1014.01   1
   1  -5  -3 11128.5 1077.12   1
   5  -4   3 10864.4 1034.03   1
   4  -5  -3 11219.2 1030.51   2
   1   4  -3 10286.8 811.822   1
  -5   1  -3 9200.17 964.476   1
  -1  -4   3 10103.8 967.224   2
  -4   5   3 11989.8 1073.49   1
   4  -5  -3 11351.6 1039.36   1
   4   1  -3 10829.4 896.087   1
   1   4  -5 7269.69 617.592   1
   4  -5  -5 7522.94 845.430   2
   5  -4   5 8095.98 895.594   1
  -1  -4   5 7767.12 624.565   1
   4   1  -5 6281.91 632.726   1
  -1   5   5 8876.28 991.227   1
  -5   4  -5 9568.89 992.806   1
  -4  -1   5 8619.22 682.050   2
   1  -5  -5 7988.02 984.760   1
   4  -5  -5 8353.24 965.222   1
   5  -1   5 7922.16 894.411   1
  -4  -1   5 6985.15 654.237   1
  -1  -4   5 8588.78 883.212   2
  -5   1  -5 8737.08 946.139   1
  -4   5   5 8632.96 951.475   1
   1  -5  -5 8431.65 921.768   2
   4  -5  -6 33342.7 1966.63   1
  -5   1  -6 33158.3 1956.32   1
   1   4  -6 37684.0 1237.66   1
  -4  -1   6 30217.4 1207.72   2
   4   1  -6 34740.3 1403.02   1
  -4   5   6 35192.5 1937.43   1
  -5   4  -6 32782.7 1930.83   1
  -4  -1   6 40173.9 1504.75   1
  -1  -4   6 32715.1 1740.01   2
  -1   5   6 34202.6 1948.31   1
   1  -5  -6 30370.8 1879.71   2
   1  -5  -6 36953.3 2073.52   1
   5  -1   6 33654.6 1946.51   1
   5  -4   6 37854.7 1995.32   1
  -1  -4   6 29599.4 1083.51   1
   4  -5  -6 31160.4 1707.01   2
  -1   5   7 36395.3 2115.56   1
   4  -5  -7 32097.7 1972.46   1
   1  -5  -7 40097.4 2257.07   1
  -5   1  -7 38966.4 2163.53   1
   5  -4   7 36374.4 2004.07   1
  -5   4  -7 34622.9 2034.12   1
   5  -1   7 35332.2 2052.51   1
   1  -5  -7 36467.0 2082.87   2
  -1  -4   7 36363.2 1922.60   2
   4  -5  -7 38466.6 1905.71   2
  -4   5   7 35009.7 2021.20   1
   4  -5  -8 343298. 7170.21   1
   5  -1   8 350331. 7293.91   1
   1  -5  -8 346183. 7305.97   2
   1  -5  -8 354617. 7406.16   1
  -5   1  -8 358410. 7380.14   1
   4  -5  -9 3398.19 685.127   1
  -1  -4   9 4673.66 706.396   2
   5  -1   9 3891.40 735.978   1
   1  -5  -9 3672.58 718.896   1
   4  -5  -9 3769.51 621.872   2
  -5   4  -9 3986.94 722.153   1
  -4   5   9 5426.73 789.667   1
   5  -4   9 6222.86 858.680   1
   1  -5  -9 3839.99 734.167   2
  -5   1  -9 4383.22 847.627   1
  -1   5   9 4928.42 825.326   1
   1  -5 -10 12436.0 1325.68   1
  -5   1 -10 13524.0 1351.70   1
  -5   4 -10 13512.7 1319.01   1
   4  -5 -10 16539.1 1319.06   2
  -4   5  10 13117.4 1316.06   1
   5  -4  10 15911.1 1421.96   1
   1  -5 -10 12713.6 1344.32   2
  -1  -4  10 12427.1 1168.85   2
   5  -1  10 13841.1 1359.51   1
  -1   5  10 13673.8 1327.18   1
   4  -5 -10 11670.5 1279.73   1
  -4   5  11 3770.72 743.739   1
  -5   4 -11 4503.35 809.354   1
   5  -1  11 4024.75 796.952   1
   5  -4  11 5096.41 810.782   1
   1  -5 -11 4990.15 874.027   2
   1  -5 -11 4039.77 728.016   1
  -5   1 -11 3604.50 768.221   1
   4  -5 -11 3926.23 758.722   1
  -1   5  11 3666.22 720.075   1
   5  -4  13-295.842 368.990   1
   5  -1  13 538.078 338.716   1
   1  -5 -13 165.013 277.131   2
   4  -5 -13 613.398 405.009   1
  -4   5  13-157.205 237.983   1
   1  -5 -13 562.496 346.612   1
  -5   4 -13 169.749 355.683   1
  -1   5  13-11.8806 216.789   1
  -5   1 -13-346.883 286.809   1
  -4   5  14 10109.2 1298.50   1
   1  -5 -14 13027.2 1462.65   1
   1  -5 -14 10347.9 1356.82   2
  -1   5  14 13498.9 1473.12   1
  -5   1 -14 11184.4 1440.45   1
   4  -5 -14 9888.50 1286.28   1
   5  -1  14 12887.9 1460.75   1
   1  -5 -15 390.597 260.829   1
   4  -5 -15 758.216 389.081   1
   5  -1  15 550.119 309.185   1
  -4   5  15 239.137 259.384   1
  -5   1 -15 753.307 513.851   1
  -1   5  15 670.205 427.104   1
  -1   5  16 188852. 6088.09   1
   5  -1  16 191642. 6204.76   1
  -5   1 -16 176849. 6062.35   1
   1  -5 -16 194891. 6386.37   1
  -1   5  17 626.586 346.979   1
   1  -5 -17 759.130 311.613   1
  -5   1 -17 768.818 394.583   1
   1  -5 -18 11293.8 1561.76   1
  -5   1 -18 5121.13 1119.33   2
  -5   1 -19 599.617 357.017   2
   5  -5   0 241160. 5347.58   1
   5  -5   0 245305. 5416.54   2
  -5   0   0 228818. 5146.83   2
   0   5   0 228694. 5012.01   1
   5   0   0 231553. 5054.39   1
  -5   0   0 227036. 5074.17   1
   0  -5   0 223644. 5226.58   2
  -5   5   0 218548. 5168.67   1
   0  -5   0 243104. 5127.37   1
  -5   5   3 338240. 6787.79   1
  -5   0  -3 360047. 6976.72   1
   0  -5   4 14793.3 1213.82   2
   5   0  -4 16455.9 1145.23   1
   0   5  -4 12185.5 916.681   1
   0  -5   4 15532.2 1064.31   1
   5   0   4 18204.8 1384.48   1
  -5   0  -4 16469.1 1381.72   1
   0  -5  -4 15750.8 1340.65   1
   5  -5  -4 17594.4 1286.97   2
   5  -5   4 16084.3 1266.78   1
   0  -5  -4 15709.0 1338.84   2
  -5   5  -4 14915.5 1311.77   1
   5  -5  -4 14506.3 1310.55   1
  -5   0   4 14701.2 1091.89   1
  -5   0   4 14324.4 943.095   2
   0   5   4 15691.4 1324.08   1
  -5   5   4 13959.8 1250.18   1
   0   5  -5 22879.6 1224.65   1
  -5   5  -5 25906.6 1678.51   1
   0  -5   5 21593.9 1186.42   1
   5  -5  -5 28160.4 1604.64   2
   0  -5   5 19768.9 1436.52   2
   0  -5  -5 24099.7 1710.12   2
   5   0   5 26320.3 1748.51   1
   0  -5  -5 24268.6 1681.91   1
  -5   5   5 19054.4 1449.68   1
  -5   0  -5 22874.4 1659.37   1
   5   0  -5 27618.8 1514.63   1
  -5   0   5 19499.5 1263.13   1
   0   5   5 23891.0 1666.46   1
   5  -5   5 23673.5 1616.77   1
   5  -5  -5 26837.9 1766.68   1
  -5   0   5 18018.9 1005.06   2
   0  -5  -6 2128.52 519.092   1
   5   0   6 1484.00 466.926   1
   5  -5   6 1644.38 420.316   1
  -5   5  -6 1782.64 431.897   1
   0   5  -6 1974.59 331.564   1
  -5   5   6 1800.75 465.765   1
  -5   0   6 1666.86 345.311   1
   0   5   6 1598.48 483.408   1
   5  -5  -6 2027.74 424.990   2
   5  -5  -6 1944.55 508.132   1
   0  -5   6 2857.40 565.937   2
   0  -5   6 2437.42 382.327   1
   5   0  -6 1479.20 369.856   1
  -5   0  -6 2058.35 506.355   1
   0  -5  -6 2839.97 617.506   2
   5  -5  -7 1123.24 303.913   2
   5  -5  -7 1397.96 471.710   1
  -5   5   7 1331.73 408.036   1
  -5   0  -7 1036.75 384.408   1
   0   5   7 1242.87 420.422   1
   0  -5   7 1711.71 428.160   2
   5   0  -7 1452.55 352.846   1
   0  -5  -7 991.434 354.937   1
   5   0   7 529.693 316.403   1
  -5   0   7 919.630 295.381   1
  -5   5  -7 1272.91 436.158   1
   5  -5   7 1070.10 350.917   1
   0  -5  -7 941.709 449.032   2
  -5   5  -8 3896.96 733.233   1
   5  -5  -8 4454.05 803.729   1
   5  -5  -8 4191.04 641.157   2
   0  -5   8 4228.97 689.281   2
  -5   0  -8 4136.33 763.549   1
   0  -5  -8 4016.68 736.514   1
   5   0   8 4014.20 745.518   1
   0   5   8 3746.53 713.169   1
   5  -5   8 3164.20 634.109   1
   0  -5  -8 4029.75 701.206   2
  -5   5   8 4387.82 704.529   1
   5   0   9 121762. 4138.51   1
   0  -5   9 114479. 3918.42   2
   0  -5  -9 113023. 4061.83   2
  -5   0  -9 109524. 4023.93   1
  -5   5   9 120376. 4086.49   1
   0  -5  -9 107348. 4019.30   1
   0   5   9 110061. 3965.56   1
   5  -5  -9 118220. 4103.93   1
  -5   5  -9 114126. 3947.60   1
   5  -5   9 119981. 3884.49   1
   0  -5 -10 643691. 11320.3   1
   5   0  11 322293. 7498.28   1
   5  -5  11 318952. 7098.54   1
  -5   0 -11 315268. 7699.09   1
   0  -5 -11 326014. 7645.94   2
   0   5  11 357033. 7828.75   1
   0  -5  11 302727. 7243.77   2
   5  -5 -11 305635. 7311.68   1
  -5   5 -11 347655. 7453.93   1
  -5   5  11 322421. 7298.40   1
   0  -5 -11 349960. 7860.54   1
  -5   5 -12 120576. 4257.92   1
  -5   0 -12 104778. 4266.77   1
   5  -5  12 118692. 4140.93   1
  -5   5  12 127420. 4418.49   1
   0  -5 -12 122934. 4502.95   1
   5  -5 -12 119096. 4431.58   1
   5   0  12 117184. 4385.38   1
   0  -5 -12 119879. 4535.54   2
   5  -5 -13 167392. 5536.80   1
   0  -5 -13 201118. 6103.17   2
   0  -5 -13 224152. 6373.84   1
  -5   0 -13 179901. 5797.48   1
   0   5  13 197085. 5953.30   1
   5   0  13 197514. 5856.74   1
  -5   5  13 215644. 6054.64   1
  -5   0 -14 346927. 8832.68   2
   0  -5 -14 382716. 8923.53   1
   5   0  14 375189. 8755.49   1
   0  -5 -14 396356. 9074.67   2
   5  -5 -14 372927. 8654.05   1
  -5   0 -14 361790. 8762.96   1
  -5   0 -15 44988.5 3022.00   2
   0  -5 -15 38540.8 2724.25   1
  -5   0 -15 44398.5 2911.57   1
   0   5  15 52480.3 3117.48   1
   5   0  15 46887.3 2945.73   1
   0  -5 -15 41267.9 2930.30   2
  -5   0 -16 4564.68 1053.01   2
   0  -5 -16 5032.05 990.932   1
   5   0  16 4998.84 949.284   1
   0   5  16 4476.81 946.491   1
  -5   0 -16 3354.31 825.292   1
   0   5  17 9800.88 1399.88   1
  -5   0 -17 7319.23 1246.57   2
   0  -5 -17 8254.48 1295.94   1
  -5   0 -17 8853.29 1351.74   1
   5   0  17 9104.48 1308.77   1
   0   5  18 8690.58 1358.45   1
  -5   0 -18 9271.84 1370.46   1
   0  -5 -18 9392.21 1397.79   1
  -5   0 -18 8089.99 1340.67   2
  -5   0 -19 5519.40 1132.59   2
  -3  -3 -19 279.960 321.110   1
  -3  -3 -18 3611.26 949.823   2
   3   3  18 3599.32 878.881   1
  -3  -3 -18 4794.15 1040.65   1
   3   3  17 152.500 299.539   1
  -3  -3 -17-72.5073 302.169   2
  -3  -3 -17 276.331 419.873   1
  -3  -3 -16 280063. 7877.21   2
  -3  -3 -16 299715. 8002.69   1
   3   3  16 287892. 7865.82   1
  -3  -3 -15-75.0633 401.553   1
   3   3  15-47.6936 221.837   1
  -3  -3 -15 240.789 365.020   2
  -3  -3 -14 211570. 6442.67   2
  -3  -3 -14 216327. 6491.34   1
   3   3  14 212267. 6382.52   1
   3   3  13 298.645 332.022   1
  -3  -3 -13 5.53706 227.691   2
  -3  -3 -13 140.729 259.801   1
   3   3  12 208996. 6150.47   1
  -3  -3 -12 217609. 6209.33   1
   3   3  11 143.695 288.902   1
  -3  -3 -11 189.311 306.650   1
  -3  -3 -11 724.637 439.337   2
  -3  -3 -10 569415. 10353.3   2
  -3  -3 -10 502228. 9792.85   1
  -6   3   9 277.442 291.744   1
   3  -6   9-71.5329 251.043   2
   6  -3  -9-135.601 258.521   1
  -3  -3  -9 77.4011 265.727   1
   3   3   9 433.102 294.681   1
  -3  -3  -9 123.306 295.840   2
  -3  -3  -8 789518. 12649.9   1
  -3  -3  -7 435.682 385.740   2
   6  -3  -7 114.826 229.215   1
   3  -6   7-108.156 266.749   2
  -3   6  -7-60.8131 130.469   1
   3   3   7 221.770 240.227   1
  -3  -3  -7 224.296 286.280   1
   3  -6   7 213.561 237.331   1
  -6   3   7 85.4984 211.473   1
  -3  -3  -6 112102. 3850.21   1
   6  -3  -6 105920. 3469.18   1
   3  -6   6 120280. 3440.67   1
  -3   6  -6 111033. 3416.05   1
  -6   3   6 109366. 3561.32   1
   3  -6   6 124332. 4018.49   2
   3   3   6 97875.0 3611.84   1
  -3  -3  -6 105607. 3786.26   2
  -3   6  -5 37.2457 123.712   1
   3  -6   5 34.6737 185.219   1
  -6   3   5-84.2244 205.803   1
  -3  -3  -5 383.281 379.918   1
   6  -3  -5-57.2784 193.335   1
   3   3   5-151.374 291.038   1
  -3  -3  -5-104.827 236.421   2
  -3  -3  -3 405.149 263.125   2
  -6   3   3-17.4164 135.640   1
   6  -3  -3 24.2011 213.512   1
  -3  -3  -3 372.103 268.112   1
   3   3   3 25.2099 255.427   1
  -3   6  -3 216.662 248.397   1
   3  -6   3 26.6283 267.175   2
   3  -6   2 292376. 5901.40   1
   6  -3  -2 252528. 5643.48   1
  -3  -3  -2 256926. 5833.97   2
  -3   6  -2 249077. 5550.94   1
   3  -6   2 285424. 6137.40   2
   3   3   2 263895. 5737.31   1
  -3  -3  -2 286960. 5953.80   1
   6  -3  -1 444.867 316.264   1
   3   3   1-97.8497 167.902   1
  -3  -3  -1-38.0915 226.397   2
  -3  -3  -1-92.3404 228.007   1
   3  -6   1-16.2886 170.270   1
  -3   6  -1 62.3526 192.980   1
   3  -6   1-207.003 231.693   2
  -6   3   1 346.363 280.319   1
   6  -3   0 153561. 4272.21   1
   3  -6   0 160575. 4264.03   1
  -3  -3   0 155050. 4057.83   1
  -3   6   0 159600. 4272.57   1
   3  -6   0 157717. 4383.21   2
   3   3   0 152498. 4061.03   1
   3   3  -1-140.007 232.665   1
   3  -6  -1 239.097 214.459   1
  -3   6   1 294.122 268.617   1
  -6   3  -1 439.056 347.830   1
  -3  -3   1-129.708 227.390   1
   6  -3   1-34.3863 140.414   1
  -3  -3   1 3.83757 195.960   2
   3  -6  -1-169.383 304.961   2
   3  -6  -2 351224. 6700.92   2
  -6   3  -2 265464. 6084.35   1
   6  -3   3 169.796 255.012   1
   3  -6  -3-42.7111 169.188   1
  -3   6   3 137.118 218.157   1
   3  -6  -3 159.115 230.186   2
  -3  -3   3 150.182 130.128   2
  -3  -3   3 60.3711 210.569   1
   3   3  -3 129.625 150.147   1
  -6   3  -3 305.560 343.620   1
  -3  -3   5 156.547 172.131   2
  -6   3  -5 135.569 221.475   1
  -3  -3   5 74.0416 115.592   1
   3   3  -5 270.763 147.164   1
   3  -6  -5 214.930 173.977   2
   6  -3   5-129.384 228.557   1
   3  -6  -5 178.009 286.175   1
  -3   6   5 174.257 275.893   1
  -3   6   6 92103.8 3437.67   1
   6  -3   6 91767.3 3413.72   1
  -6   3  -6 91831.5 3426.73   1
   3  -6  -6 93101.0 3420.40   2
  -3  -3   6 93921.8 2966.71   2
   3  -6  -6 80620.0 3294.38   1
  -3  -3   7-48.4192 147.138   2
   6  -3   7-13.3140 273.166   1
   3  -6  -7 151.877 201.147   1
  -6   3  -7-147.273 213.849   1
   3  -6  -7 230.562 212.912   2
   3  -6  -9 349.874 320.868   1
   6  -3   9-211.171 231.480   1
  -6   3  -9 72.1831 154.952   1
  -3   6   9-22.5701 175.140   1
   3  -6  -9 117.325 194.445   2
   3  -6 -10 393139. 8082.98   2
   6  -3  10 379854. 8067.95   1
  -3   6  10 401032. 8357.82   1
  -6   3 -10 376126. 8237.75   1
   3  -6 -11 426.442 389.058   2
   3  -6 -11 110.506 218.744   1
   6  -3  11 630.674 429.267   1
  -3   6  11-82.9412 221.842   1
  -6   3 -11-172.243 168.645   1
   3  -6 -12 341778. 7674.68   2
  -6   3 -12 319559. 7901.99   1
   6  -3  12 318598. 7616.88   1
  -6   3 -13 342.173 334.442   1
   3  -6 -13 305.015 402.838   1
  -3   6  13-206.882 293.807   1
   6  -3  13-234.887 260.504   1
   6  -3  14 138349. 4995.70   1
  -6   3 -14 125689. 4879.57   1
   3  -6 -14 132578. 5007.71   1
   3  -6 -15 359.880 282.016   1
  -6   3 -15-112.039 267.262   1
  -3   6  15 535.599 365.959   1
   6  -3  15-40.9760 291.402   1
  -3   6  16 165390. 5763.69   1
   3  -6 -16 165654. 5851.24   1
   3  -6 -17-91.9566 168.755   1
  -4  -2 -19 56232.5 3613.74   1
  -4  -2 -19 46524.5 3288.33   2
  -2  -4 -19 56924.9 3592.58   1
  -2  -4 -18 82070.9 4226.31   1
  -4  -2 -18 72806.3 4035.42   1
  -4  -2 -18 81820.6 4212.65   2
   4   2  18 77820.2 4176.29   1
   2   4  18 89428.5 4469.66   1
  -2  -4 -17 10734.5 1565.24   2
  -2  -4 -17 14323.7 1640.30   1
   2   4  17 13402.9 1663.01   1
   4   2  17 13085.1 1634.83   1
  -4  -2 -17 13100.9 1637.47   2
  -4  -2 -17 12336.1 1603.74   1
  -4  -2 -16 54224.9 3297.11   2
  -4  -2 -16 62498.7 3514.77   1
  -2  -4 -16 63307.3 3547.31   1
   2   4  16 54005.3 3293.47   1
  -2  -4 -16 56691.5 3440.82   2
   4   2  16 56678.0 3352.53   1
  -2  -4 -15 15734.5 1732.26   1
   4   2  15 15451.1 1689.03   1
  -4  -2 -15 15440.7 1722.13   2
  -4  -2 -15 19685.8 1883.90   1
   2   4  15 18929.8 1894.10   1
  -2  -4 -15 17631.4 1889.67   2
   4   2  14 184747. 5964.78   1
  -2  -4 -14 195743. 6200.03   1
  -2  -4 -14 193255. 6256.07   2
  -4  -2 -14 197210. 6088.95   1
  -4  -2 -14 201930. 6353.81   2
  -4  -2 -13 50860.2 3035.61   2
  -4  -2 -13 50383.6 2943.69   1
  -2  -4 -13 59661.0 3234.81   1
   2   4  13 57037.6 3109.42   1
   4   2  13 44989.5 2789.35   1
  -2  -4 -13 47074.3 2983.74   2
   4   2  12 26000.3 2070.93   1
  -2  -4 -12 26205.9 2108.47   2
  -2  -4 -12 29783.5 2184.44   1
   6  -4 -12 31002.7 2101.81   1
  -4  -2 -12 27202.8 2178.39   2
   2   4  12 26867.4 2084.77   1
  -4  -2 -12 26555.9 2092.68   1
   2   4  11 111320. 4198.32   1
  -2  -4 -11 102841. 4179.13   2
  -2  -4 -11 98600.7 4025.76   1
  -4  -2 -11 110008. 4254.53   1
  -6   4  11 105734. 3880.52   1
  -4  -2 -11 111127. 4398.40   2
   4   2  11 97320.5 3928.01   1
  -4  -2 -10 272395. 6844.38   1
   4   2  10 267858. 6693.03   1
  -4   6 -10 288383. 6373.43   1
   2  -6  10 226332. 6372.25   2
  -4  -2 -10 270221. 6939.18   2
  -2  -4 -10 297655. 7122.78   1
  -2  -4 -10 244678. 6680.82   2
   6  -4 -10 286153. 6610.84   1
   2   4  10 265696. 6691.69   1
  -2  -4  -9 259363. 6640.38   2
  -4  -2  -9 239089. 6381.36   1
  -4  -2  -9 252233. 6622.50   2
  -4   6  -9 281418. 6163.71   1
  -6   4   9 245424. 6033.10   1
  -2  -4  -9 244645. 6406.00   1
   2  -6   9 242981. 6433.68   2
   2   4   9 260746. 6517.62   1
   6  -4  -9 280068. 6362.84   1
   4   2   9 258743. 6501.94   1
   4  -6   9 267801. 5891.91   1
   4  -6   8 17496.4 1373.28   1
  -2  -4  -8 15895.4 1477.29   1
  -2  -4  -8 15445.2 1514.67   2
  -4  -2  -8 19372.7 1677.17   1
   6  -2  -8 16541.8 1315.75   1
   6  -4  -8 18434.8 1511.32   1
   2  -6   8 13122.2 1361.75   2
  -6   4   8 23487.2 1676.72   1
  -4   6  -8 17826.0 1399.50   1
  -6   2   8 19189.4 1418.52   1
   2   4   8 17720.3 1542.81   1
   4  -6   8 17054.1 1571.61   2
  -4  -2  -8 22181.2 1738.57   2
   4   2   8 13710.1 1398.18   1
  -4  -2  -7 219924. 5799.69   2
   6  -2  -7 185936. 4708.80   1
   2  -6   7 211608. 5461.82   2
   4   2   7 208753. 5409.91   1
   4  -6   7 240749. 5337.38   1
  -4   6  -7 205030. 5104.80   1
   2  -6   7 239808. 4715.77   1
   2   4   7 195149. 5350.88   1
  -2  -4  -7 206228. 5509.02   1
  -2  -4  -7 207155. 5584.10   2
   4  -6   7 216149. 5722.12   2
  -4  -2  -7 232250. 5815.20   1
  -6   2   7 159756. 4462.38   1
   6  -4  -7 194229. 5162.70   1
  -6   4   7 174090. 4861.01   1
  -4  -2  -6 505967. 9140.16   2
  -2  -4  -6 468639. 8974.06   2
  -2  -4  -5 166651. 4686.61   1
   4  -6   5 177779. 4989.82   2
   6  -2  -5 180084. 4523.11   1
  -4   6  -5 163924. 4425.85   1
   2  -6   5 170724. 4128.11   1
   6  -4  -5 138252. 4139.36   1
  -6   2   5 201515. 4709.35   1
  -4  -2  -5 144853. 4463.45   1
  -2  -4  -5 159678. 4723.94   2
  -2   6  -5 170555. 4182.35   1
   2   4   5 172420. 4763.75   1
   2  -6   5 168161. 4703.66   2
  -4  -2  -5 157670. 4727.01   2
   4  -6   5 143218. 4047.94   1
   4   2   5 174289. 4745.13   1
  -6   4   5 219616. 5159.07   1
   6  -4  -4 486523. 8538.65   1
  -4  -2  -4 462946. 8699.00   1
   4   2   3 297923. 6404.69   1
  -6   2   3 313299. 6384.79   1
  -2  -4  -3 320332. 6772.56   2
   2  -6   3 322681. 6258.05   1
   6  -4  -3 327811. 6577.51   1
  -2  -4  -3 341687. 6732.02   1
   4  -6   3 329843. 6465.82   1
   4  -6   3 334699. 6891.20   2
   2   4   3 316748. 6597.72   1
  -6   4   3 355613. 6775.25   1
  -4  -2  -3 274489. 6277.94   1
  -4   6  -3 339107. 6679.88   1
  -4  -2  -3 379977. 7113.77   2
  -4  -2  -1 63537.3 2551.05   2
  -4   6  -1 53535.3 2383.79   1
   4  -6   1 54531.5 2484.71   1
  -4  -2  -1 61025.8 2531.84   1
   2  -6   1 55016.5 2544.45   2
   4   2   1 59584.7 2471.17   1
  -6   4   1 49981.5 2404.86   1
  -2  -4  -1 49107.7 2255.46   1
  -2  -4  -1 53330.0 2449.71   2
   6  -4  -1 50301.5 2372.24   1
  -2   6  -1 55520.1 2378.55   1
  -6   2   1 48408.5 2273.16   1
   4  -6   1 56317.4 2546.12   2
   6  -2  -1 46023.7 2251.52   1
   2   4   1 45486.0 2235.11   1
   2  -6   1 54254.3 2365.50   1
  -6   2   0 2231.26 494.717   1
  -2  -4   0 2070.76 510.979   2
  -4  -2   0 2099.35 457.092   2
  -6   4   0 2049.10 470.523   1
  -2  -4   0 1968.80 430.103   1
   2  -6   0 2281.60 489.646   1
  -4  -2   0 1617.21 400.655   1
  -4   6   0 1490.88 438.486   1
   4  -6   0 2344.23 552.210   2
   6  -2   0 1816.82 468.856   1
   2  -6   0 2348.52 487.755   2
  -2   6   0 2185.82 508.834   1
   6  -4   0 1964.97 473.587   1
   2   4   0 1749.60 442.276   1
   4  -6   0 1609.27 436.404   1
   4   2   0 1903.16 468.338   1
   4  -6  -1 23994.3 1672.25   2
   2  -6  -1 22392.5 1541.13   1
  -2  -4   1 26325.4 1540.92   1
   6  -2   1 25181.0 1677.59   1
  -4  -2   1 31317.2 1706.74   2
  -4   6   1 24333.4 1628.11   1
  -2   6   1 24941.9 1622.39   1
  -6   2  -1 24868.0 1649.94   1
   2  -6  -1 23737.4 1676.80   2
   6  -4   1 19904.9 1473.78   1
  -6   4  -1 21991.4 1596.29   1
  -4  -2   1 29070.0 1642.35   1
   4  -6  -1 25817.6 1709.79   1
   4   2  -1 26208.9 1552.30   1
  -2  -4   1 25950.3 1617.34   2
   2   4  -1 24166.8 1482.51   1
   2   4  -4 2515.70 442.946   1
   4  -6  -4 867.348 403.691   2
   2  -6  -4 946.551 387.803   2
   4  -6  -4 756.566 378.846   1
   6  -4   4 699.281 276.015   1
   2  -6  -4 614.319 307.417   1
  -2  -4   4 1908.80 366.465   1
  -4   6   4 734.833 300.103   1
  -4  -2   4 963.513 259.775   2
   6  -2   4 1193.68 512.164   1
  -2   6   4 809.257 224.738   1
  -4  -2   4 745.645 251.289   1
  -6   4  -4 796.516 351.310   1
  -6   2  -4 1279.55 524.174   1
  -2  -4   4 1091.59 401.481   2
  -6   2  -6 440840. 8417.08   1
   6  -4   6 432818. 8175.80   1
   4  -6  -7 39756.1 2333.92   1
   4  -6  -7 48479.7 2380.36   2
  -6   2  -7 42433.7 2411.77   1
   6  -2   7 53067.5 2542.68   1
   6  -4   7 49423.5 2464.63   1
  -2   6   7 51003.6 2570.57   1
  -4   6   7 54602.6 2632.55   1
  -6   4  -7 51146.8 2599.68   1
  -2  -4   7 55197.6 2380.79   2
   2  -6  -7 48709.0 2566.67   1
   2  -6  -7 48569.7 2553.88   2
  -6   2  -8 168839. 5129.23   1
   2  -6  -8 196194. 5389.10   1
  -4   6   8 218379. 5625.38   1
   2  -6  -8 185736. 5281.19   2
   6  -4   8 174434. 5004.47   1
  -6   4  -8 176616. 5096.95   1
   6  -2   8 203204. 5364.41   1
  -2  -4   8 210478. 4967.92   2
   4  -6  -8 188927. 5056.16   2
   4  -6  -8 184718. 5232.02   1
  -2   6   8 181191. 5130.66   1
  -4   6   9 49355.1 2661.80   1
   2  -6  -9 54660.4 2780.39   1
   6  -2   9 53014.1 2735.62   1
  -2   6   9 54284.2 2740.99   1
   6  -4   9 53370.1 2720.83   1
  -6   2  -9 53617.3 2814.42   1
  -6   4  -9 53127.5 2730.11   1
   4  -6  -9 45672.8 2607.24   1
   2  -6  -9 47287.1 2635.71   2
   4  -6  -9 58465.8 2715.49   2
  -2   6  10 368665. 8092.76   1
   2  -6 -10 413640. 8508.96   2
   2  -6 -10 411634. 8556.35   1
   6  -4  10 374142. 8018.27   1
  -4   6  10 444497. 8757.89   1
  -6   4 -10 420509. 8569.77   1
  -6   2 -10 407671. 8648.90   1
   4  -6 -10 408845. 8514.30   1
   6  -2  11 115718. 4283.88   1
  -4   6  11 94062.6 3881.49   1
  -6   2 -11 102076. 4109.61   1
  -2   6  11 113868. 4233.47   1
  -6   4 -11 98249.9 4026.36   1
   4  -6 -11 96364.6 4007.47   1
   6  -4  11 113468. 4144.40   1
   2  -6 -11 111841. 4223.07   2
   2  -6 -11 105759. 4125.74   1
   6  -2  12 31690.5 2224.84   1
  -4   6  12 24406.2 2009.86   1
   2  -6 -12 34337.0 2335.43   2
   6  -4  12 31413.3 2242.00   1
   2  -6 -12 30386.1 2246.52   1
  -6   4 -12 32811.8 2302.39   1
  -6   2 -12 30714.7 2231.74   1
   4  -6 -12 28617.4 2142.72   1
  -2   6  12 30932.9 2170.89   1
   2  -6 -13 51449.0 3004.00   1
   6  -2  13 53706.4 3006.62   1
  -2   6  13 54745.9 3066.13   1
  -6   2 -13 57641.3 3178.60   1
  -6   4 -13 60096.8 3212.09   1
   2  -6 -13 58115.7 3172.08   2
  -4   6  13 58413.6 3101.86   1
   4  -6 -13 56636.1 3170.44   1
   2  -6 -14 131280. 4997.26   1
  -4   6  14 123822. 4840.47   1
   6  -4  14 139564. 5041.49   1
  -6   2 -14 137619. 5186.90   1
   4  -6 -14 142419. 5203.18   1
  -6   4 -14 150298. 5293.23   1
  -2   6  14 133862. 4988.15   1
   6  -2  14 148048. 5181.30   1
  -2   6  15 55397.8 3219.52   1
   6  -2  15 53189.8 3213.26   1
  -4   6  15 59177.4 3303.89   1
   2  -6 -15 54568.1 3265.05   1
  -6   2 -15 59181.1 3460.41   1
   4  -6 -15 55408.3 3276.80   1
  -2   6  16 1597.43 606.139   1
   4  -6 -16 1420.38 552.515   1
  -6   2 -16 812.574 406.285   1
   6  -2  16 1128.53 394.619   1
   2  -6 -16 1225.81 460.177   1
  -2   6  17 36357.6 2696.14   1
   2  -6 -17 47058.3 3118.85   1
   2  -6 -18 75560.7 4058.57   1
  -5  -1 -19 4108.82 976.415   2
  -1  -5 -19 7407.17 1319.49   1
  -1  -5 -18 55038.1 3532.55   1
  -5  -1 -18 53473.6 3436.40   2
   5   1  18 65424.2 3814.16   1
  -5  -1 -18 59691.2 3599.69   1
   5   1  17 13639.3 1673.27   1
  -1  -5 -17 11863.2 1604.46   1
  -5  -1 -17 12711.7 1542.81   1
   1   5  17 11874.8 1565.41   1
  -5  -1 -17 11623.5 1551.46   2
  -1  -5 -16 5472.46 1139.61   2
   5   1  16 5417.14 1020.00   1
  -1  -5 -16 5053.48 1009.12   1
  -5  -1 -16 2972.88 693.761   2
  -5  -1 -16 6297.06 1130.44   1
   1   5  16 4075.80 957.313   1
   5   1  15 73081.0 3745.30   1
  -5  -1 -15 75644.1 3786.23   1
  -5  -1 -15 82383.4 4107.22   2
  -1  -5 -15 81962.4 4065.06   2
  -1  -5 -15 81748.4 3986.02   1
   1   5  15 74650.7 3805.09   1
   5   1  14 187407. 5949.99   1
  -5  -1 -14 182034. 5982.16   1
  -5  -1 -14 191690. 6276.49   2
  -1  -5 -14 171340. 5968.74   2
  -1  -5 -14 171541. 5774.29   1
   1   5  14 159790. 5515.53   1
  -5  -1 -13 114003. 4709.83   2
  -1  -5 -13 106882. 4417.61   1
  -5  -1 -13 114273. 4604.89   1
   1   5  13 120649. 4619.71   1
   5   1  13 117016. 4575.37   1
  -6   5  12 74560.7 3408.16   1
  -1  -5 -12 52396.1 3036.68   1
   1   5  12 61032.2 3225.28   1
  -5  -1 -12 57798.7 3175.84   1
  -5  -1 -12 71582.3 3531.70   2
   5   1  12 58369.2 3137.71   1
  -1  -5 -12 59808.7 3225.78   2
   5   1  11 60087.7 3100.52   1
  -5  -1 -11 80167.6 3762.15   2
  -1  -5 -11 63200.8 3267.32   1
   1   5  11 65224.5 3273.08   1
  -5   6 -11 73022.9 3252.84   1
  -5  -1 -11 68380.0 3372.31   1
   1  -6  11 74041.0 3480.73   2
  -1  -5 -11 69066.1 3421.52   2
  -6   5  11 59567.2 2978.29   1
  -5  -1 -10 519552. 10487.2   2
   5   1  10 538435. 10069.0   1
  -1  -5 -10 556172. 10465.2   2
  -1  -5 -10 537753. 10229.4   1
  -6   5   9 63466.0 2937.18   1
  -5  -1  -9 52740.0 2953.35   2
   6  -5  -9 50644.1 2714.94   1
  -5  -1  -9 54518.0 2880.83   1
  -5   6  -9 52152.9 2653.12   1
   5   1   9 44459.8 2556.91   1
  -1  -5  -9 54988.5 2920.48   2
  -1  -5  -9 47350.8 2732.19   1
   5  -6   9 53117.4 2615.31   1
   1   5   9 53745.6 2829.25   1
   1  -6   9 45564.4 2614.41   2
  -6   5   8 59196.0 2796.85   1
   1   5   8 52795.4 2771.57   1
  -5   6  -8 56049.1 2726.00   1
  -5  -1  -8 54670.2 2941.17   2
  -1  -5  -8 50761.7 2723.79   1
  -5  -1  -8 64995.2 3063.05   1
  -1  -5  -8 55933.0 2880.73   2
   5   1   8 43978.4 2463.84   1
   6  -5  -8 46143.5 2576.85   1
   1  -6   8 57368.9 2800.89   2
   6  -1  -8 69671.4 2660.10   1
   5  -6   8 49760.5 2472.46   1
  -6   1   7 182683. 4612.38   1
   6  -5  -7 219197. 5554.06   1
  -1  -5  -7 189379. 5421.74   2
   1  -6   7 219919. 5555.85   2
   5  -6   7 192210. 5055.25   1
  -6   5   7 223292. 5584.49   1
  -1  -5  -7 212009. 5617.43   1
   5   1   7 170254. 5073.25   1
  -5  -1  -7 214580. 5730.41   1
   1   5   7 225076. 5751.99   1
  -5   6  -7 194110. 5189.69   1
  -5  -1  -7 211607. 5896.64   2
   6  -1  -7 198737. 4782.96   1
   5   1   6 43526.0 2395.52   1
  -1  -5  -6 61546.8 2844.33   2
  -1   6  -6 60820.3 2264.47   1
   5  -6   6 53373.9 2490.59   1
   6  -1  -6 49968.6 2280.60   1
  -5  -1  -6 59157.0 2844.05   1
   5  -6   6 50838.5 2740.97   2
  -6   5   6 50950.5 2556.53   1
  -6   1   6 48144.3 2258.21   1
   6  -5  -6 54825.0 2651.90   1
   1  -6   6 59279.7 2771.94   2
  -1  -5  -6 59689.1 2815.47   1
  -5  -1  -6 63509.6 3002.22   2
  -5   6  -6 55593.6 2655.50   1
   1  -6   6 52862.7 2084.14   1
   6  -5  -6 62550.6 2525.41   2
   1   5   6 61246.5 2863.78   1
   5   1   5 276108. 6311.14   1
  -5  -1  -5 299496. 6767.07   2
   6  -5  -5 259277. 5636.84   2
   5  -6   5 255730. 5805.23   1
  -5   6  -5 286288. 6387.17   1
  -1  -5  -5 279633. 6373.95   1
  -1   6  -5 290969. 5574.30   1
  -5  -1  -5 286782. 6437.08   1
   6  -1  -5 278017. 5804.40   1
   1  -6   5 242332. 5173.83   1
  -6   5   5 285516. 6364.03   1
   1   5   5 219129. 5889.27   1
   5  -6   5 266868. 6457.93   2
  -1  -5  -5 282179. 6489.76   2
   1  -6   5 289391. 6371.86   2
  -6   1   5 321691. 6137.51   1
   6  -5  -5 260813. 6067.90   1
  -5  -1  -4 1639.37 429.059   2
  -6   5   4 1680.79 436.873   1
   1   5   4 1155.58 395.814   1
   6  -1  -4 1137.68 295.009   1
   5  -6   4 1970.36 492.167   1
  -5   6  -4 2087.45 546.705   1
  -5  -1  -4 1450.09 383.915   1
   6  -5  -4 2328.50 532.336   1
  -1   6  -4 2186.73 457.307   1
   6  -5  -4 1493.60 399.606   2
  -1  -5  -4 1578.07 508.857   1
   1  -6   4 1651.54 435.851   1
   1  -6   4 1530.89 439.079   2
  -1  -5  -4 1637.37 488.179   2
   5  -6   4 2143.94 555.648   2
  -6   1   4 1361.71 367.507   1
  -6   1   4 1668.94 373.073   2
   5   1   4 1379.66 430.675   1
  -6   5   3 35376.4 2063.80   1
  -1   6  -3 33687.1 1803.18   1
  -5  -1  -3 38034.6 2175.98   2
   6  -5  -3 35400.1 1943.74   2
   1  -6   3 38054.3 1892.90   1
  -5  -1  -3 32100.1 1957.19   1
  -1  -5  -3 33169.8 1999.95   1
   6  -5  -3 34401.7 2021.87   1
  -6   1   3 39002.6 1796.59   2
   5  -6   3 39426.0 2255.55   2
   1  -6   3 36834.2 2074.02   2
   1   5   3 31022.9 1959.38   1
   5  -6   3 35872.2 1963.45   1
   6  -1  -3 30964.9 1821.96   1
   5   1   3 35973.2 2036.05   1
  -1  -5  -3 37886.7 2131.83   2
  -5   6  -3 35230.0 2035.46   1
  -6   1   3 34578.5 1871.00   1
   6  -5  -1 166306. 4536.02   1
   1  -6   1 178191. 4498.17   1
   5  -6   1 180726. 4678.52   1
   6  -5  -1 199778. 4980.86   2
  -1  -5  -1 175417. 4561.89   1
   5  -6   1 178643. 4888.52   2
   1   5   1 162594. 4460.50   1
  -5  -1  -1 161121. 4472.96   1
  -6   1   1 216943. 4947.70   1
   6  -1  -1 153533. 4316.46   1
  -1   6  -1 170123. 4409.28   1
  -5   6  -1 168255. 4638.73   1
   1  -6   1 168504. 4699.71   2
  -1  -5  -1 167096. 4640.10   2
  -5  -1  -1 188876. 4766.17   2
   5   1   1 163026. 4484.66   1
  -6   5   1 172342. 4669.12   1
   5  -6   0 334628. 6711.87   1
  -5   6   0 313425. 6622.21   1
   5  -6   0 312380. 6630.72   2
  -1  -5   0 308672. 6280.90   1
  -1   6   0 326350. 6432.72   1
   1  -6   0 308291. 6339.83   1
   1   5   0 328696. 6488.49   1
   6  -1   0 357932. 6825.60   1
   6  -5   0 312518. 6457.14   1
  -5  -1   0 279133. 5992.27   2
   1  -6  -3 186523. 5024.10   1
  -5   6   3 209655. 5138.01   1
  -1  -5   3 196264. 4934.25   2
   5  -6  -3 200005. 5176.07   1
   5   1  -3 175454. 4396.40   1
   6  -5   3 184313. 4862.81   1
  -1   6   3 191133. 4974.01   1
   6  -1   3 194140. 5030.16   1
  -1  -5   3 216265. 4587.57   1
   1  -6  -3 193270. 5140.89   2
  -6   1  -3 181265. 4906.08   1
   5  -6  -3 180711. 4797.98   2
  -6   5  -3 195581. 5094.56   1
  -5  -1   3 183217. 4559.67   1
  -5  -1   3 229371. 4763.36   2
   1   5  -3 188656. 4350.88   1
  -5   6   4 20966.6 1553.92   1
  -1   6   4 19098.8 1502.75   1
   1   5  -4 19553.7 1255.28   1
  -1  -5   4 18502.6 1178.49   1
   6  -5   4 18135.4 1398.77   1
   6  -1   4 19424.3 1505.05   1
   5   1  -4 18621.5 1285.47   1
  -5  -1   4 23110.0 1433.26   1
  -6   1  -4 20638.9 1567.02   1
   5  -6  -4 18175.4 1502.22   1
  -5  -1   4 17309.4 1193.56   2
  -1  -5   4 17234.7 1407.92   2
   1  -6  -4 18665.7 1519.72   2
  -6   5  -4 19290.2 1504.14   1
   5  -6  -4 19705.3 1481.71   2
   1  -6  -4 19143.4 1523.85   1
  -5  -1   5 2427.68 431.815   2
  -5   6   5 2825.58 618.239   1
   1  -6  -5 3399.43 694.871   1
   6  -1   5 2301.07 542.920   1
  -1  -5   5 2876.30 440.670   1
  -6   1  -5 2931.04 650.956   1
  -6   5  -5 3476.56 662.657   1
   5   1  -5 3230.88 538.284   1
   1   5  -5 3101.35 467.623   1
   1  -6  -5 2921.94 595.028   2
  -5  -1   5 3114.93 545.368   1
   6  -5   5 3163.45 603.768   1
   5  -6  -5 2567.36 535.797   2
  -1  -5   5 3709.16 644.330   2
   5  -6  -5 3405.60 645.783   1
  -1   6   5 3078.53 629.659   1
  -1  -5   6 244905. 5590.28   2
   1  -6  -6 230387. 5798.87   1
   6  -5   6 201739. 5265.57   1
   5  -6  -6 231825. 5421.30   2
  -1   6   6 226795. 5688.02   1
   6  -1   6 211451. 5536.87   1
  -6   1  -6 247845. 5982.07   1
   5  -6  -6 222726. 5789.61   1
  -6   5  -6 227760. 5725.26   1
  -5   6   6 222199. 5679.83   1
   1  -6  -6 211219. 5605.03   2
  -1   6   7 92337.8 3606.21   1
  -5   6   7 104519. 3775.70   1
   5  -6  -7 76477.7 3369.26   1
   6  -1   7 88261.5 3545.34   1
   1  -6  -7 88919.4 3562.82   1
  -6   1  -7 102404. 3845.27   1
   5  -6  -7 98003.5 3458.10   2
  -6   5  -7 101779. 3712.81   1
  -1  -5   7 96363.4 3440.52   2
   6  -5   7 103814. 3671.16   1
   1  -6  -7 94025.3 3653.24   2
   1  -6  -8 34307.1 2226.17   1
   5  -6  -8 35653.9 2323.71   1
   6  -1   8 29414.3 2050.56   1
  -1  -5   8 42179.4 2278.59   2
   1  -6  -8 35614.9 2259.74   2
   5  -6  -8 40189.5 2134.64   2
  -1   6   8 38979.2 2318.89   1
  -6   1  -8 36002.1 2257.10   1
   6  -5   8 33678.3 2112.21   1
  -5   6   8 35760.6 2196.49   1
  -6   5  -8 34900.5 2224.41   1
  -6   1  -9 287061. 7130.04   1
   6  -1   9 290031. 6988.74   1
   1  -6  -9 316172. 7348.05   1
  -5   6   9 263424. 6671.55   1
  -1   6   9 322454. 7279.46   1
   5  -6  -9 289338. 6363.00   2
   6  -5   9 317795. 7052.35   1
  -6   5  -9 294443. 6917.56   1
   5  -6  -9 310508. 7226.77   1
   1  -6  -9 302554. 7203.29   2
  -1  -5   9 350454. 7136.28   2
  -5   6  10 460110. 8931.19   1
   5  -6 -10 387548. 8456.20   1
   6  -1  10 393545. 8404.76   1
  -1   6  10 432790. 8691.66   1
   6  -5  10 386868. 8302.78   1
  -6   1 -10 449756. 8996.51   1
   1  -6 -10 367149. 8342.35   1
  -6   5 -10 377372. 8280.49   1
   1  -6 -10 400201. 8655.67   2
   5  -6 -11 150469. 4993.59   1
  -5   6  11 134352. 4608.05   1
   1  -6 -11 132810. 4704.10   1
  -1   6  11 126353. 4560.43   1
   6  -5  11 139125. 4657.75   1
   1  -6 -11 120967. 4570.79   2
  -6   5 -11 134123. 4655.68   1
  -6   1 -11 124384. 4590.26   1
   6  -1  11 115509. 4385.06   1
  -6   1 -12 30536.4 2288.05   1
   5  -6 -12 28358.5 2191.31   1
  -5   6  12 32270.3 2243.05   1
   1  -6 -12 31202.7 2313.60   1
   6  -5  12 30305.8 2177.65   1
  -1   6  12 34110.0 2328.69   1
  -6   5 -12 29064.3 2216.91   1
   1  -6 -12 29192.7 2222.72   2
   6  -1  12 31296.2 2251.93   1
   6  -1  13 48221.6 2894.26   1
   6  -5  13 51145.6 2923.00   1
  -5   6  13 60190.3 3230.96   1
  -1   6  13 47067.8 2850.61   1
   5  -6 -13 48377.7 2929.36   1
   1  -6 -13 46594.5 2895.60   1
  -6   5 -13 51569.0 2967.88   1
  -6   1 -13 54427.8 3116.28   1
   1  -6 -13 55410.2 3155.14   2
  -5   6  14 250451. 6953.90   1
   1  -6 -14 226721. 6842.99   2
  -6   1 -14 238805. 6934.04   1
   1  -6 -14 211678. 6507.73   1
  -1   6  14 274016. 7204.52   1
   5  -6 -14 183320. 6216.76   1
   6  -1  14 221380. 6614.18   1
   5  -6 -15 43007.8 2908.73   1
   1  -6 -15 44911.5 2966.93   1
  -1   6  15 44333.3 2878.28   1
  -6   1 -15 49437.5 3125.64   1
   6  -1  15 43096.5 2831.76   1
  -1   6  16 27490.4 2305.56   1
   6  -1  16 23496.0 2141.44   1
   1  -6 -16 21368.3 2076.48   1
  -6   1 -16 24485.1 2241.28   1
   1  -6 -17 43139.3 2987.68   1
  -6   1 -17 40076.0 2924.69   1
   6  -1  17 42864.8 2952.49   1
  -1   6  17 34772.5 2689.05   1
   1  -6 -18 38413.2 2880.00   1
  -1   6  18 37098.4 2793.01   1
  -6   1 -19 4800.34 1055.04   2
  -6   0   1 5195.13 793.543   2
  -6   0  -1 4492.82 746.751   2
  -6   6   1 4284.63 745.640   1
   6   0   1 3793.37 651.936   1
  -6   0  -1 4480.46 778.269   1
  -6   6  -1 4082.73 734.267   1
   6  -6   1 4115.52 688.207   1
   0  -6  -1 6977.19 910.894   2
   6  -6  -1 4785.86 763.995   2
   0  -6   1 4630.03 727.593   1
   0   6  -1 3825.86 676.739   1
   6   0  -1 4842.05 716.739   1
   0  -6  -1 3929.92 659.317   1
  -6   0   1 2539.93 563.372   1
   6  -6   1 4607.99 779.768   2
   0   6   1 4419.26 728.424   1
   0  -6   1 3736.70 674.337   2
   6  -6  -1 4483.31 698.020   1
   0  -6  -2 735.792 304.563   2
  -6   0   2 905.560 316.362   2
  -6   0  -2 2091.90 518.928   2
   6  -6  -2 1028.36 380.892   1
  -6   0  -2 774.379 249.053   1
   0  -6   2 1356.68 430.196   1
   6   0   2 1656.89 457.133   1
   0  -6  -2 1108.07 382.993   1
   0   6  -2 1674.58 459.007   1
   6  -6   2 1060.63 407.680   2
   0  -6   2 895.761 402.576   2
   6  -6  -2 1145.57 312.131   2
   0   6   2 1061.01 434.059   1
   6   0  -2 1160.96 400.049   1
  -6   6   2 1448.93 413.198   1
  -6   0   2 1439.49 410.479   1
  -6   6  -2 1252.32 430.878   1
   6  -6   2 1858.57 546.286   1
   6  -6  -3 13359.6 1259.23   2
   6   0   3 14407.6 1357.53   1
   0  -6   3 12375.4 1099.41   1
   0   6   3 11746.9 1226.15   1
   0  -6  -3 12845.4 1278.04   1
   0   6  -3 12682.9 1104.06   1
  -6   6  -3 12534.1 1253.56   1
  -6   0  -3 12647.4 1251.60   1
   0  -6  -3 11629.2 1248.25   2
  -6   0   3 12918.0 1172.65   1
   6  -6   3 13860.1 1266.02   1
   6  -6   3 12085.2 1324.79   2
   6  -6  -3 12256.7 1275.37   1
  -6   6   3 13396.3 1277.88   1
   6   0  -3 12186.4 1135.96   1
   0  -6   3 13321.9 1299.88   2
  -6   0   3 12119.9 1078.98   2
   0  -6  -4 357883. 7484.76   1
   0  -6  -4 368534. 7533.08   2
  -6   6  -4 348709. 7395.64   1
   6  -6  -4 368889. 7444.38   1
   0   6   4 346814. 7335.21   1
   6   0   4 324148. 7173.13   1
  -6   6   4 342469. 7299.33   1
   0  -6  -5 3289.32 667.041   2
   0  -6   5 3130.40 631.630   2
   6   0  -5 3550.41 569.768   1
   0  -6  -5 2890.67 643.104   1
   0  -6   5 3298.93 516.718   1
  -6   6  -5 2027.77 411.636   1
   6  -6   5 3439.62 663.124   1
  -6   0   5 2377.50 502.332   1
  -6   6   5 3673.02 645.808   1
   0   6  -5 3511.24 578.003   1
   6   0   5 3629.48 692.432   1
  -6   0  -5 3462.20 701.828   1
   6  -6  -5 3395.18 634.321   2
   0   6   5 3094.71 654.759   1
   6  -6  -5 3273.47 743.751   1
   0  -6  -6 10570.2 1182.65   2
   6  -6   6 10525.6 1143.14   1
   0  -6  -6 10829.1 1247.96   1
   6  -6  -6 10278.3 1234.97   1
   6   0  -6 10028.5 996.810   1
  -6   0  -6 9827.72 1205.77   1
  -6   6  -6 10701.7 1190.34   1
   0   6   6 10567.1 1192.06   1
  -6   6   6 9108.43 1101.14   1
  -6   0   6 10389.6 1024.37   1
   6  -6  -6 10364.3 1092.79   2
   0  -6   6 10025.1 1106.43   2
   6   0   6 9540.24 1131.09   1
  -6   6  -7 6203.38 903.162   1
   0   6   7 5483.45 886.737   1
  -6   6   7 5930.91 931.496   1
   0  -6   7 6815.47 969.546   2
   6  -6  -7 5681.36 902.654   1
   6  -6  -7 6366.47 845.072   2
   6   0   7 4819.10 834.542   1
   6  -6   7 5770.61 884.610   1
   0  -6  -7 4273.89 786.934   1
   0  -6  -7 4967.67 895.973   2
  -6   0  -7 4554.82 884.559   1
   0  -6  -8 580329. 10520.8   2
   6   0   8 583528. 10324.6   1
   0  -6  -8 531102. 10204.9   1
   0   6   8 524059. 10011.8   1
   6  -6   9 3840.70 767.158   1
   6  -6  -9 4388.12 783.619   1
  -6   0  -9 3189.06 690.419   1
   0  -6  -9 4512.18 883.950   2
  -6   6   9 3185.15 659.286   1
  -6   6  -9 4148.53 825.307   1
   0  -6  -9 3334.81 759.283   1
   0   6   9 4301.60 769.778   1
   6   0   9 3664.23 741.195   1
   0  -6   9 4594.67 834.093   2
   6  -6 -10 1177.64 478.758   1
  -6   6  10 1154.18 399.047   1
   0  -6 -10 1018.78 492.758   1
   0  -6 -10 1273.99 502.469   2
   6   0  10 1113.84 363.769   1
  -6   0 -10 1909.76 562.440   1
   0   6  10 1331.38 423.395   1
  -6   6 -10 1687.41 533.880   1
   0  -6  10 467.295 234.324   2
   6  -6  10 1161.85 443.962   1
   0  -6 -11 1116.54 414.674   2
   0  -6 -11 1098.00 352.584   1
  -6   0 -11 1179.26 436.991   1
   6   0  11 1107.30 420.057   1
   6  -6  11 1883.32 574.068   1
   6  -6 -11 1228.44 483.171   1
  -6   6 -11 1337.37 413.806   1
   0   6  11 1508.20 561.701   1
  -6   6  11 1424.52 527.150   1
  -6   0 -12 499936. 10382.6   1
   6  -6 -12 529299. 10558.9   1
   0  -6 -12 481268. 10056.0   1
  -6   0 -12 473612. 10362.4   2
   0   6  12 480604. 10048.5   1
   0  -6 -12 488525. 10277.8   2
  -6   6  12 476592. 9898.58   1
  -6   6 -12 506432. 10071.9   1
   6   0  12 459534. 9810.29   1
   0  -6 -13-311.027 392.390   2
   6  -6 -13 429.060 340.497   1
  -6   6  13 265.481 337.616   1
   0  -6 -13 54.6311 332.043   1
   6   0  13-170.463 315.585   1
  -6   0 -13 21.7671 251.024   1
   0   6  13 529.485 419.222   1
  -6   0 -13 472.265 282.863   2
   0   6  14-33.1906 321.109   1
   0  -6 -14 1717.86 536.205   2
   6  -6 -14 705.153 394.885   1
   6   0  14 524.709 374.557   1
  -6   0 -14 835.822 446.909   1
  -6   0 -14 460.798 371.963   2
   0  -6 -14 1163.79 560.701   1
  -6   0 -15 78.3329 317.385   2
   0   6  15 884.303 575.005   1
   0  -6 -15 92.2313 369.151   2
   0  -6 -15 420.453 353.901   1
  -6   0 -15 402.650 492.142   1
   6   0  15 350.343 383.317   1
   0  -6 -16 162295. 6127.80   2
   0  -6 -16 165345. 5873.48   1
  -6   0 -16 176985. 6225.42   2
   6   0  16 149379. 5669.99   1
  -6   0 -16 164635. 5935.64   1
  -6   0 -17 862.434 473.459   2
   6   0  17 1222.74 586.664   1
  -6   0 -17 918.149 462.093   1
   0  -6 -17 1306.78 631.768   1
   0   6  17 922.798 345.876   1
   0   6  18 640.893 440.062   1
  -6   0 -18 363.401 392.004   2
   6   0  18 500.733 392.957   1
   0  -6 -18 362.368 372.269   1
  -6   0 -18 92.3109 247.629   1
  -4  -3 -18 108668. 5029.98   2
  -3  -4 -18 125506. 5300.61   1
  -4  -3 -18 111694. 4981.76   1
   3   4  18 130403. 5458.93   1
   4   3  18 136258. 5586.62   1
  -3  -4 -18 110573. 5171.97   2
  -4  -3 -17 64392.1 3687.63   1
  -3  -4 -17 67827.1 3746.77   1
  -4  -3 -17 56322.8 3499.07   2
  -3  -4 -17 54819.5 3547.84   2
   3   4  17 58821.9 3579.33   1
   4   3  17 66499.7 3718.86   1
  -3  -4 -16 57263.6 3487.68   1
  -4  -3 -16 69556.8 3782.53   1
  -3  -4 -16 68604.7 3898.34   2
   3   4  16 75107.7 3937.66   1
   4   3  16 72570.2 3789.58   1
  -4  -3 -16 70820.3 3856.93   2
  -3  -4 -15 5979.34 1155.75   2
  -4  -3 -15 6067.09 1117.28   2
   3   4  15 6474.96 1082.57   1
  -3  -4 -15 4646.77 985.441   1
  -4  -3 -15 4491.86 923.970   1
   4   3  15 4296.71 969.783   1
  -3  -4 -14 181441. 6169.88   2
  -4  -3 -14 185164. 6150.56   2
  -3  -4 -14 175312. 5894.16   1
  -4  -3 -14 174086. 5913.86   1
   4   3  14 194161. 6125.03   1
   3   4  14 199408. 6257.02   1
  -3  -4 -13 7941.19 1256.82   2
  -4  -3 -13 6930.31 1175.43   2
   4   3  13 7026.99 1124.67   1
  -3  -4 -13 6382.05 1103.84   1
  -4  -3 -13 8601.64 1235.98   1
   3   4  13 7980.69 1186.65   1
   4   3  12 10815.9 1382.23   1
  -4  -3 -12 10463.6 1343.32   1
  -4  -3 -12 10867.0 1339.94   2
   3   4  12 11737.4 1405.92   1
  -3  -4 -12 12383.4 1444.60   1
  -3  -4 -12 9584.12 1350.97   2
  -4  -3 -11 124992. 4694.44   2
  -3  -4 -11 110735. 4377.33   1
  -4  -3 -11 108419. 4354.47   1
   3   4  11 132031. 4722.98   1
   4   3  11 107993. 4337.25   1
  -3  -4 -11 126949. 4746.07   2
  -4  -3 -10 63807.2 3277.68   1
   3  -7  10 64698.7 3390.72   2
  -4  -3 -10 73319.9 3476.65   2
   7  -4 -10 68761.6 3147.72   1
  -3  -4 -10 69180.0 3382.63   1
   4   3  10 69019.0 3347.70   1
  -3  -4 -10 67402.6 3419.41   2
  -7   4  10 61986.6 3006.61   1
  -3  -4  -9 242101. 6623.70   2
  -4  -3  -9 245599. 6526.16   2
  -4  -3  -9 222428. 6256.03   1
   4   3   9 255483. 6518.24   1
  -7   3   9 236279. 6020.09   1
  -3  -4  -9 242497. 6468.54   1
   7  -3  -9 290008. 6437.74   1
   4  -7   9 278871. 7077.92   2
   3  -7   9 220219. 6240.88   2
  -7   4   9 290586. 6609.62   1
   3   4   9 211532. 6081.36   1
   7  -4  -9 223948. 5915.75   1
  -3  -4  -8 2702.16 658.327   1
  -3  -4  -8 3399.83 787.610   2
  -4   7  -8 3002.51 584.320   1
  -4  -3  -8 2575.98 641.031   2
   7  -4  -8 2442.56 629.546   1
   3  -7   8 2302.93 600.065   2
  -7   4   8 2969.31 662.457   1
   4   3   8 2457.41 600.592   1
   4  -7   8 3164.50 590.434   1
   7  -3  -8 2499.04 628.093   1
  -4  -3  -8 2515.41 706.547   1
   3   4   8 3063.89 683.039   1
  -7   3   8 4075.22 750.861   1
   4  -7   8 3356.59 762.178   2
  -3  -4  -7 213426. 6002.69   2
   3  -7   7 226444. 5253.15   1
   4   3   7 218284. 5919.46   1
  -4  -3  -7 214091. 5926.38   2
  -4   7  -7 237591. 5875.19   1
   7  -3  -7 284780. 6274.68   1
  -3  -4  -7 212820. 5833.01   1
  -4  -3  -7 239682. 6271.76   1
   3   4   7 222376. 6001.84   1
   3  -7   7 235461. 6093.57   2
   4  -7   7 246975. 5667.20   1
   4  -7   7 221842. 6072.54   2
  -7   3   7 200812. 5428.18   1
  -7   4   7 226727. 5815.36   1
  -3   7  -7 227653. 5389.09   1
   7  -4  -7 291263. 6365.24   1
  -4   7  -5 147061. 4381.12   1
   3  -7   5 167791. 4967.57   2
  -4  -3  -5 140000. 4606.55   2
  -3   7  -5 160470. 4504.58   1
   7  -3  -5 115832. 3975.75   1
   4  -7   5 165068. 4549.97   1
  -3  -4  -5 153858. 4683.31   1
  -7   4   5 199133. 5216.51   1
   3   4   5 144582. 4669.36   1
   3  -7   5 173189. 4518.00   1
   7  -4  -5 160815. 4631.21   1
   4   3   5 142617. 4549.95   1
  -4  -3  -5 130486. 4436.23   1
  -7   3   5 202622. 5126.24   1
   4  -7   5 160299. 4831.79   2
  -3  -4  -5 151713. 4722.80   2
   3  -7   4 438848. 8332.51   2
  -3  -4  -4 387408. 7787.76   1
   4  -7   4 405441. 7634.30   1
  -4  -3  -4 362932. 7687.13   1
   4   3   4 383260. 7852.13   1
  -7   4   4 314493. 7293.92   1
   3   4   4 396488. 7990.66   1
   4  -7   4 436999. 8364.59   2
  -7   3   4 401179. 7715.64   1
  -3  -4  -4 413874. 8196.38   2
  -3  -4  -3 60249.3 2835.45   2
  -4  -3  -3 59446.1 2851.99   2
   3  -7   3 65198.4 2797.48   1
  -4   7  -3 55736.9 2644.01   1
  -3   7  -3 64950.2 2733.70   1
   7  -4  -3 58933.9 2718.79   1
   7  -3  -3 64732.8 2843.76   1
   3  -7   3 62932.8 2925.60   2
  -3  -4  -3 58736.8 2698.07   1
  -4  -3  -3 65815.3 2930.18   1
   4   3   3 63454.5 2841.81   1
   3   4   3 64018.1 2876.23   1
  -7   3   3 52167.3 2543.69   1
  -7   4   3 59005.8 2789.84   1
   4  -7   3 66130.9 3013.14   2
   4  -7   3 64248.6 2728.16   1
  -4  -3  -2 406791. 7863.46   2
   3  -7   2 385029. 7545.02   1
   3  -7   2 404807. 7948.30   2
   7  -3  -2 377477. 7508.86   1
  -4  -3  -1 64204.6 2827.50   2
   7  -3  -1 61601.5 2704.36   1
  -4   7  -1 61931.1 2756.15   1
  -7   3   1 60341.2 2708.97   1
  -3   7  -1 60496.7 2711.93   1
   3  -7   1 61158.8 2700.13   1
  -7   4   1 64108.0 2878.44   1
  -3  -4  -1 57715.7 2609.26   1
  -4  -3  -1 62764.5 2748.11   1
   4  -7   1 65128.5 2956.81   2
   4   3   1 57283.0 2661.17   1
   3   4   1 63549.3 2780.27   1
   3  -7   1 66083.1 2880.31   2
   4  -7   1 72680.8 2993.17   1
   7  -4  -1 64391.6 2840.50   1
  -3  -4  -1 63406.6 2782.25   2
  -3  -4   0 14557.6 1276.48   1
  -4  -3   0 20110.6 1467.00   1
  -4   7   0 15874.0 1407.90   1
   4  -7   0 17005.3 1499.61   2
  -4  -3   0 17333.0 1400.68   2
   7  -3   0 17508.6 1427.55   1
   7  -4   0 17530.2 1422.81   1
   3  -7   0 16689.0 1406.16   1
  -7   4   0 17416.3 1432.35   1
  -3  -4   0 17962.9 1423.26   2
   3  -7   0 15692.8 1453.51   2
   4   3   0 15749.7 1354.51   1
  -3   7   0 16305.2 1420.13   1
  -7   3   0 15040.4 1375.40   1
   3   4   0 17518.9 1415.92   1
   4  -7   0 18938.5 1528.29   1
  -4  -3   1 123131. 3816.22   2
   3  -7  -1 100381. 3593.57   1
   4  -7  -1 105283. 3745.86   2
  -3  -4   1 113412. 3677.33   2
   7  -4   1 108747. 3755.57   1
   3   4  -1 105264. 3501.85   1
  -3  -4   1 116191. 3611.67   1
  -4  -3   1 127180. 3798.84   1
  -7   3  -1 99955.9 3634.73   1
   4   3  -1 99923.5 3425.65   1
   3  -7  -1 107039. 3744.58   2
  -4   7   1 104584. 3709.66   1
  -3   7   1 107810. 3736.22   1
  -7   4  -1 104705. 3731.70   1
   7  -3   1 107558. 3704.15   1
   4  -7  -1 107422. 3727.53   1
   7  -4   2 189503. 5081.35   1
  -4   7   2 170449. 4900.79   1
  -3   7   2 181742. 4979.09   1
  -3  -4   2 186345. 4598.73   1
  -4  -3   2 205828. 4962.09   2
   7  -3   2 186469. 5051.66   1
   3  -7  -2 187366. 5139.90   2
  -3  -4   2 187899. 4921.69   2
   3   4  -2 185797. 4608.82   1
   3  -7  -2 189240. 5033.20   1
   4  -7  -2 186581. 5086.59   1
   4  -7  -2 185626. 5095.65   2
  -7   4  -2 182372. 5116.50   1
   4   3  -2 181214. 4628.28   1
  -7   3  -2 177611. 5038.10   1
  -4   7   3 251007. 6010.11   1
   3  -7  -3 245303. 5991.47   1
  -3  -4   3 248915. 5333.20   1
  -4  -3   3 267735. 5558.21   1
   4  -7  -3 256659. 6124.95   2
  -7   3  -3 240904. 5958.53   1
   7  -3   3 261006. 6140.50   1
  -3   7   3 251780. 6057.65   1
  -7   4  -3 267279. 6332.12   1
   4  -7  -3 273555. 6278.03   1
   4   3  -3 297956. 5801.81   1
  -4  -3   3 217331. 5336.50   2
   3  -7  -3 261663. 6214.82   2
   7  -4   3 275427. 6288.79   1
  -3  -4   3 246398. 5701.67   2
  -3   7   4 10449.7 1146.68   1
  -4  -3   4 10336.7 1020.37   2
  -3  -4   4 9196.54 894.637   1
  -3  -4   4 10325.6 1085.24   2
   4  -7  -4 9491.61 1135.25   1
  -4  -3   4 10419.6 943.250   1
  -7   4  -4 9645.20 1139.26   1
   4  -7  -4 9876.66 1159.55   2
   3   4  -4 11041.3 965.124   1
  -4   7   4 12066.1 1235.43   1
   7  -3   4 11930.4 1220.40   1
  -7   3  -4 10866.5 1190.03   1
   7  -4   4 8940.62 1094.40   1
   4   3  -4 11115.5 1005.67   1
   3  -7  -4 9848.40 1180.91   2
   3  -7  -4 10680.9 1207.42   1
   4  -7  -5 467574. 8903.58   1
  -4   7   5 440157. 8663.72   1
   3  -7  -5 469346. 8974.20   2
  -3   7   7 169593. 5097.02   1
   4  -7  -7 173337. 5095.91   2
   3  -7  -7 178618. 5223.14   2
   7  -3   7 173542. 5131.15   1
  -4   7   7 162404. 4962.92   1
   7  -4   7 173895. 5061.64   1
  -7   3  -7 171402. 5173.23   1
  -3  -4   7 164880. 4592.21   2
  -7   4  -7 162594. 4965.61   1
   3  -7  -7 170972. 5153.13   1
   4  -7  -7 179193. 5297.12   1
  -7   3  -8 245122. 6435.26   1
   4  -7  -8 252490. 6463.85   1
   3  -7  -8 273837. 6696.58   1
  -3   7   8 220893. 6021.20   1
  -4   7   8 241186. 6300.86   1
   7  -3   8 241094. 6227.20   1
   4  -7  -8 259225. 6453.19   2
   7  -4   8 256671. 6478.75   1
  -7   4  -8 248925. 6350.75   1
   3  -7  -8 243886. 6349.78   2
   7  -3   9 2981.34 659.305   1
   4  -7  -9 2998.73 723.932   1
  -7   3  -9 3473.49 779.769   1
   3  -7  -9 3601.09 799.625   2
   3  -7  -9 3517.15 746.932   1
   7  -4   9 4080.30 727.798   1
  -4   7   9 3457.41 678.904   1
  -7   4  -9 3974.53 789.768   1
  -3   7   9 4174.13 856.545   1
   4  -7  -9 3440.26 763.672   2
   4  -7 -10 274641. 7018.55   1
  -3   7  10 240443. 6560.50   1
   7  -3  10 263457. 6808.93   1
  -7   4 -10 281410. 7077.06   1
  -4   7  10 255389. 6766.92   1
  -7   3 -10 284946. 7175.25   1
   7  -4  10 260883. 6682.65   1
   3  -7 -10 283880. 7201.85   1
   3  -7 -10 285158. 7045.80   2
   4  -7 -10 321258. 7402.32   2
   7  -4  11 25134.8 1996.97   1
   4  -7 -11 25163.3 2032.80   1
   3  -7 -11 24169.1 2025.62   1
  -4   7  11 22540.5 1934.70   1
   7  -3  11 24364.8 1976.30   1
   4  -7 -11 24284.0 1986.45   2
  -3   7  11 20746.5 1856.30   1
   3  -7 -11 27921.2 2128.38   2
  -7   3 -11 23937.4 2021.44   1
  -7   4 -11 25858.7 2071.18   1
   3  -7 -12 9937.57 1295.54   1
   4  -7 -12 9331.89 1277.19   1
  -4   7  12 11284.3 1404.77   1
   7  -4  12 12847.1 1441.00   1
  -3   7  12 9653.00 1272.66   1
   7  -3  12 12401.7 1455.68   1
  -7   3 -12 11092.1 1405.10   1
  -7   4 -12 12106.0 1463.56   1
   3  -7 -12 12862.4 1471.28   2
   7  -3  13 117901. 4648.56   1
   4  -7 -13 112442. 4589.39   1
   3  -7 -13 116302. 4627.29   1
  -3   7  13 110811. 4526.31   1
  -7   3 -13 107817. 4540.80   1
  -7   4 -13 123134. 4835.42   1
   7  -4  13 124580. 4853.47   1
   7  -3  14 41683.8 2764.11   1
   3  -7 -14 46817.5 2949.80   1
  -4   7  14 36066.3 2664.75   1
  -3   7  14 40630.6 2711.83   1
  -7   3 -14 44671.0 2856.69   1
  -7   4 -14 44886.0 2976.32   1
   4  -7 -14 50921.3 3052.67   1
   7  -4  14 45335.3 2890.79   1
  -4   7  15 89925.8 4222.98   1
   3  -7 -15 73252.0 3819.88   1
   7  -4  15 69237.7 3703.29   1
   4  -7 -15 76959.2 3904.28   1
  -7   3 -15 73956.4 3930.73   1
  -7   4 -15 78584.7 3941.69   1
  -3   7  15 63026.9 3492.45   1
   7  -3  15 66613.4 3663.58   1
   4  -7 -16 307.856 354.829   1
   3  -7 -16 363.189 357.166   1
  -4   7  16 64.5440 215.914   1
   7  -3  16 468.705 391.100   1
  -3   7  16 244.690 354.837   1
  -7   3 -16 523.715 413.510   1
   3  -7 -17 31712.7 2585.21   1
  -3   7  17 34301.9 2691.11   1
   4  -7 -17 36112.9 2801.53   1
   3  -7 -18 191656. 6706.57   1
  -5  -2 -18-171.162 360.471   2
   5   2  18-111.687 204.474   1
  -5  -2 -18 170.066 328.142   1
   2   5  18 96.4702 275.432   1
  -2  -5 -18 335.322 263.774   1
  -5  -2 -17 5412.87 1053.12   1
  -2  -5 -17 5326.93 1039.05   1
   5   2  17 4617.51 950.195   1
   2   5  17 4651.26 992.362   1
  -5  -2 -17 5452.54 1069.05   2
  -2  -5 -17 3894.04 972.803   2
   5   2  16 237474. 7278.46   1
  -2  -5 -16 280702. 7847.98   1
  -5  -2 -16 241280. 7234.31   1
  -5  -2 -16 261107. 7609.70   2
   2   5  16 248275. 7363.67   1
  -2  -5 -16 223768. 7246.25   2
  -5  -2 -15 1803.60 622.812   2
  -2  -5 -15 1952.27 662.375   1
  -5  -2 -15 1896.60 634.288   1
  -2  -5 -15 1903.26 613.406   2
   5   2  15 1709.57 613.359   1
   2   5  15 1910.63 578.577   1
   2   5  14 1965.21 621.393   1
  -5  -2 -14 2970.42 745.738   2
  -2  -5 -14 1278.61 526.418   2
   5   2  14 1851.99 660.233   1
  -2  -5 -14 2161.61 662.889   1
  -5  -2 -14 2629.07 720.217   1
   2   5  13 189.202 203.139   1
   5   2  13 248.786 308.725   1
  -5  -2 -13 147.968 288.340   1
  -2  -5 -13 532.153 388.646   2
  -2  -5 -13 447.079 232.741   1
  -5  -2 -13 404.729 492.897   2
  -5  -2 -12 185455. 5854.55   2
   7  -5 -12 172351. 5495.55   1
  -5  -2 -12 168259. 5603.04   1
   2   5  12 167213. 5625.72   1
  -2  -5 -12 178330. 5835.86   2
   2   5  11 493.061 357.494   1
  -2  -5 -11 788.540 578.461   2
  -5  -2 -11-222.729 357.692   2
   7  -5 -11 917.803 414.639   1
  -7   5  11 834.519 384.668   1
   5   2  11 649.613 406.673   1
  -2  -5 -11 541.010 326.495   1
  -5  -2 -11-210.034 375.180   1
   2  -7  11 206.457 253.637   2
  -7   5  10 23679.0 1917.00   1
  -5  -2 -10 23044.8 1965.97   2
  -5  -2 -10 19944.8 1818.21   1
   7  -5 -10 22893.4 1879.32   1
  -2  -5 -10 20238.9 1865.25   1
   5   2  10 19784.9 1763.07   1
   2  -7  10 21507.1 1929.86   2
   2   5  10 20823.5 1845.78   1
  -2  -5 -10 24479.7 2058.72   2
  -7   5   9 7458.00 1063.42   1
  -5  -2  -9 9481.60 1254.89   2
   5  -7   9 7950.19 1035.35   1
   2   5   9 5868.30 964.583   1
  -2  -5  -9 7507.82 1113.55   2
   7  -5  -9 6062.19 955.965   1
   5   2   9 7758.51 1058.59   1
  -2  -5  -9 6780.51 1037.37   1
  -5  -2  -9 5752.17 934.459   1
   2  -7   9 6127.77 1047.09   2
  -5   7  -9 7862.54 1065.57   1
  -2  -5  -7 1933.82 590.824   2
  -7   2   7 3304.44 631.008   1
  -2  -5  -7 1964.33 477.127   1
   2   5   7 1217.76 390.281   1
   5  -7   7 2084.95 670.558   2
  -5   7  -7 1820.99 544.192   1
  -5  -2  -7 1869.23 550.841   2
  -7   5   7 1796.93 513.541   1
   5  -7   7 1817.54 463.531   1
   5   2   7 2238.19 599.424   1
   7  -2  -7 1908.47 498.023   1
  -5  -2  -7 1205.59 446.101   1
   2  -7   7 1903.62 427.575   2
   7  -5  -7 2176.31 605.154   1
  -5  -2  -6 18355.5 1681.92   2
   7  -5  -6 16409.7 1462.18   1
   2  -7   6 17449.5 1583.12   2
  -2  -5  -6 22103.5 1752.78   1
  -5  -2  -6 19086.4 1674.25   1
   5  -7   6 21245.8 1625.92   1
   2   5   6 20238.5 1682.56   1
   2  -7   6 19623.7 1438.96   1
   7  -2  -6 16943.7 1432.60   1
  -7   5   6 22258.1 1731.23   1
   5  -7   6 20232.7 1757.87   2
  -2  -5  -6 18442.8 1647.01   2
  -2   7  -6 20471.3 1488.91   1
  -7   2   6 21024.5 1591.05   1
  -5   7  -6 20819.3 1676.63   1
   5   2   6 17862.3 1606.05   1
   5  -7   5 21507.2 1606.83   1
  -2   7  -5 23616.4 1604.17   1
  -7   5   5 20748.7 1650.27   1
   5   2   5 21747.9 1771.75   1
  -2  -5  -5 22448.0 1761.62   1
  -5  -2  -5 20202.4 1697.62   1
  -7   2   5 19468.0 1522.58   1
  -5  -2  -5 23643.6 1822.80   2
   2   5   5 19620.7 1650.41   1
  -2  -5  -5 25036.5 1840.81   2
   2  -7   5 23305.1 1788.20   2
   7  -5  -5 21876.4 1706.09   1
  -5   7  -5 21279.2 1668.95   1
   5  -7   5 19029.6 1724.31   2
   7  -2  -5 25033.9 1732.98   1
  -2  -5  -3 1516.21 461.005   2
  -5  -2  -3 1239.60 482.941   2
   7  -2  -3 2283.67 577.824   1
  -5   7  -3 1616.45 396.645   1
   2  -7   3 2070.96 485.519   1
   5  -7   3 2161.48 521.234   1
  -7   2   3 2042.06 509.382   1
   2   5   3 1705.14 453.920   1
   5   2   3 1794.72 518.334   1
   2  -7   3 1540.89 362.224   2
  -2  -5  -3 1630.01 457.473   1
  -5  -2  -3 2133.03 587.304   1
   5  -7   3 1531.65 461.175   2
   7  -5  -3 2082.17 516.151   1
  -2   7  -3 2352.21 541.360   1
  -7   5   3 1575.70 418.169   1
  -2  -5  -2 846.836 358.287   2
   2   5   2 1061.60 343.851   1
  -5  -2  -2 756.346 344.253   2
  -7   5   2 1203.96 499.650   1
  -5   7  -2 975.296 353.048   1
   7  -2  -2 1068.52 341.444   1
   2  -7   2 505.475 186.460   1
   5  -7   2 1319.83 443.245   1
  -2   7  -2 788.716 339.494   1
  -2  -5  -2 1200.29 428.093   1
   5   2   2 1006.95 320.594   1
  -5  -2  -2 1088.14 448.997   1
   5  -7   2 619.199 314.048   2
   7  -5  -2 1085.27 439.817   1
   2  -7   2 1340.52 435.745   2
  -7   2   2 1270.12 371.040   1
  -5  -2  -1 150.559 189.020   1
  -2  -5  -1 426.885 350.839   2
   2   5   1-86.3704 211.976   1
   5  -7   1 135.117 183.944   1
  -7   5   1 299.782 310.536   1
  -5  -2  -1 599.987 229.001   2
   2  -7   1 436.669 313.305   2
   5   2   1 204.590 205.173   1
   2  -7   1 255.661 191.595   1
   7  -2  -1 518.409 329.611   1
  -2  -5  -1 418.651 277.678   1
  -2   7  -1-117.224 161.995   1
  -5   7  -1 287.771 298.093   1
   5  -7   1 39.3474 288.919   2
   7  -5  -1 283.261 336.398   1
  -7   2   1 162.787 172.726   1
   2   5  -1 1330.57 412.224   1
  -5  -2   1 2375.84 519.923   2
   2  -7  -1 1590.15 481.181   1
  -5   7   1 1089.16 375.028   1
  -2  -5   1 1522.79 419.429   1
  -2  -5   1 1081.64 422.740   2
   7  -5   1 1158.10 375.410   1
  -2   7   1 1227.66 306.047   1
   5  -7  -1 880.159 328.410   2
   5   2  -1 1916.76 485.200   1
  -5  -2   1 1428.03 376.272   1
  -7   5  -1 1448.65 494.826   1
   7  -2   1 1330.27 390.978   1
   5  -7  -1 1536.75 488.374   1
  -7   2  -1 1574.04 481.036   1
   2  -7  -1 1680.37 546.682   2
  -2  -5   2 804.606 315.699   2
  -7   5  -2 857.635 326.013   1
  -5  -2   2 855.715 320.240   2
   5  -7  -2 1108.45 435.110   1
   2  -7  -2 349.789 287.390   1
   7  -5   2 723.890 334.842   1
  -5   7   2 906.815 401.106   1
  -7   2  -2 719.602 319.420   1
  -2  -5   2 895.263 324.461   1
  -2   7   2 381.656 283.253   1
   5   2  -2 637.787 323.510   1
   7  -2   2 880.405 419.425   1
  -5  -2   2 739.753 347.257   1
   2  -7  -2 1655.31 563.875   2
   5  -7  -2 484.833 282.697   2
   2   5  -2 740.100 338.722   1
  -7   5  -3 5755.07 889.390   1
   5   2  -3 7679.83 867.367   1
  -2  -5   3 5572.67 758.773   1
  -2   7   3 5976.52 927.135   1
   2  -7  -3 5240.41 843.910   1
  -2  -5   3 4790.78 783.225   2
   5  -7  -3 5122.60 816.043   1
  -5  -2   3 7315.14 850.405   1
   2   5  -3 5200.31 725.568   1
   7  -2   3 5286.09 858.994   1
  -7   2  -3 6159.68 880.505   1
   2  -7  -3 6471.07 939.285   2
   7  -5   3 4840.61 794.282   1
  -5   7   3 4883.54 818.322   1
   5  -7  -3 4797.37 838.861   2
  -5  -2   3 4525.52 742.495   2
   7  -5   4 548736. 9771.85   1
   5  -7  -4 577195. 10204.2   1
   2  -7  -4 557623. 9976.31   1
   7  -5   5 10078.8 1110.79   1
   5  -7  -5 8582.67 1095.25   2
  -5   7   5 9675.33 1148.17   1
   5  -7  -5 9329.29 1159.81   1
  -2  -5   5 9313.55 1044.92   2
   2  -7  -5 9198.65 1103.46   1
  -5  -2   5 9036.46 914.756   2
  -2   7   5 8869.06 1096.69   1
   7  -2   5 8974.30 1066.44   1
  -7   2  -5 10012.0 1144.94   1
  -7   5  -5 7836.46 1041.54   1
   2  -7  -5 8782.37 1079.83   2
   5   2  -5 9131.20 921.884   1
  -7   5  -6 1158.35 400.930   1
   2  -7  -6 896.566 448.806   2
   7  -5   6 1736.30 503.357   1
   5  -7  -6 1769.93 504.578   1
   7  -2   6 1458.58 443.661   1
   2  -7  -6 1524.20 491.882   1
  -5   7   6 1781.05 557.481   1
  -2   7   6 1282.94 413.627   1
   5  -7  -6 727.963 339.459   2
  -7   2  -6 1161.13 420.160   1
  -2  -5   6 2437.42 568.825   2
   7  -5   7 17410.9 1555.44   1
   5  -7  -7 16432.4 1510.63   2
   5  -7  -7 16145.2 1542.07   1
   2  -7  -7 17460.7 1573.87   1
  -2   7   7 19902.8 1656.69   1
   7  -2   7 18708.3 1622.08   1
  -7   2  -7 17619.6 1599.05   1
  -7   5  -7 17293.6 1559.82   1
  -5   7   7 16519.6 1492.42   1
   2  -7  -7 17472.3 1607.34   2
  -2  -5   7 18085.3 1476.01   2
   7  -2   9 4449.59 844.334   1
   2  -7  -9 5434.38 931.008   1
  -5   7   9 4577.73 850.026   1
   5  -7  -9 4226.15 814.285   1
   7  -5   9 4509.21 844.882   1
  -7   2  -9 4815.19 912.993   1
   5  -7  -9 4044.31 765.691   2
  -2   7   9 4701.20 850.810   1
  -7   5  -9 4763.86 834.578   1
   2  -7  -9 3733.75 795.814   2
   2  -7 -10 9186.88 1234.68   1
  -5   7  10 8340.13 1162.05   1
   7  -2  10 8698.14 1171.09   1
  -2   7  10 11662.1 1343.26   1
   2  -7 -10 9686.52 1270.06   2
   7  -5  10 9302.09 1220.57   1
  -7   2 -10 10379.8 1306.37   1
   5  -7 -10 8806.28 1167.11   1
  -7   5 -10 10302.8 1283.77   1
   2  -7 -11 909.135 480.541   2
   5  -7 -11 2116.31 622.318   1
   7  -5  11 1541.74 546.468   1
   2  -7 -11 2595.90 684.369   1
  -2   7  11 1274.52 533.124   1
  -5   7  11 1539.82 587.992   1
   7  -2  11 1926.94 576.075   1
  -7   2 -11 1405.99 507.408   1
  -7   5 -11 1661.04 528.495   1
   7  -2  12 178792. 5668.23   1
   2  -7 -12 189519. 6008.25   2
  -5   7  12 149388. 5219.64   1
   2  -7 -12 177451. 5748.27   1
   7  -5  12 181462. 5703.53   1
  -7   2 -12 171849. 5673.47   1
  -7   5 -12 164282. 5586.96   1
   5  -7 -12 191004. 5954.04   1
  -2   7  12 156944. 5316.19   1
   7  -5  13 498.702 414.924   1
   5  -7 -13-119.467 302.839   1
   7  -2  13-115.710 311.240   1
   2  -7 -13 443.341 300.420   1
  -5   7  13 295.268 333.931   1
  -7   5 -13 336.101 337.223   1
  -2   7  13-135.444 357.713   1
  -7   2 -13 572.665 389.434   1
   2  -7 -13-0.75057 259.462   2
   5  -7 -14 527.705 394.824   1
   2  -7 -14 760.160 282.409   1
  -5   7  14 580.188 447.488   1
   7  -2  14 8.75945 175.606   1
  -2   7  14 276.042 212.742   1
  -7   2 -14-37.4406 392.833   1
  -7   5 -14 370.009 347.667   1
  -5   7  15 2090.97 692.036   1
   5  -7 -15 1549.84 569.867   1
   2  -7 -15 1807.40 668.087   1
   7  -2  15 1943.38 652.086   1
  -2   7  15 2238.10 661.398   1
  -7   2 -15 1313.89 549.322   1
   7  -2  16 196439. 6538.64   1
   2  -7 -16 209890. 6809.62   1
  -7   2 -16 207969. 6887.83   1
   2  -7 -17 234.956 324.501   1
   7  -2  17 1055.27 556.145   1
  -7   2 -17 1149.21 522.647   1
  -2   7  17 479.381 364.038   1
   2  -7 -18 2895.72 827.669   1
  -2   7  18 4046.96 947.169   1
  -6  -1 -17 72461.3 3993.88   2
  -6  -1 -17 74217.1 3967.60   1
   1   6  17 72738.4 3919.56   1
   6   1  17 79837.5 4117.17   1
  -1  -6 -17 69204.7 4050.39   2
  -1  -6 -16 532.184 238.652   2
  -6  -1 -16 1871.89 754.317   2
   6   1  16 1503.01 575.562   1
   1   6  16 1779.96 555.586   1
  -1  -6 -16 1972.26 724.497   1
  -6  -1 -16 1656.11 606.420   1
  -6  -1 -15 48183.3 3174.99   1
  -6  -1 -15 63722.1 3646.24   2
  -1  -6 -15 61779.8 3499.64   1
   1   6  15 66324.3 3614.90   1
   6   1  15 53222.1 3235.97   1
  -1  -6 -15 54300.0 3431.65   2
  -6  -1 -14 92017.7 4367.23   2
   6   1  14 100725. 4444.65   1
  -6  -1 -14 113292. 4743.99   1
   1   6  14 120305. 4809.62   1
  -1  -6 -14 115467. 4738.09   1
  -1  -6 -14 106736. 4780.36   2
  -6  -1 -13 21498.0 2043.69   2
  -1  -6 -13 20114.5 1916.54   1
  -6  -1 -13 17710.1 1833.73   1
   1   6  13 19839.4 1915.44   1
   6   1  13 20971.8 1953.09   1
   7  -6 -13 17669.7 1845.07   1
  -1  -6 -13 18324.0 1928.43   2
  -7   6  12 25597.3 2134.03   1
  -1  -6 -12 21422.5 1938.19   1
  -6  -1 -12 25321.6 2169.63   2
  -6  -1 -12 25192.0 2150.12   1
   1   6  12 24346.8 2110.40   1
  -1  -6 -12 22162.7 2044.66   2
   7  -6 -12 23630.6 2092.28   1
   6   1  12 23655.8 2017.20   1
  -7   6  11 23212.5 1973.82   1
  -6  -1 -11 23830.6 2138.26   2
   1  -7  11 17841.1 1832.82   2
  -1  -6 -11 22366.6 1948.72   1
   6   1  11 20040.7 1820.80   1
  -6  -1 -11 21541.3 1948.57   1
   1   6  11 23995.5 2021.19   1
   7  -6 -11 17818.6 1724.25   1
  -1  -6 -11 19341.6 1883.29   2
   6   1  10 191837. 5776.40   1
  -1  -6 -10 190323. 5888.88   2
  -6  -1 -10 182354. 5910.27   2
  -1  -6 -10 195303. 5983.51   1
   6  -7  10 180975. 5498.86   1
  -6  -1 -10 192834. 5987.53   1
   1  -7  10 186887. 5850.22   2
  -6   7 -10 191720. 5794.30   1
   7  -6 -10 185709. 5729.19   1
  -1  -6  -9 78333.7 3610.44   1
  -7   6   9 73982.4 3441.58   1
  -6  -1  -9 90927.2 3943.24   2
   1  -7   9 76934.8 3564.97   2
   6   1   9 76367.9 3489.56   1
  -6  -1  -9 81448.0 3688.45   1
   1   6   9 73185.1 3502.38   1
  -6   7  -9 74505.1 3443.06   1
   7  -6  -9 72407.8 3426.93   1
   6  -7   9 77978.9 3424.98   1
  -1  -6  -9 72400.1 3501.87   2
  -6  -1  -8 155994. 5271.33   2
  -1  -6  -8 137016. 4827.32   1
   6   1   8 145669. 4809.60   1
   6  -7   8 144868. 4638.90   1
  -6  -1  -8 129824. 4709.00   1
   1   6   8 130716. 4678.91   1
   7  -6  -8 141312. 4764.38   1
   1  -7   8 148909. 4940.74   2
  -6   7  -8 145444. 4833.46   1
  -1  -6  -8 138133. 4853.84   2
  -7   6   8 152168. 4929.46   1
   6   1   7 128801. 4540.94   1
  -1  -6  -7 132787. 4670.75   1
  -6  -1  -7 135654. 4731.13   1
  -1  -6  -7 140766. 4807.95   2
   1   6   7 136521. 4663.66   1
   7  -6  -7 121319. 4373.69   1
   7  -1  -7 157983. 4477.36   1
   1  -7   7 145978. 4718.61   2
  -6  -1  -7 111244. 4332.54   2
   6  -7   7 138649. 4519.39   1
  -6   7  -7 136548. 4537.38   1
  -7   6   7 125484. 4445.89   1
  -6  -1  -6 681861. 11951.9   2
  -1  -6  -6 652468. 11556.1   2
  -7   6   5 158401. 4980.23   1
  -6   7  -5 177988. 5284.89   1
  -6  -1  -5 193200. 5585.04   2
   6   1   5 174344. 5156.03   1
   7  -6  -5 207761. 5346.35   2
   7  -6  -5 167896. 5075.11   1
  -1  -6  -5 177410. 5253.22   1
  -1  -6  -5 157640. 5048.35   2
   6  -7   5 181537. 5086.86   1
  -6  -1  -5 174122. 5201.75   1
   1   6   5 166825. 5139.30   1
   1  -7   5 193932. 5403.72   2
   7  -1  -5 175011. 4873.55   1
   6  -7   5 184524. 5477.11   2
  -7   1   5 225677. 5384.22   1
   1  -7   5 168925. 4548.74   1
  -1   7  -5 189988. 4758.34   1
   1  -7   4 9809.56 1135.24   2
  -6  -1  -4 12321.0 1313.36   2
   1  -7   4 11370.1 1106.42   1
  -1   7  -4 11480.8 1094.57   1
   7  -6  -4 10449.1 1206.84   1
  -1  -6  -4 14839.4 1419.74   2
  -1  -6  -4 10725.1 1231.13   1
  -7   6   4 9875.73 1179.94   1
   1   6   4 11453.8 1244.65   1
  -6  -1  -4 12528.7 1331.55   1
   6   1   4 9890.99 1183.61   1
   6  -7   4 11667.9 1333.71   2
   7  -1  -4 10979.7 1176.50   1
  -7   1   4 13829.9 1296.54   1
   6  -7   4 12532.0 1278.59   1
   7  -6  -4 13042.1 1236.83   2
  -6   7  -4 9238.09 1147.41   1
   6  -7   3 400699. 7872.38   1
  -6   7  -3 370424. 7865.51   1
  -6  -1  -3 400051. 8228.40   2
   6  -7   3 431255. 8653.99   2
  -1  -6  -3 402898. 8072.68   1
   7  -6  -3 386876. 7956.92   1
   1   6   3 405118. 8122.39   1
  -6  -1  -3 402436. 8077.15   1
  -1  -6  -3 386574. 8097.19   2
   7  -1  -3 361025. 7531.01   1
  -7   1   3 338049. 7244.18   1
  -7   6   3 462338. 8606.92   1
  -7   1   3 356991. 7100.24   2
   1  -7   3 396165. 8073.40   2
   6   1   3 381389. 7872.81   1
   7  -6  -2 184381. 5182.44   1
   6  -7   2 185752. 5443.80   2
  -6  -1  -2 198102. 5347.79   2
   6   1   2 183869. 5155.16   1
   1  -7   2 224617. 5323.18   1
  -1   7  -2 186217. 4948.99   1
  -1  -6  -2 196020. 5418.19   1
   6  -7   2 185152. 5111.71   1
  -7   1   2 192402. 4889.14   2
   1   6   2 174186. 5079.07   1
   1  -7   2 182261. 5213.83   2
  -6  -1  -2 207394. 5424.81   1
   7  -1  -2 164804. 4847.84   1
  -7   1   2 216377. 5398.29   1
  -1  -6  -2 181476. 5205.62   2
   7  -6  -2 199326. 5398.76   2
  -7   6   2 193725. 5309.07   1
  -6   7  -2 184187. 5212.09   1
  -1  -6  -1 343265. 7357.16   1
   6   1   1 379591. 7655.57   1
   1  -7   1 372187. 7376.02   1
   6  -7   1 372333. 7628.97   1
   6  -7   1 393566. 8158.47   2
  -1  -6  -1 313115. 7274.63   2
   7  -6  -1 351514. 7513.66   1
   7  -1  -1 396784. 7800.59   1
  -7   1   1 327858. 7161.91   1
   1  -7   1 365128. 7692.67   2
  -7   6   1 395431. 7854.15   1
  -6  -1   0 39600.1 2185.06   2
  -1  -6   0 40572.7 2252.47   1
  -1   7   0 40067.4 2220.83   1
   6  -7   0 39552.3 2290.90   1
   1   6   0 39735.8 2219.00   1
   7  -1   0 37274.2 2207.72   1
  -6  -1   0 40289.1 2271.91   1
  -7   1   0 41624.1 2329.27   1
   6  -7   0 37774.5 2342.55   2
   7  -6   0 41365.2 2281.55   1
  -6   7   0 40271.4 2353.26   1
   1  -7   0 41560.3 2398.24   2
  -1  -6   0 37488.2 2252.71   2
   6   1   0 42123.4 2323.38   1
  -7   6   0 42034.1 2406.89   1
   1  -7   0 36140.7 2131.73   1
  -6   7   1 12231.4 1277.92   1
  -6  -1   1 12134.6 1179.62   2
   6  -7  -1 12739.5 1317.41   2
   6   1  -1 10532.1 1150.23   1
   1  -7  -1 13148.4 1271.02   1
  -1  -6   1 13391.2 1258.10   1
  -1   7   1 11356.9 1198.70   1
   1   6  -1 11362.5 1166.50   1
   7  -1   1 11004.0 1203.16   1
  -7   1  -1 10179.2 1153.85   1
  -6  -1   1 14813.2 1361.46   1
  -7   6  -1 11566.6 1284.95   1
   7  -6   1 12374.4 1299.74   1
   6  -7  -1 12248.8 1296.08   1
  -1  -6   1 8527.59 1058.28   2
   1  -7  -1 11385.7 1253.87   2
  -6  -1   2 511169. 9428.95   1
   1  -7  -2 582432. 10016.5   2
   6   1  -3 1335.15 429.666   1
  -1   7   3 1542.10 502.848   1
   6  -7  -3 969.149 443.336   2
  -6  -1   3 1051.48 366.823   2
  -7   6  -3 783.556 383.088   1
   1  -7  -3 432.662 297.106   1
   7  -1   3 1334.83 444.103   1
  -6   7   3 727.544 396.596   1
   6  -7  -3 1297.44 498.377   1
  -6  -1   3 1650.70 477.773   1
   1   6  -3 975.381 382.435   1
   7  -6   3 1325.91 417.072   1
  -1  -6   3 771.826 264.977   1
   1  -7  -3 1769.95 483.071   2
  -7   1  -3 970.474 400.135   1
  -1  -6   3 863.656 293.602   2
   6  -7  -4 173700. 5126.44   1
  -1  -6   4 168592. 4992.98   2
   7  -6   4 167779. 4905.31   1
   1  -7  -4 165408. 5036.21   1
   1   6  -4 171049. 4412.62   1
   7  -1   4 158259. 4930.34   1
  -1   7   4 169856. 5033.64   1
  -6  -1   4 154448. 4215.68   2
  -6  -1   4 199442. 5024.22   1
  -7   1  -4 175705. 5192.78   1
  -6   7   4 179909. 5119.01   1
  -7   6  -4 168248. 5053.32   1
   1  -7  -4 175341. 5180.82   2
  -1  -6   4 158787. 4276.91   1
   6  -7  -4 171031. 4977.67   2
   6  -7  -5 205415. 5721.28   1
  -1  -6   5 176980. 5115.85   2
   7  -6   5 186940. 5311.74   1
   1  -7  -5 189076. 5504.49   1
   7  -1   5 177866. 5288.64   1
  -1   7   5 204126. 5565.82   1
   6  -7  -5 196454. 5334.16   2
  -6  -1   5 195453. 4955.49   1
  -7   6  -5 189869. 5415.41   1
  -7   1  -5 200139. 5586.01   1
   1  -7  -5 189563. 5496.54   2
   6   1  -5 195249. 4907.89   1
  -6   7   5 170996. 5124.93   1
   7  -6   6 423464. 8374.73   1
  -7   6  -6 417381. 8635.24   1
   1  -7  -6 411043. 8562.47   1
   7  -1   6 385920. 8344.94   1
  -1   7   6 400642. 8391.54   1
  -7   1  -6 412578. 8544.54   1
   6  -7  -6 422318. 8355.71   2
   1  -7  -6 414697. 8601.71   2
  -1  -6   6 402993. 8183.93   2
   6  -7  -7 335007. 7813.59   1
   7  -1   7 341630. 7840.62   1
   1  -7  -7 354167. 7959.18   1
  -1   7   7 345276. 7737.77   1
  -6   7   7 326857. 7648.80   1
   7  -6   7 379003. 7947.03   1
   6  -7  -7 367657. 7699.10   2
  -7   1  -7 349843. 7945.96   1
  -1  -6   7 344398. 7613.03   2
   1  -7  -7 351255. 7940.41   2
  -7   6  -7 350861. 7813.13   1
   1  -7  -8 571.882 386.743   2
  -6   7   8 729.683 437.923   1
   1  -7  -8-77.1839 237.524   1
  -7   6  -8-25.7697 243.717   1
  -7   1  -8 71.5692 265.310   1
  -1  -6   8-182.103 254.471   2
   7  -6   8 453.660 320.780   1
   6  -7  -8 330.608 398.732   1
   6  -7  -8 544.864 304.499   2
   7  -1   8 246.429 255.376   1
  -1   7   8 190.791 228.049   1
   1  -7  -9 120246. 4606.77   1
  -6   7   9 142916. 4917.88   1
   7  -1   9 149675. 4987.27   1
   6  -7  -9 140420. 4948.61   1
  -7   6  -9 150487. 5030.44   1
  -1   7   9 127241. 4629.45   1
   7  -6   9 145843. 4833.92   1
  -1  -6   9 127980. 4546.71   2
  -7   1  -9 138133. 4922.29   1
   1  -7  -9 149209. 5075.81   2
  -6   7  10 229078. 6384.97   1
   7  -1  10 219854. 6288.79   1
   1  -7 -10 227028. 6441.86   1
  -1   7  10 234218. 6442.73   1
  -7   1 -10 234467. 6517.18   1
   7  -6  10 230045. 6329.19   1
  -7   6 -10 225667. 6332.30   1
   6  -7 -10 243302. 6743.11   1
   1  -7 -10 233468. 6565.55   2
   7  -1  11 72462.4 3509.00   1
  -6   7  11 74348.9 3645.81   1
   6  -7 -11 61687.6 3333.83   1
   1  -7 -11 73226.9 3635.23   1
  -1   7  11 75554.6 3612.60   1
   7  -6  11 72791.2 3486.92   1
  -7   6 -11 75831.2 3607.40   1
   1  -7 -11 67718.0 3532.57   2
  -7   1 -11 71750.4 3546.37   1
  -6   7  12 16125.4 1718.53   1
   6  -7 -12 18174.3 1777.40   1
   1  -7 -12 15269.3 1601.94   1
  -1   7  12 15789.9 1626.76   1
   7  -6  12 15446.1 1612.48   1
  -7   1 -12 14304.4 1627.72   1
  -7   6 -12 15723.0 1673.48   1
   7  -1  12 14140.9 1539.68   1
   1  -7 -12 15275.1 1670.98   2
   7  -1  13 43070.8 2836.53   1
   6  -7 -13 45157.0 2920.73   1
   1  -7 -13 50973.2 3105.46   1
  -1   7  13 51346.2 3043.74   1
  -7   1 -13 48283.6 3041.44   1
  -6   7  13 40516.4 2789.56   1
  -7   6 -13 45960.8 2945.55   1
   1  -7 -13 42831.9 2983.61   2
   6  -7 -14 95138.4 4407.90   1
   1  -7 -14 93692.1 4314.24   1
  -7   1 -14 99907.0 4493.35   1
  -6   7  14 92642.7 4307.76   1
   1  -7 -14 88050.0 4271.01   2
  -1   7  14 88478.8 4154.17   1
   7  -1  14 86169.7 4092.13   1
  -7   1 -15 24537.2 2263.94   2
   6  -7 -15 18292.2 1944.31   1
   1  -7 -15 22412.8 2105.79   1
  -1   7  15 16303.7 1782.95   1
  -7   1 -15 17732.5 1888.28   1
   7  -1  15 18570.1 1901.20   1
   1  -7 -15 21479.8 2162.78   2
  -7   1 -16 31597.4 2693.19   2
   7  -1  16 35996.2 2706.61   1
   1  -7 -16 28633.2 2440.35   1
  -1   7  16 30247.3 2487.52   1
  -7   1 -16 34176.1 2644.42   1
  -7   1 -17 8016.32 1379.69   2
   1  -7 -17 7604.48 1302.47   1
  -1   7  17 8994.48 1354.12   1
   7  -1  17 6142.05 1149.42   1
  -7   1 -17 7205.13 1255.22   1
   0  -7   0 2389.55 608.991   2
   7   0   0 2221.29 548.713   1
  -7   0   0 1760.23 561.843   1
   7  -7   0 1565.51 429.519   1
   0  -7   0 2144.50 577.403   1
  -7   7   0 2254.18 557.227   1
  -7   0   0 2915.39 647.403   2
   0   7   0 2334.80 573.049   1
   7  -7   0 2605.23 728.025   2
   0   7  -1 760.727 348.813   1
   7   0   1 84.0484 241.613   1
  -7   0  -1 1107.40 461.471   2
   7  -7  -1 940.920 396.627   2
   7  -7   1 914.007 398.087   1
   7   0  -1 631.027 224.989   1
  -7   0  -1 458.710 288.529   1
  -7   7  -1 817.453 428.062   1
  -7   7   1 970.868 505.608   1
   0  -7  -1 564.540 340.486   1
   0  -7  -1 730.004 416.092   2
   7  -7  -1 432.125 274.341   1
   0   7   1 906.214 375.148   1
   7  -7   1 1284.74 495.692   2
  -7   0   1 754.527 342.971   1
  -7   0   1 608.817 275.113   2
   0  -7   1 1299.97 399.885   1
   0  -7   1 905.794 456.537   2
  -7   0   2 295856. 6363.95   2
   7  -7   2 301055. 7239.06   2
   0  -7   2 289626. 6464.34   1
   7   0   2 312772. 7057.07   1
   0  -7  -2 291893. 6814.96   1
   7  -7  -2 252890. 6488.18   1
   0  -7   2 259036. 6597.48   2
   7  -7  -2 285097. 6826.54   2
   0   7  -2 285887. 6391.77   1
   7   0  -2 259705. 6323.62   1
   0   7   2 271621. 6609.29   1
  -7   0  -2 303838. 7058.28   1
  -7   0   2 298175. 6708.05   1
  -7   7  -2 293300. 6939.07   1
   7  -7   2 272585. 6563.89   1
   0  -7  -2 292851. 6910.02   2
  -7   0  -2 287677. 6892.10   2
  -7   7   2 263556. 6598.60   1
  -7   7   3 361921. 7884.91   1
   0  -7  -3 361187. 7853.33   1
  -7   0  -3 321513. 7497.95   1
  -7   0  -3 319206. 7560.59   2
   0  -7   3 396041. 7511.56   1
   7   0   3 340484. 7738.64   1
  -7   7  -3 376252. 8108.82   1
   7   0  -3 332638. 7203.88   1
   7  -7  -3 346525. 7661.51   1
   0   7   3 348462. 7671.55   1
   0  -7  -3 374382. 8062.03   2
  -7   0   3 350344. 6949.11   2
   7  -7  -3 364988. 7829.78   2
   7  -7   3 373159. 7762.36   1
   0  -7   3 365367. 7834.07   2
  -7   0  -4 139189. 4814.07   2
   7   0   4 131506. 4612.48   1
   0   7  -4 152409. 4383.90   1
  -7   7  -4 149461. 4861.68   1
   0  -7  -4 142357. 4771.56   1
   7   0  -4 149895. 4498.35   1
   7  -7   4 156011. 4755.39   1
   0   7   4 136370. 4602.35   1
  -7   0  -4 128065. 4577.18   1
   7  -7  -4 144321. 4739.91   1
  -7   0   4 133374. 4354.10   1
  -7   7   4 159275. 4948.23   1
   0  -7   4 138961. 4651.74   2
   0  -7  -4 139198. 4726.46   2
   7  -7  -4 153468. 4827.48   2
  -7   7   5 241102. 6334.94   1
  -7   0  -5 247780. 6669.28   2
  -7   7  -5 248276. 6443.74   1
   7  -7  -5 237782. 6326.62   1
   7   0   5 206398. 5997.85   1
   7  -7   5 236331. 6181.04   1
   7  -7  -5 233358. 6197.54   2
   7   0  -5 281791. 6287.25   1
   0   7   5 238557. 6286.75   1
  -7   0  -5 250536. 6481.95   1
  -7   0   5 302350. 6499.32   1
   0  -7   5 218863. 6033.38   2
   0  -7  -5 241727. 6447.90   1
   0  -7  -5 250181. 6479.56   2
  -7   7   6 336285. 7813.24   1
  -7   0  -6 368452. 8557.10   2
   7   0   6 395785. 8422.69   1
   0  -7  -6 385486. 8388.79   2
   0  -7  -6 407746. 8610.11   1
   0   7   6 390969. 8310.75   1
   7  -7  -6 364309. 8161.47   1
  -7   0  -6 395489. 8485.70   1
   0  -7   6 382842. 8252.27   2
   7  -7  -6 338193. 7643.53   2
   7  -7   6 353902. 7899.99   1
  -7   7  -6 384467. 8297.08   1
   7  -7  -7 70223.9 3371.31   1
  -7   7   7 63882.0 3181.26   1
   7  -7   7 72003.4 3298.25   1
   7   0   7 78521.9 3517.06   1
  -7   0  -7 71652.6 3530.32   2
   0  -7  -7 70062.0 3402.57   1
   0   7   7 69819.3 3351.42   1
  -7   0  -7 67510.8 3342.70   1
   0  -7   7 74403.4 3445.99   2
   0  -7  -7 65667.4 3301.31   2
  -7   7  -7 71136.5 3396.84   1
  -7   7   8 23217.2 1892.91   1
   7   0   8 26506.6 2027.98   1
   7  -7  -8 25295.8 2014.37   1
   0  -7  -8 25360.4 2035.58   1
  -7   0  -8 30222.3 2318.85   2
   0   7   8 24476.6 1968.57   1
  -7   0  -8 25195.5 2016.59   1
   0  -7  -8 25378.4 2005.61   2
   0  -7   8 24863.6 1966.02   2
  -7   7  -8 24509.2 1980.55   1
   7  -7   8 24855.4 1962.37   1
  -7   7   9 104139. 4233.73   1
  -7   0  -9 113925. 4586.49   2
   0  -7  -9 112782. 4486.80   1
   7  -7   9 109970. 4292.60   1
   7   0   9 118852. 4500.49   1
   0   7   9 124436. 4587.62   1
  -7   0  -9 106769. 4338.56   1
   7  -7  -9 126990. 4667.02   1
  -7   7  -9 117863. 4539.52   1
   0  -7   9 119796. 4570.13   2
   0  -7  -9 115842. 4493.97   2
  -7   7  10 200375. 5979.07   1
  -7   0 -10 185660. 6204.26   2
   0  -7 -10 187235. 5924.11   1
   7   0  10 193339. 5882.66   1
  -7   7 -10 198637. 6052.52   1
   0   7  10 168586. 5566.40   1
  -7   0 -10 186632. 5961.39   1
   0  -7  10 180473. 5906.63   2
   7  -7  10 201536. 5993.28   1
   0  -7 -10 178032. 5846.85   2
  -7   0 -11 47732.8 2995.69   2
  -7   7  11 41839.9 2740.83   1
   7   0  11 34365.7 2478.62   1
   0  -7 -11 43298.6 2729.17   1
   0   7  11 43201.6 2703.12   1
  -7   0 -11 37666.2 2691.29   1
   7  -7  11 38045.2 2593.55   1
  -7   7 -11 38487.1 2630.08   1
   0  -7 -11 33706.4 2521.97   2
   0  -7 -12 7718.62 1188.13   2
  -7   7  12 8185.95 1223.18   1
  -7   0 -12 8268.56 1272.18   2
   0  -7 -12 8111.86 1236.26   1
   0   7  12 9995.08 1287.97   1
  -7   0 -12 8612.50 1293.96   1
   7   0  12 8392.96 1198.35   1
  -7   7  13 15909.4 1745.33   1
  -7   0 -13 18635.8 1937.57   2
   0  -7 -13 17037.8 1837.27   1
   7   0  13 14656.9 1640.31   1
   0   7  13 20858.5 1969.58   1
  -7   0 -13 16590.0 1757.21   1
   0  -7 -13 13958.8 1667.12   2
   0  -7 -14 120799. 4957.10   1
   0   7  14 113842. 4734.26   1
  -7   0 -14 120554. 4938.58   1
   7   0  14 109233. 4656.87   1
  -7   0 -14 122148. 5057.52   2
   0  -7 -14 114515. 4931.69   2
   0  -7 -15 33513.3 2683.10   2
   0  -7 -15 39339.4 2806.22   1
   0   7  15 40814.0 2845.75   1
  -7   0 -15 41617.9 2927.47   1
  -7   0 -15 39124.9 2866.18   2
   7   0  15 40813.0 2886.98   1
  -7   0 -16 12593.5 1660.16   2
   7   0  16 12126.7 1570.09   1
   0  -7 -16 13577.2 1707.48   1
   0   7  16 12547.0 1600.50   1
  -7   0 -16 12828.2 1625.56   1
   0  -7 -16 11082.8 1588.42   2
   7   0  17 28149.5 2472.29   1
  -7   0 -17 29590.9 2482.93   1
  -4  -4 -17-10.7916 488.561   2
  -4  -4 -16 248568. 7435.41   1
   4   4  16 260115. 7537.75   1
  -4  -4 -15 316.300 387.320   2
   4   4  15-424.247 441.530   1
  -4  -4 -15 426.606 382.224   1
  -4  -4 -14 237.454 319.440   2
   4   4  14 623.090 303.392   1
  -4  -4 -14 810.219 495.119   1
  -4  -4 -13 361.495 358.479   2
  -4  -4 -13-115.664 253.996   1
   4   4  13-77.3131 199.566   1
  -4  -4 -12 333334. 8504.75   2
   4   4  12 322095. 8077.05   1
  -4  -4 -12 332892. 8244.01   1
  -4  -4 -11 526.956 427.846   2
  -4  -4 -11-305.382 334.153   1
   4   4  11-205.839 361.250   1
  -4  -4 -10 5010.03 957.011   2
   4   4  10 5116.81 953.051   1
   4  -8  10 3365.80 791.419   2
  -4  -4 -10 4266.97 863.101   1
  -4  -4  -9 713.260 442.346   2
  -8   4   9 103.944 171.251   1
  -4  -4  -9 578.587 373.110   1
   8  -4  -9-63.8702 149.356   1
   4   4   9-188.817 277.463   1
   4  -8   9 48.2374 349.196   2
  -8   4   8 353329. 7966.47   1
  -4  -4  -8 326847. 8075.52   2
  -4  -4  -8 350611. 8113.74   1
   8  -4  -8 378638. 8112.87   1
   4  -8   8 371816. 8465.75   2
   4   4   8 330545. 7962.89   1
  -4   8  -7 216.960 194.243   1
   4   4   7 154.790 194.905   1
  -8   4   7 176.422 192.793   1
   4  -8   7 521.480 262.357   1
   8  -4  -7-209.930 333.407   1
  -4  -4  -7 419.957 408.713   1
   4  -8   7-259.622 274.510   2
  -4  -4  -7 405.294 395.311   2
  -4  -4  -6 406.637 438.514   2
   4   4   6 543.225 268.503   1
  -4   8  -6 387.046 217.912   1
   4  -8   6 322.728 207.645   1
   8  -4  -6 308.982 273.778   1
   4  -8   6 96.1902 190.546   2
  -4  -4  -6 703.643 399.234   1
  -8   4   6 260.268 195.939   1
  -8   4   5 262.368 280.991   1
  -4  -4  -5 153.949 308.855   2
   4  -8   5 27.7205 248.336   1
  -4   8  -5 14.1258 198.572   1
   8  -4  -5-205.136 285.912   1
   4  -8   5 161.246 229.483   2
  -4  -4  -5-76.3621 182.812   1
   4   4   5 346.540 265.778   1
  -4  -4  -4 556465. 10314.3   2
  -4  -4  -4 552431. 10094.9   1
  -4   8  -4 550882. 9915.89   1
  -8   4   3-161.723 347.901   1
  -4  -4  -3 362.788 297.943   2
   8  -4  -3-314.754 267.668   1
   4   4   3 241.775 276.166   1
  -4   8  -3-124.863 317.818   1
   4  -8   3 205.226 253.254   1
  -4  -4  -3 5.45382 253.944   1
   4  -8   3-196.352 333.059   2
   4  -8   2 35984.8 2185.95   1
   8  -4  -2 38204.6 2314.43   1
  -4   8  -2 36425.6 2225.59   1
  -4  -4  -2 34571.9 2159.33   1
   4   4   2 33476.4 2156.30   1
   4  -8   2 36772.8 2369.00   2
  -8   4   2 41006.6 2421.27   1
  -4  -4  -2 34200.8 2226.87   2
  -8   4   1 260.924 335.500   1
  -4  -4  -1 382.643 236.446   2
   8  -4  -1 126.289 247.459   1
   4   4   1-173.003 202.237   1
   4  -8   1-294.078 278.236   1
  -4   8  -1-337.870 386.211   1
   4  -8   1-163.914 341.274   2
  -4  -4  -1 374.654 236.977   1
  -4  -4   1 1434.39 488.710   2
   4   4  -1 67.7108 235.844   1
   4  -8  -1 187.843 394.255   1
  -4   8   1 656.107 414.484   1
   8  -4   1 412.262 351.467   1
  -4  -4   1-270.249 325.067   1
  -8   4  -1 335.315 363.424   1
   4  -8  -1-100.647 290.769   2
  -4   8   2 148505. 4654.62   1
   4  -8  -2 143105. 4648.59   1
  -4  -4   2 148863. 4343.41   1
   8  -4   2 159166. 4768.95   1
  -4  -4   2 162033. 4719.58   2
  -8   4  -2 145979. 4733.71   1
   4  -8  -2 149660. 4830.27   2
   4   4  -2 137912. 4288.58   1
  -4  -4   3-62.7944 330.716   2
   8  -4   3 152.629 253.384   1
   4   4  -3-222.882 233.262   1
   4  -8  -3 76.7418 189.982   1
  -4   8   3 182.661 237.859   1
  -4  -4   3 43.8332 161.222   1
   4  -8  -3 154.080 330.879   2
  -8   4  -3 25.7289 196.612   1
   4  -8  -4 488043. 9480.90   1
  -4   8   4 474674. 9286.07   1
   4  -8  -4 474801. 9346.20   2
  -4  -4   5-11.4378 252.378   2
  -4   8   5 125.784 206.395   1
   8  -4   5 162.899 300.582   1
  -8   4  -5-262.849 285.447   1
   4  -8  -5-208.248 220.162   2
   4  -8  -5-7.10428 313.252   1
   4  -8  -6 27484.7 1995.29   1
  -4   8   6 23980.6 1880.88   1
   8  -4   6 26040.8 1988.13   1
  -8   4  -6 24885.1 1962.24   1
   4  -8  -6 24362.2 1948.58   2
   4  -8  -7 135.068 242.290   1
  -4   8   7 375.622 361.344   1
   8  -4   7 793.451 401.011   1
   4  -8  -7-76.0410 265.269   2
  -8   4  -7-204.323 361.219   1
   4  -8  -8 476812. 9752.51   1
  -8   4  -8 516341. 10038.8   1
  -4   8   8 481006. 9772.20   1
   8  -4   8 522644. 10042.4   1
   4  -8  -9-2.67090 207.192   2
   4  -8  -9-173.115 325.572   1
   8  -4   9 193.612 196.854   1
  -4   8   9 106.267 288.622   1
  -8   4  -9 238.490 290.246   1
  -8   4 -10 1754.08 593.064   1
   8  -4  10 1628.01 541.413   1
   4  -8 -10 2023.30 624.230   1
  -4   8  10 1274.56 453.098   1
   4  -8 -10 1440.90 540.341   2
   4  -8 -11 310.518 391.354   1
   8  -4  11 0.68171 186.281   1
  -8   4 -11-251.971 361.499   1
  -4   8  11 352.975 321.097   1
   4  -8 -11-63.2240 229.511   2
   4  -8 -12 293020. 7701.80   1
  -4   8  12 287695. 7605.13   1
   8  -4  12 276441. 7477.75   1
   4  -8 -13-315.500 446.869   1
  -4   8  13 1015.55 548.902   1
  -8   4 -13 462.167 367.226   1
   8  -4  13-252.110 289.259   1
   8  -4  14 8511.89 1335.98   1
   4  -8 -14 9271.00 1278.07   1
  -8   4 -14 8430.49 1268.27   1
  -4   8  14 9087.89 1324.45   1
  -8   4 -15 164.379 324.009   1
   4  -8 -15 486.990 383.365   1
  -4   8  15 96.9884 219.210   1
   8  -4  15 76.4066 251.990   1
  -4   8  16 246876. 7424.29   1
   4  -8 -16 237915. 7396.62   1
  -8   4 -16 220344. 7243.61   1
   4  -8 -17-177.220 236.945   1
  -4   8  17-169.809 182.217   1
  -3  -5 -17 17406.2 1968.62   2
   3   5  16 8484.32 1298.97   1
  -5  -3 -16 11345.1 1486.07   2
  -3  -5 -16 9603.64 1376.60   1
  -5  -3 -16 9287.24 1342.65   1
   5   3  16 11362.0 1483.59   1
  -3  -5 -16 8894.31 1478.69   2
  -3  -5 -15 144035. 5687.18   2
  -5  -3 -15 149178. 5673.74   2
  -3  -5 -15 149651. 5660.64   1
  -5  -3 -15 160940. 5786.06   1
   3   5  15 168714. 5959.76   1
   5   3  15 161741. 5784.70   1
  -3  -5 -14 97503.6 4479.18   2
  -5  -3 -14 104392. 4598.39   2
  -3  -5 -14 106468. 4552.15   1
  -5  -3 -14 106962. 4628.24   1
   3   5  14 90383.3 4304.26   1
   5   3  14 91827.3 4288.21   1
   5   3  13 46316.0 2922.98   1
  -5  -3 -13 50174.8 3068.58   2
  -3  -5 -13 42222.2 2966.25   2
  -3  -5 -13 49661.0 3085.84   1
  -5  -3 -13 43294.4 2842.11   1
   3   5  13 48410.6 3006.64   1
   3   5  12 3905.61 837.895   1
  -3  -5 -12 4439.77 948.684   2
   5   3  12 4024.08 871.211   1
  -3  -5 -12 4053.63 887.782   1
  -5  -3 -12 3584.54 782.430   1
  -5  -3 -12 3850.67 823.879   2
   3   5  11 1147.17 541.130   1
  -3  -5 -11 1140.89 508.851   2
  -5  -3 -11 672.158 357.603   2
   5   3  11 1729.56 599.890   1
  -3  -5 -11 824.243 406.923   1
  -5  -3 -11 787.121 472.760   1
   3  -8  11 1047.93 524.250   2
  -3  -5 -10 259527. 7218.77   2
   5   3  10 275991. 7162.73   1
   8  -5 -10 279485. 7040.54   1
  -3  -5 -10 262123. 7147.20   1
  -5  -3 -10 253619. 6980.33   1
   3   5  10 258330. 6937.78   1
   3  -8  10 255399. 7176.46   2
  -8   5  10 227550. 6555.31   1
  -5  -3 -10 250831. 7027.87   2
  -5  -3  -9 42301.0 2708.89   2
   3  -8   9 45454.8 2832.60   2
   5  -8   9 42575.6 2776.86   2
  -3  -5  -9 48016.6 2895.91   1
  -5  -3  -9 54252.9 2972.77   1
   3   5   9 45703.2 2753.57   1
   5   3   9 55778.3 2977.73   1
  -3  -5  -9 52820.0 3082.43   2
   8  -5  -9 44594.2 2652.32   1
  -8   5   9 53936.4 2937.32   1
  -5  -3  -8 91352.0 3920.72   2
   5  -8   8 97787.5 3773.40   1
  -3  -5  -8 84540.8 3765.02   1
  -5   8  -8 89377.1 3773.48   1
  -5  -3  -8 88911.3 3940.29   1
   8  -3  -8 98745.9 3848.96   1
   5   3   8 83896.3 3741.85   1
   3   5   8 87272.7 3765.68   1
   3  -8   8 95684.9 3994.42   2
  -3  -5  -8 99444.8 4170.00   2
   8  -5  -8 107491. 4096.44   1
  -8   3   8 72591.3 3412.08   1
  -8   5   8 93008.4 3870.62   1
   5  -8   8 94786.4 4059.18   2
  -5  -3  -7 168085. 5490.52   2
   8  -3  -7 192895. 5547.52   1
  -5   8  -7 219190. 5990.20   1
  -3  -5  -7 198989. 5870.27   1
  -5  -3  -7 188178. 5819.55   1
   5  -8   7 207456. 5583.35   1
   5  -8   7 186439. 5783.35   2
   3   5   7 197266. 5742.49   1
   8  -5  -7 215722. 5875.32   1
   3  -8   7 216042. 6082.70   2
  -8   3   7 202246. 5721.58   1
   5   3   7 200598. 5840.07   1
  -8   5   7 191493. 5662.97   1
  -3  -5  -7 210703. 6125.12   2
  -3   8  -6 190523. 5256.76   1
   8  -3  -6 207691. 5588.01   1
  -5   8  -6 192543. 5478.40   1
   3  -8   6 175618. 4945.53   1
  -5  -3  -6 200135. 5768.57   2
  -3  -5  -6 183255. 5543.17   1
   5  -8   6 194798. 5749.55   2
  -5  -3  -6 182023. 5567.48   1
  -8   5   6 193671. 5600.42   1
   5  -8   6 191000. 5308.75   1
  -8   3   6 157743. 5001.12   1
   8  -5  -6 176632. 5302.78   1
   3   5   6 167135. 5280.18   1
   3  -8   6 157532. 5205.31   2
   5   3   6 171407. 5351.23   1
  -3  -5  -6 177730. 5578.62   2
  -5  -3  -5 254414. 6601.30   2
  -3   8  -5 274836. 6338.91   1
   5  -8   5 250685. 6209.20   1
  -8   3   5 256265. 6377.98   1
  -5  -3  -5 256974. 6600.39   1
   8  -5  -5 239796. 6205.09   1
  -8   5   5 221069. 6175.59   1
   3   5   5 238193. 6361.34   1
   3  -8   5 256835. 6137.66   1
   3  -8   5 231818. 6299.52   2
   8  -3  -5 227896. 6050.80   1
   5  -8   5 229058. 6431.75   2
   5   3   5 257758. 6624.13   1
  -3  -5  -5 245628. 6435.24   1
  -5   8  -5 259195. 6383.70   1
  -3  -5  -5 312530. 7216.64   2
  -8   3   4 8924.60 1062.20   1
  -5   8  -4 12361.8 1328.28   1
  -5  -3  -4 12231.2 1365.88   2
  -3   8  -4 12073.9 1244.98   1
   3  -8   4 11942.7 1287.83   1
   5  -8   4 13162.2 1323.15   1
  -3  -5  -4 11583.2 1310.65   1
  -5  -3  -4 13297.0 1411.43   1
  -8   5   4 14123.2 1425.13   1
   8  -5  -4 11436.9 1262.43   1
   8  -3  -4 13513.9 1357.38   1
   3   5   4 13366.5 1395.28   1
   5  -8   4 11551.9 1351.34   2
   3  -8   4 13058.5 1420.10   2
   5   3   4 12052.9 1333.61   1
  -3  -5  -4 12242.2 1367.41   2
  -5  -3  -3 92312.0 3740.29   2
  -5   8  -3 83014.1 3475.70   1
  -8   3   3 95782.5 3698.53   1
  -3   8  -3 85124.1 3414.73   1
   3  -8   3 87492.9 3485.17   1
  -8   5   3 72779.2 3341.43   1
   5  -8   3 84633.3 3615.17   2
  -3  -5  -3 70243.1 3273.71   1
   5  -8   3 86248.0 3483.03   1
  -5  -3  -3 84750.5 3561.59   1
   8  -5  -3 74478.0 3278.14   1
   5   3   3 85959.4 3546.17   1
   3   5   3 89719.6 3630.08   1
   3  -8   3 92284.4 3739.38   2
  -3  -5  -3 87153.2 3624.32   2
   8  -3  -3 93645.7 3634.77   1
   3  -8   2 636288. 10690.8   1
   5  -8   2 577437. 10715.3   2
  -5  -3  -1 22197.1 1779.55   2
   5  -8   1 20857.4 1705.67   1
  -5   8  -1 26765.0 1882.82   1
  -3   8  -1 22376.8 1765.30   1
   3  -8   1 21871.7 1716.19   1
   8  -5  -1 19671.9 1689.35   1
   5  -8   1 23089.5 1841.85   2
  -3  -5  -1 27644.6 1960.14   1
  -8   5   1 26488.0 1959.87   1
  -5  -3  -1 29882.1 1995.00   1
   3   5   1 22925.2 1749.62   1
  -8   3   1 23546.9 1843.25   1
   3  -8   1 24340.8 1903.54   2
   8  -3  -1 19018.0 1613.25   1
   5   3   1 22408.2 1746.83   1
  -3  -5  -1 24890.4 1846.85   2
  -5  -3   0 10938.4 1234.12   2
   3  -8   0 8616.16 1144.98   2
  -5   8   0 8863.80 1090.52   1
   3  -8   0 9160.62 1149.10   1
  -3   8   0 7894.14 1035.07   1
   8  -3   0 10291.8 1165.74   1
  -3  -5   0 8829.03 1101.89   1
  -5  -3   0 9043.02 1115.84   1
   5  -8   0 9064.47 1132.65   1
   3   5   0 7738.05 1027.16   1
   8  -5   0 8235.34 1076.37   1
  -8   5   0 7833.69 1091.02   1
  -8   3   0 6530.42 974.452   1
   5   3   0 7199.99 1029.06   1
  -3  -5   0 9185.26 1144.02   2
   5  -8   0 8578.42 1115.15   2
  -5   8   1 262456. 6450.17   1
   8  -5   1 267887. 6500.59   1
   3  -8  -1 272114. 6524.72   1
  -3  -5   1 251778. 6244.05   2
  -3   8   1 257239. 6429.02   1
   5  -8  -1 272241. 6660.73   1
  -3  -5   1 284761. 6369.20   1
  -5  -3   1 271905. 6357.25   1
  -8   5  -1 258848. 6513.03   1
   3   5  -1 269555. 6242.28   1
   5  -8  -1 268542. 6652.89   2
  -8   3  -1 249061. 6368.00   1
   8  -3   1 275273. 6599.19   1
   3  -8  -1 264129. 6574.85   2
   5   3  -1 266817. 6220.18   1
  -5  -3   1 232877. 5980.96   2
   8  -5   2 222947. 5852.76   1
  -5   8   2 213606. 5830.94   1
   5  -8  -2 227576. 6068.87   1
   3  -8  -2 209527. 5785.94   1
  -3   8   2 217347. 5812.27   1
  -3  -5   2 220488. 5524.33   1
  -5  -3   2 247002. 5840.83   1
  -8   5  -2 236437. 6231.98   1
   8  -3   2 206089. 5728.06   1
   3  -8  -2 223249. 5976.51   2
   3   5  -2 230864. 5612.99   1
  -5  -3   2 216588. 5661.81   2
   5  -8  -2 224734. 5985.23   2
  -8   3  -2 219648. 5907.92   1
   5   3  -2 213811. 5508.74   1
  -3  -5   2 264940. 6249.94   2
   3  -8  -3 226192. 6101.05   2
   5  -8  -3 226710. 6058.65   2
  -5   8   3 203279. 5722.17   1
   5  -8  -3 228537. 6082.54   1
   5   3  -3 244541. 5754.50   1
   3  -8  -3 216782. 5925.43   1
   8  -5   3 233436. 5962.27   1
  -3   8   3 226093. 6031.45   1
  -5  -3   3 228679. 5575.54   1
  -3  -5   3 228438. 5491.18   1
   3   5  -3 240407. 5653.80   1
   8  -3   3 224355. 5951.18   1
  -8   3  -3 267446. 6433.57   1
  -8   5  -3 252415. 6310.47   1
  -3  -5   3 180975. 5319.71   2
  -5  -3   3 245343. 5897.88   2
  -5   8   4 74267.2 3342.72   1
   5  -8  -4 76777.4 3415.65   1
   3  -8  -4 79664.5 3409.93   1
  -3   8   4 71748.4 3258.81   1
   3  -8  -4 71471.1 3320.30   2
   8  -3   4 67999.0 3205.12   1
  -8   5  -4 74043.5 3287.44   1
  -8   3  -4 79958.1 3417.69   1
   5  -8  -4 67577.0 3263.45   2
  -3  -5   4 73509.5 3188.62   2
  -5  -3   4 70772.4 2984.21   2
   8  -5   4 66959.9 3132.53   1
  -8   5  -5 3765.05 844.982   1
   8  -5   5 3015.03 705.363   1
   5  -8  -5 2600.69 638.628   1
  -8   3  -5 2655.84 635.664   1
   3  -8  -5 2736.77 661.698   1
  -5   8   5 2704.27 663.717   1
  -3  -5   5 3693.84 752.601   2
   8  -3   5 2944.31 679.025   1
  -3   8   5 3306.46 734.058   1
   5  -8  -5 2912.62 691.382   2
   3  -8  -5 3381.51 789.237   2
  -8   5  -6 424760. 8980.06   1
  -5   8   6 463695. 9167.88   1
   5  -8  -6 444469. 9120.08   1
   3  -8  -6 430389. 8921.12   1
   5  -8  -6 447549. 9132.86   2
  -3   8   6 415161. 8741.87   1
  -3  -5   6 396596. 8318.72   2
   8  -5   6 451623. 9063.86   1
   3  -8  -6 454328. 9269.99   2
  -5   8   7 108397. 4149.74   1
  -8   5  -7 91856.5 3879.35   1
   3  -8  -7 101040. 4039.39   1
  -3   8   7 101850. 4045.42   1
   8  -3   7 104331. 4038.26   1
   3  -8  -7 97030.9 4036.84   2
   5  -8  -7 94304.2 3962.41   1
  -8   3  -7 97467.2 4031.52   1
   8  -5   7 96163.5 3895.68   1
   5  -8  -7 99419.2 4086.74   2
  -5   8   8 38493.1 2496.18   1
   5  -8  -8 40828.4 2585.92   2
   5  -8  -8 43320.7 2611.68   1
   3  -8  -8 42181.6 2602.66   1
  -3   8   8 42457.2 2613.35   1
   8  -3   8 42633.6 2537.64   1
   8  -5   8 39740.1 2473.19   1
  -8   3  -8 37222.8 2507.61   1
  -8   5  -8 37597.7 2466.14   1
   3  -8  -8 41344.4 2603.89   2
   5  -8  -9 305327. 7529.54   1
  -5   8   9 280944. 7212.57   1
   3  -8  -9 297408. 7485.70   2
   3  -8  -9 263353. 7076.87   1
  -3   8   9 272365. 7102.78   1
   8  -3   9 287260. 7208.58   1
   8  -5   9 302407. 7434.40   1
   5  -8  -9 298467. 7430.63   2
  -8   3  -9 294832. 7519.48   1
  -8   5  -9 286392. 7308.25   1
   5  -8 -10 167039. 5488.24   1
  -5   8  10 134407. 4931.44   1
   3  -8 -10 149747. 5268.88   1
   8  -3  10 160882. 5401.35   1
  -3   8  10 177146. 5624.80   1
   8  -5  10 165132. 5422.26   1
  -8   3 -10 156088. 5331.92   1
  -8   5 -10 145648. 5228.19   1
   3  -8 -10 160122. 5434.19   2
   8  -3  11 28294.4 2206.08   1
   5  -8 -11 27436.0 2230.25   1
  -5   8  11 27490.2 2176.94   1
   3  -8 -11 28548.5 2267.88   1
  -3   8  11 26343.3 2154.58   1
   3  -8 -11 28861.7 2304.96   2
  -8   3 -11 27337.0 2209.93   1
  -8   5 -11 26547.7 2185.35   1
   8  -5  11 26462.7 2119.93   1
   8  -5  12 663.638 411.794   1
   5  -8 -12 1195.72 455.936   1
   3  -8 -12 1347.80 559.295   2
   3  -8 -12 1214.26 478.255   1
  -8   5 -12 1092.02 538.930   1
  -5   8  12 1372.54 536.477   1
  -3   8  12 1259.04 475.423   1
  -8   3 -12 1860.82 633.505   1
   8  -3  12 1047.46 456.520   1
   8  -5  13 3900.07 867.400   1
   5  -8 -13 5820.10 1040.49   1
   3  -8 -13 4323.90 877.352   1
  -5   8  13 4313.72 863.088   1
  -3   8  13 4713.30 934.918   1
  -8   5 -13 5356.62 1062.06   1
   8  -3  13 3904.85 858.490   1
  -8   3 -13 4070.70 914.463   1
   8  -3  14 143154. 5394.31   1
   5  -8 -14 154489. 5656.46   1
  -5   8  14 168679. 5848.75   1
   3  -8 -14 159657. 5723.67   1
   8  -5  14 140140. 5462.12   1
  -3   8  14 166522. 5734.78   1
  -8   3 -14 141861. 5447.83   1
  -8   5 -14 147247. 5681.42   1
  -5   8  15 62392.2 3574.10   1
   5  -8 -15 65117.6 3672.02   1
   3  -8 -15 81581.5 4067.85   1
  -3   8  15 77619.6 3960.62   1
   8  -3  15 66686.5 3732.08   1
  -8   3 -15 76518.8 4012.27   1
  -8   5 -15 75224.9 4025.02   1
   8  -3  16 54877.2 3478.59   1
  -5   8  16 51234.4 3292.02   1
   5  -8 -16 59635.7 3595.39   1
   3  -8 -16 58935.8 3450.94   1
  -8   3 -16 59224.8 3628.76   1
   3  -8 -17 48941.8 3232.16   1
  -3   8  17 43178.7 3110.28   1
  -2  -6 -17 52476.2 3513.85   2
  -2  -6 -16 1235.10 603.847   2
  -6  -2 -16 1413.44 545.324   2
   6   2  16 1120.24 549.462   1
   2   6  16 1977.15 685.683   1
  -2  -6 -16 1542.74 616.420   1
  -6  -2 -16 462.133 318.463   1
  -6  -2 -15 48849.2 3148.72   2
   6   2  15 57114.6 3421.87   1
  -2  -6 -15 48607.5 3243.92   2
  -2  -6 -15 55889.6 3353.74   1
  -6  -2 -15 56572.3 3329.60   1
   2   6  15 65360.7 3590.64   1
  -6  -2 -14 54386.5 3259.52   2
  -2  -6 -14 55982.4 3415.88   2
  -2  -6 -14 57903.8 3363.83   1
  -6  -2 -14 55053.7 3284.49   1
   2   6  14 61213.0 3432.07   1
   6   2  14 57596.7 3376.91   1
  -2  -6 -13 53958.2 3214.29   1
  -6  -2 -13 56308.6 3231.64   2
  -6  -2 -13 55092.8 3273.81   1
   2   6  13 52605.1 3112.93   1
  -2  -6 -13 53081.9 3232.38   2
   6   2  13 53807.5 3219.84   1
   8  -6 -12 19947.5 1917.86   1
   2  -8  12 23513.6 2121.97   2
  -2  -6 -12 19437.7 1908.90   1
  -6  -2 -12 20036.0 1939.51   1
   2   6  12 19495.2 1885.21   1
   6   2  12 21136.8 1999.09   1
  -2  -6 -12 19063.7 1885.12   2
  -6  -2 -12 23823.2 2114.50   2
  -8   6  11 13389.9 1551.66   1
  -6  -2 -11 13214.2 1581.97   2
   8  -6 -11 11890.1 1466.43   1
  -2  -6 -11 9851.65 1394.17   1
  -6  -2 -11 13865.7 1574.53   1
   2   6  11 12901.6 1535.15   1
   2  -8  11 13435.1 1572.33   2
   6   2  11 10726.9 1389.06   1
  -2  -6 -11 14826.1 1633.66   2
  -6  -2 -10 184716. 5987.17   2
   8  -6 -10 198681. 5994.34   1
   2  -8  10 182743. 6129.60   2
  -6  -2 -10 178602. 5869.17   1
   6   2  10 174008. 5721.30   1
   2   6  10 205912. 6148.68   1
  -2  -6 -10 174909. 5768.02   1
  -2  -6 -10 203296. 6231.80   2
  -8   6  10 219008. 6333.22   1
  -6   8  -9 7197.41 1062.91   1
   6  -8   9 6084.41 1000.08   1
  -2  -6  -9 6314.41 1034.36   2
  -6  -2  -9 6945.78 1042.65   2
   8  -6  -9 6788.78 1063.03   1
   2  -8   9 7365.24 1111.05   2
   2   6   9 6636.09 1102.98   1
   6   2   9 6345.31 1003.19   1
  -2  -6  -9 5979.40 1039.68   1
  -6  -2  -9 7715.97 1203.89   1
  -8   6   9 6185.64 1001.80   1
  -6  -2  -8 160203. 5415.98   2
   8  -6  -8 169926. 5351.48   1
   6  -8   8 183837. 5445.40   1
  -2  -6  -8 158779. 5346.44   1
  -6  -2  -8 168280. 5554.81   1
   2   6   8 165724. 5397.67   1
  -2  -6  -8 163005. 5471.64   2
  -6   8  -8 183532. 5578.44   1
   2  -8   8 174192. 5541.58   2
  -8   6   8 154965. 5180.45   1
   6   2   8 172443. 5449.02   1
   8  -6  -7 84459.1 3682.45   1
  -6  -2  -7 106411. 4279.52   2
   6  -8   7 96646.7 3844.66   1
  -2  -6  -7 82971.6 3817.74   1
   8  -2  -7 92531.1 3711.37   1
  -6  -2  -7 73893.8 3599.33   1
   2   6   7 89379.8 3861.54   1
  -6   8  -7 89290.4 3781.63   1
   2  -8   7 86131.0 3812.42   2
   6  -8   7 85055.8 3886.76   2
   6   2   7 84326.9 3666.31   1
  -2  -6  -7 87642.1 3873.13   2
  -8   6   7 98591.1 3993.22   1
  -8   6   6 589894. 10871.7   1
  -6  -2  -6 560394. 10824.5   2
  -2  -6  -6 586250. 11007.8   1
  -2  -6  -6 588746. 11043.5   2
  -6  -2  -5 276240. 6914.06   2
  -2   8  -5 258298. 6240.10   1
   2  -8   5 287496. 7108.44   2
  -2  -6  -5 289101. 7142.53   1
  -6  -2  -5 313348. 7461.43   1
   2   6   5 292759. 7114.25   1
   8  -2  -5 241414. 6337.01   1
   6   2   5 282390. 7006.67   1
   6  -8   5 285525. 6794.43   1
  -8   2   5 287986. 6763.93   1
  -2  -6  -5 265729. 6900.58   2
   8  -6  -5 273146. 6761.14   1
   6  -8   5 290690. 7236.22   2
  -6   8  -5 278763. 6971.62   1
  -8   6   5 310431. 7186.80   1
   8  -6  -4 5185.11 895.021   1
   2   6   4 5628.77 963.181   1
  -2  -6  -4 5484.16 964.784   2
  -6  -2  -4 4797.11 885.314   2
  -8   6   4 6289.29 1031.97   1
   2  -8   4 7154.14 978.130   1
   6  -8   4 5256.09 838.456   1
  -6   8  -4 5635.85 889.774   1
  -2   8  -4 4468.99 812.501   1
  -2  -6  -4 4499.37 848.379   1
   2  -8   4 4696.89 857.647   2
   6   2   4 5135.59 874.085   1
  -6  -2  -4 5827.78 958.730   1
   8  -2  -4 6800.60 964.716   1
   6  -8   4 5525.41 950.920   2
  -8   2   4 3766.40 748.329   1
   6   2   3 322192. 7516.09   1
  -6  -2  -3 355986. 7750.97   2
   6  -8   3 321612. 7323.41   1
  -2   8  -3 334442. 7283.89   1
  -8   2   3 365697. 7747.59   1
   8  -2  -3 367453. 7796.57   1
  -2  -6  -3 354175. 7839.23   1
  -6  -2  -3 330787. 7700.41   1
   2   6   3 339577. 7758.35   1
  -2  -6  -3 360340. 7916.29   2
   8  -6  -3 343135. 7573.06   1
   6  -8   3 359371. 8055.07   2
   2  -8   3 346389. 7782.49   2
  -8   6   3 291883. 7238.97   1
   2  -8   3 345069. 7399.95   1
  -6   8  -3 354646. 7813.67   1
   2  -8   2 81357.8 3342.36   1
  -6   8  -2 81423.8 3494.24   1
   6   2   2 83182.9 3524.06   1
  -2   8  -2 80754.7 3343.59   1
   6  -8   2 78855.9 3362.63   1
  -2  -6  -2 73779.3 3346.61   1
  -6  -2  -2 87474.8 3630.41   1
   2   6   2 79983.4 3475.58   1
   8  -6  -2 80989.8 3406.28   1
   8  -2  -2 75028.4 3321.09   1
  -8   2   2 73366.3 3225.06   1
   6  -8   2 84657.8 3700.83   2
   2  -8   2 73076.5 3356.86   2
  -6  -2  -2 88492.0 3593.58   2
  -8   6   2 93777.1 3779.07   1
  -2  -6  -2 81632.6 3535.73   2
  -6   8  -1 153629. 4948.14   1
   6   2   1 158233. 4850.01   1
   6  -8   1 165820. 5193.52   2
   2  -8   1 164482. 4913.07   1
  -2   8  -1 157005. 4838.43   1
  -2  -6  -1 164512. 4996.58   1
   6  -8   1 155504. 4857.44   1
  -6  -2  -1 155754. 4953.20   1
   8  -6  -1 164561. 4962.41   1
   2   6   1 163353. 4976.89   1
   8  -2  -1 143878. 4665.53   1
  -2  -6  -1 161499. 5035.20   2
  -8   2   1 156997. 4864.80   1
   2  -8   1 163249. 5110.01   2
  -8   6   1 185596. 5389.74   1
  -6  -2  -1 156051. 4843.18   2
  -6  -2   0 11173.8 1239.85   2
  -2  -6   0 7019.92 1026.45   2
  -6   8   0 10771.9 1238.98   1
   6   2   0 9638.99 1122.80   1
   6  -8   0 10230.4 1217.60   1
   2  -8   0 10844.5 1226.15   1
  -2   8   0 10206.7 1202.61   1
  -2  -6   0 10489.3 1202.40   1
   6  -8   0 11141.7 1341.68   2
   8  -6   0 9141.34 1102.69   1
  -6  -2   0 11990.3 1305.67   1
   2   6   0 10270.9 1199.77   1
   8  -2   0 8466.71 1126.85   1
  -8   2   0 8449.03 1083.91   1
   2  -8   0 9116.68 1186.93   2
  -8   6   0 12216.1 1340.13   1
  -2  -6   1 1079.02 342.776   2
  -6  -2   1 572.804 255.309   2
  -8   6  -1 1250.24 504.784   1
  -6   8   1 748.829 351.885   1
   2  -8  -1 723.960 331.134   1
   6  -8  -1 985.137 309.543   1
  -2  -6   1 735.280 334.426   1
   8  -6   1 1240.49 449.876   1
  -2   8   1 357.194 241.714   1
   8  -2   1 1262.78 529.784   1
   6   2  -1 857.156 404.097   1
  -6  -2   1 886.996 394.741   1
   6  -8  -1 381.550 365.942   2
  -8   2  -1 827.192 423.147   1
   2   6  -1 898.281 314.383   1
  -6  -2   2 382627. 7779.00   2
   2  -8  -2 355442. 7972.51   2
  -6   8   2 361804. 7906.83   1
   8  -6   2 349353. 7736.26   1
  -2   8   2 362219. 7841.12   1
  -2  -6   2 367146. 7605.50   1
   6  -8  -2 355009. 7858.82   1
   6  -8  -2 367435. 8018.96   2
  -6  -2   2 421200. 8164.71   1
   8  -2   2 334797. 7637.63   1
  -8   2  -2 296834. 7329.19   1
  -2  -6   2 378751. 7946.80   2
   2  -8  -2 339918. 7625.20   1
  -8   6  -2 396501. 8238.16   1
  -2  -6   3 1416.37 505.518   2
  -8   6  -3 424.124 270.506   1
  -6  -2   3 1139.05 404.757   2
   2   6  -3 1064.66 372.266   1
   6  -8  -3 735.023 375.878   1
   8  -6   3 573.019 381.693   1
  -6   8   3 709.179 345.460   1
   2  -8  -3 1095.44 418.062   1
  -2  -6   3 701.306 314.341   1
   8  -2   3 1281.11 427.390   1
  -2   8   3 1338.86 512.018   1
   6   2  -3 914.913 391.552   1
  -6  -2   3 634.267 384.251   1
   2  -8  -3 1062.99 375.667   2
   6  -8  -3 803.466 442.397   2
  -8   2  -3 1078.88 390.886   1
  -6   8   4 338149. 7564.89   1
   6  -8  -4 313353. 7574.59   1
   8  -6   4 305893. 7238.97   1
  -2   8   4 323671. 7471.62   1
   8  -2   4 336624. 7475.72   1
  -8   2  -4 365139. 7872.31   1
   2  -8  -4 328370. 7571.08   1
  -8   6  -4 340327. 7755.39   1
   6  -8  -4 322894. 7574.66   2
  -2  -6   4 354496. 7706.36   2
   2  -8  -4 326237. 7654.71   2
   8  -6   5 176477. 5265.81   1
  -6   8   5 156947. 5043.05   1
   2  -8  -5 158501. 5121.78   1
   6  -8  -5 135199. 4776.95   1
  -2   8   5 146067. 4857.54   1
   8  -2   5 157452. 4963.48   1
  -8   2  -5 192128. 5598.15   1
  -8   6  -5 159137. 5068.54   1
   6  -8  -5 154253. 5086.43   2
  -2  -6   5 162219. 5029.42   2
   2  -8  -5 153943. 5093.56   2
  -6   8   6 539830. 10301.6   1
   6  -8  -6 518373. 10208.8   1
   2  -8  -6 502668. 10077.0   1
  -2   8   6 518744. 10031.8   1
  -2  -6   6 551811. 10107.0   2
   6  -8  -6 560106. 10343.1   2
   2  -8  -6 508992. 10193.8   2
   8  -6   6 521208. 10003.3   1
  -6   8   7 240676. 6456.63   1
   6  -8  -7 207247. 6158.66   1
   2  -8  -7 229785. 6441.18   1
   8  -2   7 245212. 6513.67   1
  -2   8   7 234429. 6358.42   1
   2  -8  -7 227281. 6393.94   2
  -8   2  -7 228062. 6391.46   1
  -8   6  -7 237777. 6522.74   1
   6  -8  -7 245522. 6540.75   2
   8  -6   7 238740. 6389.99   1
  -2  -6   7 218748. 6063.66   2
   2  -8  -8 5526.39 970.767   2
   8  -2   8 6980.82 1077.03   1
   6  -8  -8 6785.47 1055.84   1
   2  -8  -8 5746.32 1008.05   1
  -6   8   8 6282.24 1035.91   1
   8  -6   8 8039.63 1090.65   1
  -2   8   8 5494.29 925.150   1
  -8   6  -8 8069.54 1184.31   1
   6  -8  -8 6981.42 1072.62   2
  -8   2  -8 7123.80 1066.58   1
  -6   8   9 134552. 4898.52   1
   6  -8  -9 141321. 5060.93   1
   8  -2   9 133169. 4871.76   1
   2  -8  -9 133560. 4937.39   1
  -2   8   9 142771. 4942.50   1
  -8   2  -9 135952. 4968.26   1
   8  -6   9 150645. 5101.26   1
  -8   6  -9 136435. 4926.40   1
   2  -8  -9 137132. 5066.01   2
  -6   8  10 82556.5 3832.41   1
   6  -8 -10 65755.5 3460.68   1
   8  -2  10 76393.9 3672.11   1
   2  -8 -10 75656.9 3707.86   1
  -8   2 -10 75943.2 3763.40   1
   8  -6  10 73528.6 3612.33   1
  -2   8  10 77238.6 3662.59   1
  -8   6 -10 74038.5 3658.28   1
   2  -8 -10 79729.7 3807.78   2
   2  -8 -11 89633.9 4158.69   2
   6  -8 -11 92633.0 4169.54   1
  -6   8  11 90996.2 4096.64   1
   8  -2  11 102109. 4274.01   1
   2  -8 -11 90636.2 4140.28   1
  -2   8  11 97128.6 4189.71   1
   8  -6  11 95114.2 4170.12   1
  -8   2 -11 87105.4 4032.45   1
  -8   6 -11 95565.6 4229.79   1
   8  -2  12 9357.48 1301.92   1
  -6   8  12 8856.88 1278.94   1
   6  -8 -12 10536.6 1412.72   1
   2  -8 -12 7892.28 1225.41   1
  -2   8  12 8875.96 1255.97   1
   8  -6  12 8799.52 1225.19   1
  -8   2 -12 8622.54 1281.58   1
  -8   6 -12 9910.89 1405.74   1
   2  -8 -12 10100.9 1365.67   2
   8  -2  13 27118.6 2271.69   1
  -6   8  13 28009.6 2279.54   1
   6  -8 -13 27136.5 2305.34   1
   2  -8 -13 27786.4 2261.88   1
  -2   8  13 27268.9 2256.23   1
   8  -6  13 26498.4 2259.78   1
  -8   2 -13 28864.4 2361.92   1
  -8   6 -13 28723.1 2386.21   1
   2  -8 -13 24733.0 2314.83   2
   8  -2  14 117403. 4845.86   1
  -6   8  14 138337. 5363.00   1
   2  -8 -14 127949. 5106.25   1
  -2   8  14 127716. 4997.85   1
  -8   2 -14 115559. 4967.63   1
   6  -8 -14 121295. 5031.34   1
   6  -8 -15 2010.47 621.053   1
   2  -8 -15 2284.69 690.455   1
  -6   8  15 1685.18 680.071   1
   8  -2  15 1994.45 696.625   1
  -2   8  15 2751.67 749.775   1
  -8   2 -15 1271.87 544.047   1
   6  -8 -16 53698.3 3451.95   1
  -2   8  16 49032.7 3181.32   1
  -8   2 -16 49072.4 3274.03   1
   2  -8 -16 50420.9 3264.28   1
   8  -2  16 50724.4 3276.05   1
  -8   2 -17 10499.3 1556.82   1
  -1  -7 -16 150719. 6043.62   2
  -1  -7 -15 2573.76 775.622   2
  -7  -1 -15 3248.48 873.816   2
   7   1  15 3730.37 847.844   1
  -1  -7 -15 3329.86 803.653   1
  -7  -1 -15 3107.99 778.630   1
   1   7  15 3768.91 848.283   1
  -1  -7 -14 3894.91 951.984   2
  -7  -1 -14 5621.54 1111.50   2
   7   1  14 5308.08 1038.71   1
  -1  -7 -14 4272.93 974.941   1
  -7  -1 -14 4726.31 938.225   1
   1   7  14 5477.16 975.490   1
  -1  -7 -13 331.376 277.541   2
  -7  -1 -13-140.136 344.091   2
   8  -7 -13 151.679 221.588   1
   1   7  13 562.607 362.288   1
   7   1  13 229.701 287.930   1
  -1  -7 -13-174.677 343.552   1
  -7  -1 -13 451.189 441.429   1
  -8   7  12 136359. 5348.77   1
  -7  -1 -12 151183. 5650.07   2
   7   1  12 155826. 5468.33   1
  -1  -7 -12 153765. 5550.64   1
  -7  -1 -12 162017. 5722.72   1
   1   7  12 157671. 5501.82   1
   8  -7 -12 134695. 5287.40   1
  -1  -7 -12 158747. 5727.87   2
  -1  -7 -11 305.995 370.808   2
  -7  -1 -11 67.8683 290.290   2
  -8   7  11-271.523 311.864   1
   8  -7 -11 254.696 250.761   1
  -1  -7 -11-187.888 313.432   1
   7   1  11 107.448 294.410   1
  -7  -1 -11 170.113 325.706   1
   1   7  11-325.219 349.611   1
  -7  -1 -10 13427.7 1611.58   2
  -1  -7 -10 11613.3 1455.59   1
   7  -8  10 11671.9 1395.40   1
   8  -7 -10 11803.0 1471.41   1
  -7  -1 -10 11997.4 1439.40   1
   1   7  10 12194.7 1468.60   1
  -8   7  10 11955.6 1441.24   1
  -7   8 -10 10949.8 1429.28   1
   1  -8  10 12875.6 1562.41   2
  -1  -7 -10 9875.41 1330.82   2
   7   1  10 11204.8 1342.58   1
  -1  -7  -9 4312.85 875.920   2
  -7  -1  -9 3470.43 844.004   2
   8  -7  -9 4125.84 864.946   1
  -7   8  -9 4711.32 903.792   1
  -8   7   9 4696.59 942.345   1
  -1  -7  -9 4229.74 883.951   1
   7  -8   9 5292.25 898.800   1
   7   1   9 5454.54 954.366   1
  -7  -1  -9 4252.61 888.273   1
   1  -8   9 4910.72 932.442   2
   1   7   9 4556.78 828.319   1
  -8   7   8 494464. 10032.9   1
  -7  -1  -8 440425. 9898.52   2
   7  -8   8 469466. 9590.12   1
  -1  -7  -8 463377. 9824.90   1
   8  -7  -8 445048. 9485.98   1
   1   7   8 465529. 9681.94   1
  -7  -1  -8 428017. 9597.18   1
   7   1   8 470220. 9697.44   1
   1  -8   8 388939. 9068.39   2
  -1  -7  -8 442525. 9634.64   2
  -7   8  -8 470677. 9800.13   1
   7  -8   7 6475.41 975.675   1
  -1  -7  -7 5759.69 948.841   2
  -7   8  -7 6214.33 1017.71   1
  -7  -1  -7 8130.06 1181.29   2
  -8   7   7 5796.73 987.268   1
   8  -7  -7 7311.04 1112.57   1
  -1  -7  -7 6135.31 994.607   1
   1   7   7 6273.44 1031.98   1
   7   1   7 6393.28 1021.49   1
  -7  -1  -7 6444.26 1060.40   1
   1  -8   7 4421.31 890.178   2
  -8   7   6 40411.5 2551.42   1
   7   1   6 44423.4 2666.20   1
  -7  -1  -6 43445.2 2756.49   2
   8  -7  -6 46411.1 2719.29   1
  -1  -7  -6 47211.4 2783.47   1
   7  -8   6 45437.1 2692.10   1
   1   7   6 47460.8 2777.83   1
  -7  -1  -6 48179.1 2829.67   1
  -7   8  -6 46706.7 2803.64   1
   1  -8   6 39490.4 2546.16   2
  -1  -7  -6 45402.9 2741.20   2
  -1  -7  -5 1265.67 482.093   2
  -7  -1  -5 2149.08 625.248   2
  -7   8  -5 2473.04 596.709   1
  -8   7   5 3062.49 705.151   1
  -1  -7  -5 2325.11 659.721   1
   1   7   5 1866.63 641.278   1
   8  -1  -5 2188.20 598.390   1
  -8   1   5 2045.64 522.430   1
   8  -7  -5 2632.51 611.941   1
   7  -8   5 2858.25 695.072   1
   7   1   5 2739.39 664.170   1
  -7  -1  -5 2708.78 686.869   1
   1  -8   5 2241.68 518.413   2
   7  -8   4 685439. 11763.4   1
   7   1   3 9087.14 1165.03   1
   1  -8   3 12053.5 1246.44   1
  -1   8  -3 10223.1 1162.06   1
  -1  -7  -3 8481.18 1139.82   1
   7  -8   3 9651.19 1205.69   1
   1   7   3 10209.5 1242.94   1
   8  -1  -3 8880.59 1101.07   1
   8  -7  -3 8267.91 1124.91   1
  -8   1   3 14590.4 1464.45   1
   7  -8   3 10079.7 1241.95   2
  -7  -1  -3 7424.33 1089.82   1
  -7  -1  -3 9624.33 1165.06   2
   1  -8   3 10258.3 1256.53   2
  -1  -7  -3 10415.0 1261.23   2
  -7   8  -3 9852.50 1248.80   1
  -8   7   3 9340.62 1204.84   1
   7   1   2 387289. 8241.59   1
   1  -8   2 380558. 8017.02   1
  -1  -7  -2 377782. 8274.68   1
   1   7   2 371238. 8152.41   1
   8  -1  -2 348500. 7873.57   1
  -7  -1  -2 413029. 8492.99   1
   7  -8   2 391334. 8662.35   2
  -7  -1  -2 362274. 8084.82   2
   8  -7  -2 357464. 7883.06   1
  -1  -7  -2 369816. 8259.15   2
   7  -8   2 369805. 8035.92   1
  -8   7   2 399116. 8379.10   1
  -7   8  -2 366241. 8107.46   1
   1  -8   2 378715. 8280.05   2
  -1  -7  -1 3661.30 716.049   2
  -7  -1  -1 1281.97 485.771   2
  -8   1   1 1007.94 425.140   2
  -8   7   1 1293.98 415.982   1
  -7   8  -1 823.155 323.995   1
   1  -8   1 1110.70 436.490   1
   8  -1  -1 1117.48 439.949   1
   7  -8   1 1837.41 575.396   1
  -1  -7  -1 1455.60 484.508   1
  -1   8  -1 1158.26 484.774   1
   1  -8   1 1219.73 468.420   2
  -7  -1  -1 1172.56 412.300   1
   7  -8   1 1244.79 544.382   2
   7   1   1 1524.98 469.723   1
   1   7   1 998.473 409.135   1
  -8   1   1 1051.97 435.335   1
   8  -7  -1 1207.27 483.502   1
  -7   8   0 191374. 5550.00   1
  -7  -1   0 201807. 5543.41   2
  -8   1   0 201981. 5761.34   2
   7   1   0 162408. 5138.40   1
   7  -8   0 185058. 5401.23   1
   1  -8   0 187705. 5432.24   1
  -1  -7   0 205345. 5664.94   1
  -1  -7   0 193457. 5596.50   2
  -1   8   0 180836. 5381.91   1
   1   7   0 187929. 5405.71   1
   8  -1   0 187236. 5410.67   1
  -7  -1   0 204895. 5708.92   1
  -8   1   0 166028. 5223.82   1
   8  -7   0 189270. 5502.71   1
   7  -8   0 198004. 5820.08   2
   1  -8   0 200918. 5814.98   2
  -8   7   0 185595. 5556.50   1
  -1  -7   1 1900.96 593.085   2
   7  -8  -1 1956.38 568.124   1
  -7  -1   1 2045.18 529.103   2
  -8   1  -1 1660.82 559.724   1
  -8   1  -1 1561.47 527.265   2
  -8   7  -1 1497.15 476.101   1
  -7   8   1 2022.57 607.960   1
   8  -1   1 2506.00 647.007   1
   1  -8  -1 2040.61 604.373   1
  -1  -7   1 1411.63 446.336   1
  -7  -1   1 1695.17 513.161   1
  -1   8   1 1217.03 408.816   1
   7  -8  -1 2117.74 589.434   2
   8  -7   1 2206.31 642.229   1
   7   1  -1 1286.06 484.724   1
   1   7  -1 1287.59 434.439   1
   1  -8  -1 2459.91 680.451   2
  -7  -1   2 261541. 6326.44   2
  -7   8   2 264672. 6739.86   1
  -1  -7   2 247329. 6513.75   2
   7   1  -2 267394. 6528.60   1
   1  -8  -2 253360. 6542.07   1
  -1  -7   2 281333. 6534.41   1
  -1   8   2 268934. 6598.08   1
   1   7  -2 258630. 6252.27   1
   8  -1   2 246634. 6432.31   1
   8  -7   2 249526. 6353.12   1
   7  -8  -2 265239. 6642.20   1
  -7  -1   2 180602. 5548.90   1
  -8   1  -2 181357. 5729.75   1
   7  -8  -2 274092. 6883.25   2
   1  -8  -2 255741. 6595.40   2
  -8   7  -2 276088. 6877.77   1
   1  -8  -3 2479.15 628.336   2
  -8   7  -3 2322.85 572.107   1
  -8   1  -3 3368.68 782.413   1
   8  -1   3 2073.53 558.014   1
  -7   8   3 1925.26 545.108   1
   1  -8  -3 1648.91 470.461   1
   8  -7   3 1647.84 522.094   1
   7   1  -3 2415.40 667.389   1
   1   7  -3 1985.57 506.926   1
  -1   8   3 1718.77 483.413   1
   7  -8  -3 1968.64 551.284   1
  -7  -1   3 1942.19 479.064   1
   7  -8  -3 2470.96 647.238   2
  -1  -7   3 2216.37 592.356   2
  -8   1  -5 7499.86 1135.99   1
  -7   8   5 6340.24 1046.29   1
   7  -8  -5 9234.93 1190.25   1
   8  -7   5 7048.40 1040.73   1
   1  -8  -5 6907.81 1079.50   1
   8  -1   5 10813.1 1256.48   1
  -1   8   5 8880.51 1158.63   1
  -1  -7   5 7648.20 1076.20   2
   7  -8  -5 8653.55 1155.47   2
  -8   7  -5 7574.88 1114.36   1
   1  -8  -5 9265.17 1196.74   2
   8  -7   6 8254.77 1177.58   1
  -7   8   6 11502.3 1333.88   1
   8  -1   6 9928.85 1294.25   1
   7  -8  -6 11163.8 1317.85   1
  -1   8   6 11018.9 1342.06   1
  -8   1  -6 12831.0 1427.00   1
   1  -8  -6 9949.70 1281.38   1
   7  -8  -6 14769.6 1490.52   2
  -8   7  -6 11215.9 1347.25   1
  -1  -7   6 10868.4 1297.87   2
   1  -8  -6 11606.1 1367.26   2
   1  -8  -7 325.864 286.969   2
  -8   1  -7 100.511 262.658   1
  -7   8   7-88.4633 398.204   1
   1  -8  -7 695.236 301.058   1
   8  -7   7 106.524 264.890   1
   8  -1   7 574.361 424.904   1
  -1   8   7 457.595 330.787   1
  -8   7  -7 298.859 268.663   1
   7  -8  -7 157.091 333.882   2
  -1  -7   7 824.203 446.002   2
  -7   8   8 352443. 8167.81   1
   7  -8  -8 373346. 8524.58   1
   1  -8  -8 331392. 8057.80   1
   8  -7   8 350264. 8114.12   1
  -1   8   8 345866. 8016.56   1
  -8   1  -8 345286. 8257.16   1
  -8   7  -8 344028. 8263.69   1
   1  -8  -8 337899. 8192.64   2
  -8   1  -9 7885.06 1189.50   1
  -7   8   9 8523.22 1202.57   1
   7  -8  -9 7033.41 1130.86   1
   1  -8  -9 9869.24 1305.58   1
  -1   8   9 8704.89 1209.45   1
   8  -7   9 8128.82 1179.97   1
   8  -1   9 7563.25 1147.98   1
   1  -8  -9 8210.36 1221.25   2
  -8   7  -9 7571.06 1169.50   1
  -7   8  10 22353.3 1948.41   1
   8  -1  10 25171.9 2000.93   1
   7  -8 -10 23682.6 2025.78   1
   1  -8 -10 24948.7 2133.67   1
  -1   8  10 24207.6 2038.28   1
  -8   1 -10 26787.3 2162.39   1
   8  -7  10 27473.6 2226.18   1
  -8   7 -10 26397.9 2137.28   1
   1  -8 -10 24418.2 2105.81   2
   1  -8 -11 1.53477 242.016   2
  -1   8  11 107.254 246.083   1
   7  -8 -11 89.7731 268.669   1
   8  -1  11 4.86443 187.404   1
  -7   8  11 32.3633 314.838   1
   1  -8 -11-297.989 282.864   1
   8  -7  11-116.529 280.722   1
  -8   1 -11 839.634 546.063   1
  -8   7 -11-392.444 377.845   1
   8  -1  12 216305. 6578.92   1
  -7   8  12 240485. 6940.35   1
   7  -8 -12 208857. 6681.11   1
   1  -8 -12 215123. 6621.37   1
  -1   8  12 220077. 6596.51   1
   1  -8 -12 199546. 6609.42   2
   8  -7  12 228767. 6876.57   1
  -8   1 -12 198185. 6475.71   1
  -8   7 -12 211980. 6708.63   1
  -8   1 -13 492.508 436.369   2
   7  -8 -13 144.578 208.456   1
  -1   8  13 307.687 397.920   1
  -7   8  13-468.842 457.161   1
   1  -8 -13 78.1205 273.135   1
   8  -1  13-275.603 318.351   1
  -8   1 -13 227.143 235.788   1
   1  -8 -13-150.813 287.951   2
   1  -8 -14 7309.78 1255.92   2
  -8   1 -14 6437.53 1190.09   2
   7  -8 -14 5837.31 1125.68   1
   1  -8 -14 7061.99 1179.60   1
  -7   8  14 5764.75 1048.17   1
  -1   8  14 8837.36 1293.70   1
   8  -1  14 7166.00 1205.84   1
  -8   1 -14 6856.49 1191.70   1
  -8   1 -15 803.490 446.140   2
   7  -8 -15 32.8839 237.597   1
  -1   8  15 228.778 413.501   1
   1  -8 -15 619.945 434.219   2
   1  -8 -15 592.189 402.301   1
   8  -1  15 387.691 362.808   1
  -8   1 -15 216.891 296.230   1
  -8   1 -16 144277. 5656.18   1
   8  -1  16 148624. 5725.27   1
   8  -8   0 15369.2 1497.66   1
   0  -8   0 14603.5 1507.80   1
   8   0   0 15931.5 1524.84   1
   0   8   0 14865.7 1526.64   1
   8  -8   0 15187.9 1640.15   2
  -8   0   0 13951.8 1509.24   1
  -8   0   0 15014.3 1508.94   2
   0  -8   0 14240.0 1504.04   2
  -8   8   0 14255.6 1487.95   1
   8  -8  -1 135217. 4686.65   1
   0  -8   1 128963. 4727.09   2
  -8   0   1 152174. 4819.65   2
  -8   0  -1 151033. 5041.15   2
   8   0  -1 104364. 4241.65   1
   0  -8   1 144204. 4789.69   1
   8   0   1 116482. 4445.24   1
   0  -8  -1 149641. 4975.27   1
   8  -8  -1 150940. 5136.54   2
   0   8  -1 133926. 4586.80   1
   0   8   1 135806. 4680.50   1
  -8   0  -1 170376. 5315.71   1
  -8   0   1 142720. 4863.11   1
   8  -8   1 133510. 4564.68   1
   0  -8  -1 141996. 4891.17   2
  -8   8  -1 129560. 4699.47   1
  -8   8   1 128751. 4693.09   1
   8  -8  -2 264575. 7033.45   2
  -8   0  -2 267791. 7101.15   2
   8  -8  -2 245128. 6480.25   1
   8   0   2 244089. 6641.50   1
   0  -8   2 279274. 6736.10   1
   0  -8  -2 263062. 6801.94   1
   8   0  -2 235996. 6457.58   1
   0   8  -2 234704. 6237.91   1
   0   8   2 246510. 6514.18   1
  -8   0  -2 207680. 6205.89   1
  -8   0   2 271722. 6806.01   1
   8  -8   2 260051. 6665.42   1
   0  -8  -2 244815. 6652.44   2
  -8   8   2 224591. 6335.12   1
   0  -8   2 216710. 6335.65   2
  -8   8  -2 255236. 6809.83   1
   8  -8  -3 58793.2 3205.30   2
  -8   0  -3 63621.4 3248.59   2
   8  -8  -3 52570.9 2888.83   1
   8   0   3 47182.3 2785.04   1
   0  -8  -3 54915.0 2975.84   1
   0   8  -3 53258.7 2777.98   1
   0  -8   3 57063.5 3090.45   2
   8   0  -3 55706.2 2941.47   1
   0   8   3 53170.1 2940.91   1
   8  -8   3 50068.5 2842.39   1
   0  -8  -3 51603.9 2908.26   2
  -8   0  -3 59954.5 3201.03   1
  -8   0   3 53549.9 2894.07   1
  -8   8   3 57738.7 3085.86   1
  -8   8  -3 58067.6 3117.21   1
  -8   8   4 22212.0 1935.91   1
  -8   0  -4 26843.9 2075.23   2
   8  -8  -4 22862.4 1964.00   2
   8   0   4 21166.9 1862.10   1
  -8   8  -4 24759.8 1960.23   1
   0  -8  -4 21139.8 1900.99   1
   8  -8  -4 20194.7 1793.28   1
   8   0  -4 22118.1 1854.55   1
   8  -8   4 22701.5 1889.29   1
   0   8   4 19000.1 1760.59   1
   0  -8   4 22715.0 1930.68   2
  -8   0  -4 24105.9 2005.02   1
  -8   0   4 23017.0 1867.05   1
   0  -8  -4 24552.8 2032.36   2
  -8   8   5 107626. 4375.99   1
  -8   0  -5 102528. 4355.59   2
   8   0   5 109930. 4333.54   1
   8  -8  -5 123458. 4654.23   2
   8  -8   5 105731. 4236.81   1
   0  -8  -5 116289. 4484.75   1
   8  -8  -5 118750. 4480.29   1
   0   8   5 113161. 4362.51   1
  -8   8  -5 109833. 4354.96   1
  -8   0  -5 109192. 4358.25   1
   0  -8   5 113226. 4441.44   2
   0  -8  -5 114938. 4474.80   2
  -8   8   6 340719. 8088.31   1
  -8   0  -6 338470. 8266.12   2
   8   0   6 305805. 7579.71   1
   8  -8   6 295122. 7453.46   1
   0  -8  -6 296588. 7648.54   1
   0   8   6 290763. 7463.70   1
   8  -8  -6 299834. 7531.25   1
  -8   0  -6 320683. 7833.61   1
   0  -8   6 291820. 7540.85   2
   0  -8  -6 319170. 7888.20   2
  -8   8  -6 298678. 7599.96   1
   8  -8   7 75731.2 3585.89   1
   8   0   7 90049.7 3887.16   1
  -8   8   7 82392.5 3840.61   1
   0  -8  -7 77974.7 3760.93   1
   0   8   7 78519.4 3697.14   1
  -8   0  -7 90941.1 3996.45   1
   8  -8  -7 71141.8 3498.61   1
  -8   0  -7 80639.6 3890.57   2
   0  -8   7 79940.8 3775.96   2
   0  -8  -7 80759.7 3840.79   2
  -8   8  -7 75932.0 3741.88   1
  -8   8   8 30866.4 2352.57   1
   8   0   8 37584.0 2514.24   1
   0  -8  -8 33992.9 2426.38   1
   0   8   8 35769.6 2500.45   1
  -8   0  -8 36409.2 2553.73   1
  -8   0  -8 35161.4 2552.16   2
   8  -8  -8 35302.7 2508.83   1
   0  -8   8 38010.5 2609.32   2
  -8   8  -8 32928.9 2403.59   1
   0  -8  -8 30490.4 2369.80   2
   8  -8   8 33214.7 2385.29   1
  -8   8   9 12726.5 1526.93   1
   8   0   9 16141.3 1680.14   1
  -8   0  -9 16721.5 1773.85   2
   0  -8  -9 19753.3 1869.66   1
   0   8   9 16610.8 1689.12   1
  -8   0  -9 16359.8 1747.84   1
   8  -8  -9 15832.3 1691.58   1
  -8   8  -9 17894.7 1815.41   1
   0  -8   9 16837.1 1861.30   2
   8  -8   9 20315.6 1875.12   1
   0  -8  -9 15048.2 1659.34   2
   8   0  10 118966. 4731.42   1
  -8   8  10 130125. 5018.07   1
  -8   0 -10 114530. 4868.62   2
   8  -8 -10 115637. 4722.16   1
   0  -8 -10 108942. 4553.84   1
   0   8  10 111090. 4471.78   1
  -8   0 -10 117450. 4826.98   1
  -8   8 -10 107574. 4644.91   1
   8  -8  10 104228. 4568.65   1
   0  -8 -10 102184. 4525.88   2
   8   0  11 76131.4 3764.92   1
  -8   8  11 73299.6 3743.65   1
  -8   0 -11 65385.7 3606.64   2
   0  -8 -11 77566.2 3874.50   1
  -8   0 -11 73360.1 3813.81   1
   8  -8  11 66782.4 3577.83   1
  -8   8 -11 73026.2 3792.67   1
   8  -8 -11 67676.7 3634.80   1
   0  -8 -11 67911.4 3718.01   2
  -8   8  12 10094.6 1397.85   1
  -8   0 -12 9615.20 1419.44   2
   0  -8 -12 10684.4 1423.24   1
   0   8  12 11663.3 1466.66   1
  -8   0 -12 10910.0 1488.05   1
   8  -8 -12 9013.85 1340.08   1
   0  -8 -12 10001.0 1476.00   2
   8   0  12 10709.6 1424.22   1
  -8   8  13 82228.4 4181.30   1
   0  -8 -13 76016.7 3935.81   1
   0   8  13 71665.3 3771.39   1
   8   0  13 72603.9 3779.68   1
  -8   0 -13 72234.8 3885.44   1
   8  -8 -13 72922.6 3935.49   1
   0  -8 -13 70323.6 3883.11   2
  -8   0 -14 94211.0 4524.41   2
   0  -8 -14 95944.6 4447.98   1
   0  -8 -14 79193.4 4257.91   2
   0   8  14 104844. 4585.32   1
  -8   0 -14 99821.4 4602.38   1
   8  -8 -14 83858.4 4312.92   1
   8   0  14 106346. 4642.85   1
   0  -8 -15 12715.5 1730.42   2
  -4  -5 -15 22342.9 2193.67   2
  -5  -4 -15 24828.3 2237.92   2
  -4  -5 -15 23645.5 2215.20   1
  -5  -4 -15 24710.6 2276.57   1
   4   5  15 24901.4 2268.48   1
   5   4  15 25298.2 2261.04   1
  -5  -4 -14 205367. 6814.73   2
  -4  -5 -14 217570. 6791.72   1
  -5  -4 -14 223374. 6932.16   1
   4   5  14 222090. 6929.32   1
   5   4  14 230778. 6857.58   1
  -4  -5 -14 227514. 7111.93   2
  -4  -5 -13 143192. 5573.10   2
  -5  -4 -13 128046. 5215.06   2
  -4  -5 -13 144354. 5391.21   1
  -5  -4 -13 143590. 5410.88   1
   4   5  13 139326. 5236.41   1
   5   4  13 149310. 5449.11   1
  -4  -5 -12 37900.3 2758.62   2
  -5  -4 -12 33807.3 2602.86   2
  -4  -5 -12 35925.6 2629.47   1
  -5  -4 -12 42113.0 2791.32   1
   4   5  12 33866.1 2509.57   1
   5   4  12 33372.5 2531.15   1
  -4  -5 -11 109562. 4705.58   2
  -5  -4 -11 122239. 4844.10   2
  -4  -5 -11 103262. 4518.87   1
  -5  -4 -11 110541. 4590.48   1
   4   5  11 108974. 4530.97   1
   5   4  11 119062. 4774.01   1
   4  -9  11 93621.1 4370.05   2
  -4  -5 -10 209216. 6563.12   2
  -5  -4 -10 197025. 6315.90   2
  -4  -5 -10 200543. 6368.16   1
  -5  -4 -10 208930. 6375.57   1
   4   5  10 202522. 6228.02   1
   5  -9  10 180213. 6069.51   2
   4  -9  10 177132. 6146.60   2
   5   4  10 204604. 6339.59   1
  -4  -5  -9 25263.0 2098.26   2
  -5  -4  -9 21287.2 1984.74   2
  -9   5   9 23733.9 1999.29   1
   5   4   9 23039.6 2043.34   1
  -4  -5  -9 24500.8 2114.10   1
  -5  -4  -9 26770.7 2154.65   1
   9  -5  -9 23760.5 2076.27   1
   4   5   9 26466.8 2138.16   1
   5  -9   9 23004.9 2054.42   2
   4  -9   9 22680.1 2063.95   2
  -9   4   8 4513.89 867.209   1
  -4  -5  -8 5287.14 1026.50   2
  -5  -4  -8 6005.05 1096.28   2
   9  -4  -8 3574.10 786.746   1
  -9   5   8 4485.85 890.763   1
   4   5   8 5253.37 966.755   1
   5   4   8 4459.37 874.782   1
   4  -9   8 4118.72 916.064   2
  -4  -5  -8 4795.66 948.983   1
   9  -5  -8 3496.51 753.733   1
  -5  -4  -8 3640.97 804.485   1
   5  -9   8 3335.70 823.306   2
   9  -4  -7 6018.96 949.544   1
  -4  -5  -7 7185.86 1109.89   2
  -5  -4  -7 7005.88 1135.34   2
  -9   5   7 5866.40 1036.38   1
   4   5   7 6473.16 1085.16   1
   5   4   7 5398.57 971.005   1
  -5   9  -7 7597.46 1083.95   1
   9  -5  -7 7679.00 1111.56   1
  -4  -5  -7 5374.75 951.343   1
  -5  -4  -7 6338.38 1020.37   1
  -9   4   7 8635.63 1228.23   1
   5  -9   7 5043.10 1019.08   2
   4  -9   7 6160.20 1064.72   2
  -4   9  -6 87476.4 3747.20   1
  -5  -4  -6 78128.5 3727.50   2
   9  -4  -6 99087.5 3997.56   1
   5   4   6 80349.5 3714.79   1
   9  -5  -6 96001.7 3980.61   1
  -4  -5  -6 80492.9 3755.87   1
  -5  -4  -6 81159.5 3713.52   1
  -5   9  -6 87237.9 3768.81   1
  -9   5   6 74407.4 3591.14   1
   4   5   6 85561.2 3809.41   1
   5  -9   6 86830.1 3975.88   2
  -9   4   6 89495.5 3947.15   1
   5  -9   6 83827.5 3672.03   1
   4  -9   6 88772.6 3952.77   2
  -4  -5  -6 90023.6 3981.66   2
  -4   9  -5 17071.9 1652.26   1
   9  -4  -5 19739.4 1733.56   1
   5  -9   5 16120.9 1576.05   1
   9  -5  -5 16601.2 1640.07   1
  -4  -5  -5 18023.5 1717.88   1
   4  -9   5 18904.4 1714.14   1
  -5  -4  -5 19090.5 1781.66   1
  -9   5   5 15135.9 1575.18   1
   4   5   5 18378.5 1733.27   1
   5  -9   5 17820.3 1783.29   2
   4  -9   5 22037.4 1953.29   2
   5   4   5 19145.7 1720.76   1
  -9   4   5 23305.6 1957.59   1
  -5  -4  -5 15696.1 1662.95   2
  -4  -5  -5 20742.2 1911.02   2
  -5   9  -5 20583.5 1789.40   1
  -5  -4  -4 43539.0 2681.10   2
  -5   9  -4 41241.7 2585.21   1
   9  -4  -4 38384.8 2420.29   1
  -4   9  -4 37952.7 2399.49   1
   9  -5  -4 35322.9 2372.22   1
   5  -9   4 41838.8 2557.17   1
  -4  -5  -4 33632.6 2414.15   1
  -5  -4  -4 36386.9 2462.73   1
   4  -9   4 35845.5 2374.70   2
   4   5   4 40181.3 2556.64   1
  -9   4   4 34320.1 2374.06   1
   5  -9   4 32057.1 2348.53   2
   5   4   4 35228.6 2375.23   1
  -9   5   4 48995.0 2787.81   1
   4  -9   4 41782.4 2541.97   1
  -4  -5  -4 42586.7 2680.39   2
  -5  -4  -3 153330. 5191.05   2
   9  -4  -3 156453. 5090.49   1
  -4   9  -3 164169. 5122.03   1
   9  -5  -3 145764. 4943.85   1
  -5   9  -3 164906. 5182.43   1
  -4  -5  -3 152132. 5037.14   1
  -5  -4  -3 163061. 5174.61   1
   4  -9   3 161034. 5256.69   2
   5  -9   3 165792. 5177.98   1
   4   5   3 155402. 5156.99   1
  -4  -5  -3 149822. 5118.28   2
   5   4   3 142331. 4893.67   1
   5  -9   3 161976. 5225.29   2
   5  -9   2 326690. 7713.89   1
  -5   9  -2 337622. 7839.88   1
  -4   9  -2 356003. 7920.56   1
   4  -9   2 324050. 7776.08   1
   9  -5  -2 345720. 7895.99   1
   5  -9   2 331265. 7979.66   2
  -4  -5  -2 377753. 8246.23   1
  -5  -4  -2 386246. 8279.95   1
   4   5   2 349914. 7966.70   1
  -9   4   2 432266. 8762.83   1
   4  -9   2 349279. 8159.91   2
   5   4   2 378489. 8188.94   1
  -9   5   2 339579. 7934.66   1
  -4  -5  -2 357324. 8121.35   2
   9  -4  -2 346725. 7908.89   1
  -5  -4  -2 340810. 8007.92   2
  -5   9  -1 273298. 6831.13   1
   9  -5  -1 263659. 6735.66   1
  -4   9  -1 264821. 6784.68   1
   4  -9   1 283069. 7031.19   1
  -4  -5  -1 266272. 6765.82   1
   4  -9   1 234385. 6558.68   2
  -5  -4  -1 255013. 6542.60   1
   4   5   1 264947. 6759.25   1
  -9   4   1 226222. 6386.36   1
   5  -9   1 263010. 6858.06   2
   5   4   1 273036. 6807.11   1
   9  -4  -1 260099. 6718.42   1
  -4  -5  -1 297784. 7211.61   2
  -5  -4  -1 275913. 6898.14   2
   5  -9   0 30043.1 2171.23   2
   9  -5   0 31833.1 2159.59   1
  -5   9   0 30105.9 2091.06   1
  -4   9   0 29750.9 2145.58   1
   5  -9   0 28396.2 2110.46   1
   4  -9   0 26632.1 2058.99   1
  -4  -5   0 28784.1 2121.56   1
  -5  -4   0 30731.6 2114.81   1
   4   5   0 30946.1 2167.17   1
  -9   4   0 33268.6 2307.47   1
   5   4   0 28660.5 2065.39   1
   4  -9   0 29315.9 2160.29   2
  -9   5   0 26978.2 2103.60   1
   9  -4   0 29571.5 2151.11   1
  -4  -5   0 32481.4 2221.67   2
  -5  -4   0 28801.6 2107.52   2
   9  -5   1 102718. 3977.53   1
  -9   5  -1 86004.9 3798.22   1
  -5   9   1 97457.3 3970.52   1
   5  -9  -1 101116. 4092.34   1
  -4   9   1 107532. 4131.38   1
   4  -9  -1 102598. 4117.19   1
  -4  -5   1 106722. 4051.03   1
  -5  -4   1 118200. 4177.66   1
   4   5  -1 102940. 3931.25   1
   4  -9  -1 97196.1 4032.37   2
  -9   4  -1 116957. 4366.01   1
   5  -9  -1 100199. 4096.83   2
   9  -4   1 96538.8 3953.54   1
  -4  -5   1 108642. 4072.69   2
   5   4  -1 99642.5 3859.87   1
  -5  -4   1 109198. 4170.98   2
  -5   9   2 605812. 11211.3   1
  -5  -4   2 653529. 11013.0   1
   5  -9  -2 583694. 11128.3   2
  -4  -5   2 654451. 11409.1   2
  -5   9   3 76009.0 3520.00   1
   5  -9  -3 78873.7 3590.60   1
   4  -9  -3 72167.0 3443.31   1
  -4   9   3 75840.2 3476.90   1
   5  -9  -3 73026.0 3503.72   2
   9  -4   3 77500.6 3496.15   1
  -9   4  -3 73983.5 3481.98   1
  -9   5  -3 79054.3 3636.11   1
   4  -9  -3 72306.2 3472.47   2
   9  -5   3 76478.6 3474.22   1
  -5  -4   3 73850.5 3387.94   2
  -4  -5   3 74728.2 3453.58   2
  -5   9   4 25907.2 1985.66   1
   5  -9  -4 23542.9 1995.10   1
   4  -9  -4 27211.4 2055.45   1
  -4   9   4 23929.3 1970.02   1
  -9   5  -4 23820.8 1969.78   1
   9  -5   4 27651.2 2060.58   1
   9  -4   4 27053.2 2062.81   1
  -9   4  -4 25139.8 1987.92   1
   5  -9  -4 26476.4 2103.46   2
   4  -9  -4 27516.9 2076.53   2
  -4  -5   4 26313.5 1996.49   2
  -5  -4   4 25336.9 1967.75   2
  -9   5  -5 67945.6 3337.92   1
  -5   9   5 62762.6 3192.03   1
   5  -9  -5 64761.1 3290.16   1
   4  -9  -5 62892.3 3243.43   1
  -4   9   5 60511.0 3162.21   1
   5  -9  -5 65310.2 3313.66   2
   9  -4   5 64427.9 3204.78   1
  -9   4  -5 65339.2 3266.99   1
   9  -5   5 64972.1 3235.21   1
   4  -9  -5 61404.9 3225.18   2
  -5   9   6 43463.4 2684.46   1
   5  -9  -6 47715.0 2860.17   1
   4  -9  -6 48329.6 2844.91   1
  -4   9   6 45969.0 2748.67   1
   9  -4   6 41455.0 2647.55   1
  -9   4  -6 54763.3 3022.10   1
   9  -5   6 49647.6 2823.14   1
  -9   5  -6 49205.8 2878.10   1
   5  -9  -6 45833.1 2849.41   2
   4  -9  -6 48746.8 2859.79   2
   5  -9  -7 4281.17 884.943   1
   4  -9  -7 5154.24 942.980   1
   9  -4   7 6501.85 1030.23   1
  -5   9   7 4695.20 890.144   1
  -4   9   7 4481.22 836.959   1
   9  -5   7 5366.22 965.042   1
  -9   4  -7 5045.76 965.402   1
  -9   5  -7 4020.82 856.194   1
   5  -9  -7 4303.29 847.156   2
   4  -9  -7 4020.05 883.183   2
   5  -9  -8 7460.34 1203.23   2
   5  -9  -8 5471.48 1011.25   1
   4  -9  -8 7309.44 1108.48   1
   9  -4   8 8214.36 1157.92   1
  -5   9   8 6839.84 1097.40   1
   9  -5   8 6376.20 1022.66   1
  -4   9   8 7815.65 1118.14   1
  -9   5  -8 7043.31 1148.72   1
  -9   4  -8 5906.11 988.314   1
   4  -9  -8 7190.38 1162.49   2
   5  -9  -9 33331.8 2380.09   1
  -5   9   9 32093.9 2313.93   1
   4  -9  -9 31295.2 2364.11   1
  -4   9   9 34043.9 2439.38   1
   9  -4   9 29243.2 2192.24   1
   9  -5   9 29383.7 2290.65   1
  -9   4  -9 30929.4 2350.47   1
  -9   5  -9 31231.0 2358.16   1
   5  -9  -9 30248.8 2399.55   2
   4  -9  -9 30075.6 2330.11   2
   5  -9 -10 187278. 6066.29   1
   5  -9 -10 190730. 6285.03   2
  -5   9  10 208737. 6278.69   1
   4  -9 -10 200107. 6241.08   1
  -4   9  10 213237. 6357.14   1
   9  -4  10 221135. 6450.42   1
   9  -5  10 186229. 5935.36   1
  -9   4 -10 199152. 6287.66   1
  -9   5 -10 191082. 6151.94   1
   4  -9 -10 194152. 6343.25   2
   4  -9 -11 149238. 5427.09   1
  -5   9  11 179737. 5860.50   1
  -4   9  11 165246. 5578.76   1
   9  -4  11 161501. 5604.04   1
   9  -5  11 150874. 5376.31   1
  -9   4 -11 147313. 5465.59   1
   5  -9 -11 140059. 5307.05   1
  -9   5 -11 150099. 5507.46   1
   4  -9 -11 160712. 5775.64   2
   4  -9 -12 46534.5 2943.57   1
  -5   9  12 47531.8 3005.22   1
   9  -4  12 39736.7 2813.01   1
  -4   9  12 53301.5 3187.06   1
   9  -5  12 47162.4 2998.40   1
   5  -9 -12 42102.6 2866.37   1
  -9   4 -12 43984.2 2967.49   1
  -9   5 -12 46414.4 3030.57   1
   9  -4  13 85751.5 4136.60   1
   5  -9 -13 81527.0 4074.76   1
  -5   9  13 88446.7 4207.23   1
   4  -9 -13 89405.6 4277.67   1
  -4   9  13 92680.0 4324.39   1
   9  -5  13 86045.7 4169.53   1
  -9   4 -13 85378.9 4240.58   1
  -9   5 -13 75003.9 3988.68   1
   9  -4  14 178283. 6294.94   1
   5  -9 -14 227053. 7020.41   1
  -5   9  14 227348. 7012.91   1
   4  -9 -14 219518. 6879.74   1
   9  -5  14 208318. 6817.75   1
  -4   9  14 228736. 6988.64   1
  -9   4 -14 222722. 6993.58   1
  -9   5 -14 192361. 6698.05   1
   9  -4  15 19824.7 2044.97   1
   9  -5  15 20811.8 2100.36   1
   5  -9 -15 22568.7 2174.50   1
  -5   9  15 16958.7 1842.69   1
   4  -9 -15 20511.6 2094.45   1
  -4   9  15 22133.3 2136.55   1
  -9   4 -15 19577.3 2032.55   1
  -9   5 -15 20066.8 2119.17   1
  -9   4 -16-343.280 367.231   1
  -3  -6 -15 4010.33 921.854   2
  -6  -3 -14 27253.4 2302.60   2
   6   3  14 25072.4 2238.55   1
  -3  -6 -14 24863.7 2240.32   1
  -6  -3 -14 23601.9 2171.92   1
   3   6  14 29394.6 2394.54   1
  -3  -6 -14 21689.9 2211.48   2
   3   6  13 2906.02 785.004   1
  -3  -6 -13 4008.04 957.555   2
  -6  -3 -13 3209.60 834.849   2
   6   3  13 2908.98 783.446   1
  -3  -6 -13 3426.05 811.893   1
  -6  -3 -13 3343.65 794.290   1
  -6  -3 -12 263054. 7545.90   2
  -3  -6 -12 289972. 7831.49   1
  -6  -3 -12 262547. 7421.13   1
   3   6  12 264848. 7482.13   1
  -3  -6 -12 291422. 7904.24   2
   6   3  12 291072. 7720.51   1
   3  -9  12 239010. 7557.25   2
   3   6  11 4220.91 878.780   1
  -3  -6 -11 4929.15 974.223   2
  -6  -3 -11 4196.09 745.380   2
   6   3  11 3925.99 815.269   1
  -3  -6 -11 5563.27 1044.21   1
  -6  -3 -11 3654.19 731.391   1
   3  -9  11 4715.58 1031.26   2
   3  -9  10 27897.1 2309.58   2
  -6  -3 -10 32441.4 2456.27   2
  -3  -6 -10 31432.6 2415.65   1
  -6  -3 -10 35196.0 2567.95   1
   3   6  10 33866.1 2445.49   1
   9  -6 -10 36805.1 2619.51   1
   6   3  10 32820.5 2428.42   1
  -9   6  10 33026.7 2496.93   1
  -3  -6 -10 31425.3 2431.67   2
   3   6   9 537.358 418.025   1
  -3  -6  -9 862.021 401.318   2
  -6  -3  -9 633.913 428.571   2
  -9   6   9 354.253 305.994   1
   6   3   9 293.860 306.850   1
  -3  -6  -9 479.716 248.553   1
   3  -9   9 199.308 279.565   2
  -6  -3  -9 415.667 408.407   1
   9  -6  -9 677.402 394.122   1
  -6  -3  -8 365083. 8658.59   2
  -3  -6  -8 368066. 8614.95   1
  -6  -3  -8 334902. 8420.12   1
   3   6   8 382347. 8804.95   1
   9  -6  -8 347589. 8297.63   1
   6  -9   8 345686. 8581.14   2
   3  -9   8 345092. 8582.33   2
   6   3   8 378795. 8686.25   1
  -6   9  -8 380830. 8781.48   1
  -9   6   8 420498. 9234.06   1
  -3  -6  -8 331834. 8353.45   2
  -6  -3  -7 35580.2 2461.46   2
  -3  -6  -7 37512.3 2577.92   1
   6  -9   7 35576.8 2390.41   1
  -6  -3  -7 36745.5 2552.42   1
   3   6   7 34321.0 2448.38   1
   9  -6  -7 37899.8 2507.46   1
   3  -9   7 34723.2 2440.61   2
   6   3   7 34454.8 2397.53   1
  -6   9  -7 34757.9 2431.56   1
   6  -9   7 35308.7 2566.84   2
  -9   6   7 27925.3 2341.43   1
   9  -3  -7 35813.8 2386.81   1
  -3  -6  -7 33826.2 2436.02   2
  -9   3   6 2855.96 727.313   1
   3   6   6 2904.38 670.383   1
  -3  -6  -6 3421.20 828.748   2
  -6  -3  -6 2711.56 678.261   2
  -9   6   6 3896.09 878.364   1
  -6   9  -6 3691.92 838.325   1
   9  -6  -6 2836.10 681.438   1
   9  -3  -6 2358.39 650.732   1
   6   3   6 3745.16 792.891   1
  -3  -6  -6 2459.02 667.034   1
  -6  -3  -6 2516.52 670.902   1
   6  -9   6 3969.69 769.301   1
   6  -9   6 2653.87 724.554   2
   3  -9   6 2704.59 679.615   2
   6  -9   5 1641.22 517.005   1
   3   6   5 1064.13 458.271   1
  -3  -6  -5 1033.24 379.494   2
  -6  -3  -5 2019.17 665.804   2
  -9   6   5 1201.76 425.166   1
   9  -3  -5 1920.09 586.528   1
  -6   9  -5 1460.00 548.863   1
  -3   9  -5 1540.33 542.535   1
   6   3   5 1767.32 582.518   1
  -3  -6  -5 665.722 340.736   1
  -6  -3  -5 975.857 388.167   1
   9  -6  -5 1366.19 493.456   1
   6  -9   5 1186.69 552.267   2
   3  -9   5 831.538 394.993   2
  -9   3   5 1639.56 574.643   1
  -6  -3  -4 396165. 8707.87   2
   6  -9   4 346269. 7994.57   1
  -3   9  -4 347087. 7914.87   1
   3  -9   4 349203. 8016.49   1
  -3  -6  -4 349563. 8320.48   2
  -3  -6  -4 383807. 8572.99   1
  -6   9  -4 391606. 8474.63   1
  -6  -3  -4 345036. 8167.45   1
   9  -6  -4 409596. 8562.44   1
  -9   3   4 348967. 8113.73   1
   3   6   4 363519. 8364.63   1
   6  -9   4 357218. 8491.95   2
   3  -9   4 323739. 8040.75   2
   9  -3  -4 420690. 8705.71   1
  -9   6   4 372446. 8393.61   1
   6   3   4 349564. 8195.81   1
  -6   9  -3 24779.8 1990.16   1
  -6  -3  -3 20792.5 1858.67   2
  -3   9  -3 23169.7 1890.84   1
   3  -9   3 25656.8 2005.47   1
  -9   6   3 24102.5 1997.45   1
   6  -9   3 24690.7 1916.95   1
  -3  -6  -3 24553.1 1951.98   2
  -3  -6  -3 23911.8 1938.94   1
   9  -6  -3 20434.4 1801.75   1
  -6  -3  -3 23879.6 1993.18   1
   3   6   3 22719.3 1915.09   1
  -9   3   3 24278.9 2000.91   1
   6  -9   3 22873.7 1969.13   2
   9  -3  -3 22179.4 1901.70   1
   3  -9   3 22156.9 1855.37   2
   6   3   3 23368.0 1941.14   1
  -6  -3  -2 18332.9 1737.20   2
  -6   9  -2 19492.7 1766.13   1
  -3   9  -2 18925.1 1697.92   1
   3  -9   2 19478.4 1751.35   1
  -3  -6  -2 20236.6 1782.98   1
   9  -6  -2 19012.9 1652.69   1
   6  -9   2 17716.0 1700.32   1
  -6  -3  -2 18098.0 1718.13   1
   3   6   2 19481.2 1778.67   1
  -9   3   2 20281.6 1817.76   1
   3  -9   2 18036.3 1721.57   2
  -9   6   2 17624.4 1683.18   1
   9  -3  -2 18273.6 1710.95   1
   6   3   2 19024.0 1744.75   1
  -3  -6  -2 18301.3 1703.39   2
   6  -9   2 20604.7 1851.53   2
   3   6   1 2544.72 676.217   1
  -3  -6  -1 2411.76 676.328   2
  -9   6   1 2337.02 635.699   1
  -6  -3  -1 3950.08 818.897   2
   3  -9   1 3742.66 674.814   1
  -6   9  -1 2660.52 676.379   1
   9  -6  -1 2901.71 735.773   1
   6   3   1 2558.57 664.303   1
  -3   9  -1 2507.36 654.554   1
  -3  -6  -1 1979.07 552.536   1
  -6  -3  -1 2383.16 668.274   1
   6  -9   1 2400.34 623.575   1
  -9   3   1 3020.95 736.443   1
   6  -9   1 2131.25 615.305   2
   9  -3  -1 2245.75 638.054   1
   3  -9   1 2779.20 650.568   2
  -6   9   0 592241. 10711.7   1
   9  -6   0 619506. 10880.3   1
  -3  -6   0 607272. 10849.0   2
   3   6  -1 411.850 386.053   1
  -9   3  -1-296.365 325.621   1
  -3  -6   1 263.758 319.687   2
  -9   6  -1 196.738 246.683   1
  -6  -3   1 398.317 292.321   2
   9  -6   1 165.048 311.781   1
   6  -9  -1 280.479 242.869   2
   6  -9  -1 530.221 419.267   1
   3  -9  -1-227.938 221.767   1
  -6   9   1 191.897 266.115   1
   6   3  -1 40.0660 187.676   1
  -3  -6   1 1060.01 335.925   1
   9  -3   1 156.383 251.233   1
  -3   9   1 575.092 412.347   1
  -6  -3   1 42.0679 200.379   1
   3  -9  -1-4.44974 369.966   2
  -3  -6   2 4009.99 819.013   2
  -9   6  -2 4388.74 839.926   1
  -6  -3   2 4786.50 815.747   2
   3  -9  -2 4776.18 873.215   2
   6  -9  -2 6941.05 1024.19   1
   3  -9  -2 4611.57 924.929   1
  -6   9   2 5122.19 846.970   1
   6   3  -2 4669.39 835.336   1
  -3   9   2 5121.99 868.416   1
   9  -3   2 4777.09 840.192   1
  -6  -3   2 6174.71 925.399   1
   6  -9  -2 4085.61 835.030   2
  -9   3  -2 5225.42 913.081   1
   3   6  -2 4859.21 809.205   1
   9  -6   2 4318.98 813.325   1
  -3  -6   3 396.444 308.327   2
  -9   6  -3 864.995 502.285   1
  -6  -3   3 1025.82 435.545   2
   6  -9  -3 1044.76 457.982   2
   6  -9  -3 682.902 399.890   1
   3  -9  -3 626.164 297.297   1
  -6   9   3 854.971 445.772   1
   9  -3   3 1308.67 492.622   1
  -3   9   3 634.678 296.205   1
   9  -6   3 1028.50 407.840   1
  -9   3  -3 1131.25 381.226   1
   3  -9  -3 1064.61 467.940   2
  -9   6  -4 511167. 10020.9   1
   6  -9  -4 518843. 10140.0   1
   3  -9  -4 485085. 9866.51   1
   6  -9  -4 466747. 9881.15   2
   3  -9  -4 513057. 10167.6   2
  -3   9   4 466208. 9676.94   1
  -3  -6   4 515234. 10002.5   2
  -9   3  -4 481066. 9776.37   1
  -6   9   5 26169.3 1992.61   1
   6  -9  -5 29630.7 2150.35   1
   3  -9  -5 23851.7 1941.69   1
  -3   9   5 24138.4 2000.92   1
   9  -3   5 31294.5 2156.22   1
  -9   3  -5 27820.2 2105.36   1
  -9   6  -5 26976.7 2055.28   1
   6  -9  -5 24613.9 2111.20   2
   3  -9  -5 24128.3 2040.97   2
  -3  -6   5 22049.9 1954.27   2
   9  -6   5 22101.9 1897.50   1
   9  -6   6 2396.31 695.257   1
  -3  -6   6 2765.95 692.974   2
   6  -9  -6 2659.72 652.488   1
   9  -3   6 2787.54 774.186   1
   3  -9  -6 2295.94 592.223   1
  -6   9   6 2623.51 694.312   1
  -3   9   6 2285.48 676.244   1
  -9   3  -6 2858.14 669.883   1
   6  -9  -6 2576.30 715.157   2
  -9   6  -6 2767.20 688.398   1
   3  -9  -6 2263.87 635.100   2
  -9   3  -7 2616.60 687.354   1
   6  -9  -7 2609.70 701.526   1
   9  -3   7 3141.82 733.836   1
   3  -9  -7 3050.10 731.303   1
  -6   9   7 2596.31 697.334   1
  -3   9   7 2412.17 655.263   1
   6  -9  -7 3946.53 892.881   2
   9  -6   7 2163.37 618.984   1
  -9   6  -7 2816.40 712.163   1
   3  -9  -7 2704.24 709.210   2
  -6   9   8 307289. 7818.52   1
   6  -9  -8 312276. 7875.08   1
   3  -9  -8 325512. 8039.19   1
  -3   9   8 298971. 7691.16   1
   9  -3   8 314679. 7773.08   1
  -9   3  -8 303413. 7879.19   1
   9  -6   8 330850. 8020.15   1
  -9   6  -8 321934. 7930.92   1
   3  -9  -8 312834. 8098.04   2
   6  -9  -8 349925. 8344.17   2
  -6   9   9 11288.7 1404.25   1
   6  -9  -9 11837.9 1461.35   1
   3  -9  -9 13463.3 1492.13   1
   3  -9  -9 10660.4 1436.80   2
  -3   9   9 11251.9 1388.56   1
   9  -3   9 15404.9 1596.79   1
   9  -6   9 15489.7 1678.96   1
  -9   3  -9 10494.9 1350.84   1
  -9   6  -9 10698.8 1320.78   1
  -6   9  10 43139.1 2830.98   1
   6  -9 -10 43942.5 2836.42   1
   3  -9 -10 35204.2 2570.78   1
   9  -3  10 41216.5 2742.51   1
  -3   9  10 38282.2 2617.45   1
   9  -6  10 42100.8 2808.99   1
  -9   3 -10 37724.3 2660.93   1
  -9   6 -10 41032.5 2755.30   1
   3  -9 -10 38106.1 2719.26   2
  -9   6 -11 600.776 391.007   1
   6  -9 -11 654.119 448.070   1
   3  -9 -11 442.334 364.188   1
   9  -6  11 926.560 495.312   1
  -6   9  11 572.524 437.275   1
   3  -9 -11 241.634 440.862   2
  -3   9  11 462.501 304.358   1
  -9   3 -11 1636.99 656.197   1
   9  -3  11 588.431 397.979   1
  -6   9  12 211879. 6701.85   1
   9  -3  12 228067. 6896.70   1
   6  -9 -12 215365. 6818.94   1
   3  -9 -12 251852. 7148.77   1
  -3   9  12 257988. 7148.84   1
   9  -6  12 215710. 6681.88   1
  -9   3 -12 225058. 6988.21   1
  -9   6 -12 232875. 7060.67   1
   3  -9 -12 214647. 7001.16   2
  -9   6 -13 128.494 342.576   1
   9  -6  13-77.7962 247.707   1
   9  -3  13 162.076 225.536   1
   6  -9 -13 711.023 407.159   1
   3  -9 -13 379.018 389.506   1
  -6   9  13-35.0025 268.278   1
  -3   9  13 797.328 494.104   1
  -9   3 -13 114.939 343.640   1
  -6   9  14 26342.9 2314.09   1
   6  -9 -14 24742.4 2266.11   1
   3  -9 -14 31069.2 2451.86   1
   9  -6  14 26256.7 2369.00   1
  -3   9  14 31177.4 2459.85   1
  -9   3 -14 28220.7 2426.85   1
  -9   6 -14 25841.0 2340.25   1
   9  -3  14 27377.4 2355.79   1
   6  -9 -15 1181.47 595.326   1
   3  -9 -15 1423.22 552.514   1
  -6   9  15 897.862 501.509   1
  -3   9  15 1381.84 543.103   1
   9  -3  15 1152.37 510.830   1
  -9   3 -15 1443.95 543.654   1
  -7  -2 -14 49578.6 3162.10   2
  -2  -7 -14 48031.1 3170.77   1
  -7  -2 -14 49544.8 3099.10   1
   2   7  14 48659.7 3142.47   1
   7   2  14 52560.5 3230.14   1
  -2  -7 -14 51566.0 3391.68   2
  -7  -2 -13 43430.2 2860.72   2
  -2  -7 -13 42220.1 2937.63   2
  -2  -7 -13 35217.2 2678.22   1
   7   2  13 41664.2 2851.53   1
  -7  -2 -13 39083.8 2800.09   1
   2   7  13 39322.3 2813.56   1
  -7  -2 -12 7184.48 1211.61   2
  -2  -7 -12 8539.82 1289.52   1
  -7  -2 -12 9099.99 1387.13   1
   2   7  12 9248.03 1284.31   1
   7   2  12 10647.4 1458.42   1
  -2  -7 -12 9841.71 1426.31   2
   9  -7 -11 55634.0 3278.06   1
  -7  -2 -11 54173.4 3284.33   2
  -2  -7 -11 58431.4 3372.42   1
  -7  -2 -11 58374.4 3372.96   1
   2   7  11 60995.9 3396.31   1
   2  -9  11 51806.1 3282.40   2
   7   2  11 67615.0 3488.71   1
  -2  -7 -11 56101.3 3410.40   2
  -9   7  11 48761.0 3157.07   1
   9  -7 -10 188108. 6097.43   1
  -7  -2 -10 189863. 6172.03   2
   2  -9  10 185700. 6339.87   2
  -2  -7 -10 198584. 6332.71   1
  -7  -2 -10 189135. 6221.64   1
   2   7  10 202172. 6262.15   1
   7   2  10 186121. 6071.06   1
  -2  -7 -10 185599. 6228.98   2
  -7  -2  -9 25454.2 2178.17   2
  -2  -7  -9 20719.9 1983.46   1
  -7  -2  -9 22349.3 2030.78   1
   2   7   9 21966.6 1961.34   1
   2  -9   9 20701.5 2029.38   2
  -7   9  -9 22196.2 2010.08   1
   7   2   9 17413.1 1768.39   1
  -2  -7  -9 26781.5 2176.96   2
  -9   7   9 24523.9 2108.29   1
   9  -7  -9 23605.6 2038.32   1
  -7  -2  -8 79784.8 3859.47   2
  -2  -7  -8 78214.8 3800.48   2
   2  -9   8 77451.5 3845.57   2
   7  -9   8 81821.5 3876.17   1
  -2  -7  -8 75657.1 3778.42   1
  -7  -2  -8 88271.8 4024.24   1
   2   7   8 78370.7 3787.59   1
   7   2   8 80556.8 3811.74   1
   9  -7  -8 81808.8 3818.95   1
  -9   7   8 84234.0 3930.01   1
  -7   9  -8 75039.6 3768.18   1
  -7  -2  -7 22440.0 1959.46   2
   7  -9   7 22132.0 2005.49   1
  -2  -7  -7 20802.8 1951.00   1
  -7  -2  -7 21154.2 1962.02   1
   2   7   7 22523.9 1999.03   1
   2  -9   7 21625.1 1989.01   2
  -7   9  -7 22698.2 1988.69   1
   9  -7  -7 21657.2 1891.81   1
  -2  -7  -7 22749.3 2009.06   2
  -9   7   7 17346.2 1773.61   1
   7   2   7 22801.2 2000.04   1
  -7  -2  -6 350962. 8300.62   2
   2  -9   6 323445. 8079.78   2
  -2  -7  -6 328009. 8122.44   1
  -7   9  -6 331426. 8101.52   1
   7  -9   6 312138. 7740.74   1
  -7  -2  -6 302737. 7848.27   1
   2   7   6 340112. 8185.32   1
   9  -2  -6 309192. 7658.94   1
   7  -9   6 322393. 8119.20   2
   9  -7  -6 278216. 7285.09   1
  -2  -7  -6 348503. 8214.63   2
  -9   7   6 300629. 7710.47   1
   7   2   6 343915. 8091.90   1
  -7  -2  -5 210015. 6207.41   2
  -2  -7  -5 199776. 6114.58   1
   7  -9   5 199351. 6208.29   2
  -7  -2  -5 204355. 6256.31   1
   2   7   5 203011. 6098.35   1
   7  -9   5 204150. 5969.30   1
   9  -2  -5 232963. 6395.02   1
  -9   2   5 206748. 6011.60   1
   9  -7  -5 180893. 5704.04   1
   2  -9   5 186616. 5978.00   2
  -7   9  -5 195136. 6037.05   1
  -2  -7  -5 199239. 6097.08   2
  -9   7   5 189252. 5878.86   1
   7   2   5 190092. 5879.48   1
   7   2   4 9661.86 1278.81   1
  -7  -2  -4 13129.7 1478.53   2
  -2  -7  -4 8971.64 1258.02   1
  -7  -2  -4 7991.83 1196.66   1
   2  -9   4 7864.46 1182.46   2
   2   7   4 9394.74 1270.66   1
   9  -2  -4 9224.24 1203.74   1
  -9   2   4 11036.2 1345.73   1
   9  -7  -4 9002.49 1154.87   1
   7  -9   4 8024.34 1194.91   2
   7  -9   4 7598.28 1109.16   1
  -2  -7  -4 8189.96 1224.97   2
  -9   7   4 8220.43 1188.30   1
  -7   9  -4 9205.82 1249.56   1
   7   2   3 291583. 7353.18   1
  -7  -2  -3 323926. 7659.65   2
  -2   9  -3 297583. 7195.92   1
   2  -9   3 285299. 7163.85   1
  -2  -7  -3 279459. 7324.90   1
   7  -9   3 287739. 7103.52   1
  -7  -2  -3 314979. 7742.98   1
   2   7   3 280317. 7290.49   1
   9  -2  -3 248663. 6794.38   1
   9  -7  -3 265264. 7018.19   1
  -9   2   3 357250. 7947.70   1
   7  -9   3 276008. 7439.24   2
   2  -9   3 281497. 7310.21   2
  -2  -7  -3 275378. 7246.18   2
  -9   7   3 274530. 7278.10   1
  -7   9  -3 275847. 7188.35   1
   7   2   2 107592. 4276.48   1
   7  -9   2 110429. 4192.39   1
   2  -9   2 101451. 4098.65   1
  -2   9  -2 109017. 4159.51   1
  -2  -7  -2 108823. 4360.89   1
  -7  -2  -2 97962.0 4138.84   1
   2   7   2 96928.1 4071.55   1
   9  -7  -2 111526. 4156.61   1
   9  -2  -2 115219. 4373.62   1
  -9   2   2 98550.7 4057.33   1
   7  -9   2 102958. 4357.13   2
   2  -9   2 106619. 4258.10   2
  -9   7   2 104344. 4265.75   1
  -2  -7  -2 106717. 4282.36   2
  -7  -2  -2 116581. 4461.59   2
  -7   9  -2 104102. 4187.47   1
  -7  -2  -1 17658.0 1706.31   2
   7   2   1 19409.5 1737.88   1
  -7   9  -1 19853.0 1809.94   1
   2  -9   1 23110.9 1911.04   1
  -2   9  -1 21032.9 1813.79   1
   7  -9   1 17168.5 1630.87   1
  -2  -7  -1 20154.3 1775.62   1
   9  -7  -1 15208.2 1565.76   1
   2   7   1 20946.5 1825.51   1
  -7  -2  -1 19531.8 1833.30   1
   9  -2  -1 18875.5 1777.23   1
  -9   2   1 19813.9 1780.35   1
   7  -9   1 19327.2 1851.60   2
   2  -9   1 20213.7 1830.96   2
  -9   7   1 20212.0 1802.16   1
  -2  -7  -1 18858.3 1784.07   2
   7  -9   0 888.317 451.052   1
  -7  -2   0 1199.40 446.716   2
  -9   7   0 1580.28 590.775   1
   2  -9   0 1538.78 608.651   2
  -7   9   0 1052.32 463.796   1
   2  -9   0 1296.93 500.231   1
  -2  -7   0 373.633 274.476   1
   9  -2   0 1337.39 579.747   1
  -2  -7   0 1802.95 646.126   2
   9  -7   0 578.033 326.923   1
  -2   9   0 568.290 344.276   1
   7   2   0 1015.34 337.089   1
  -7  -2   0 561.225 314.204   1
   7  -9   0 777.655 362.503   2
   2   7   0 1077.84 510.955   1
  -9   2   0 869.328 364.934   1
  -2  -7   1 498.058 408.041   2
  -7  -2   1 642.049 331.595   2
  -9   7  -1 669.159 380.321   1
   7  -9  -1 971.011 387.153   2
  -7   9   1 702.828 441.668   1
   2  -9  -1 1047.31 398.949   1
   9  -2   1 950.893 465.226   1
  -2  -7   1 641.347 317.502   1
   9  -7   1 969.907 399.353   1
   7  -9  -1 710.116 485.714   1
  -2   9   1 985.289 403.306   1
   7   2  -1 757.808 360.262   1
   2  -9  -1 992.092 424.257   2
  -7  -2   1 1457.86 535.159   1
   2   7  -1 952.077 372.669   1
  -9   2  -1 282.601 275.505   1
   7   2  -2 339713. 7760.14   1
  -7   9   2 332157. 7840.28   1
   2  -9  -2 337860. 7899.23   1
   9  -7   2 342762. 7947.61   1
  -2   9   2 328597. 7807.99   1
   2   7  -2 318388. 7427.54   1
   9  -2   2 351368. 8019.19   1
  -7  -2   2 286008. 7375.89   1
   7  -9  -2 335625. 7926.94   1
   7  -9  -2 342819. 8130.46   2
  -9   7  -2 320324. 7788.07   1
   2  -9  -2 323761. 7982.19   2
  -2  -7   2 338523. 7921.40   2
  -7  -2   2 304415. 7444.51   2
   7   2  -3 106951. 4121.77   1
  -7   9   3 101668. 4157.84   1
   9  -7   3 108513. 4230.30   1
   2  -9  -3 108992. 4329.89   1
  -2   9   3 103568. 4150.78   1
   9  -2   3 102151. 4098.96   1
  -9   2  -3 92298.3 4008.40   1
   7  -9  -3 114412. 4451.77   2
  -9   7  -3 105182. 4211.90   1
   2  -9  -3 101346. 4268.36   2
  -2  -7   3 108753. 4348.09   2
   7  -9  -3 103658. 4182.24   1
  -7   9   4 197706. 5902.38   1
   9  -7   4 201656. 5921.83   1
  -9   7  -4 195343. 6078.58   1
   7  -9  -4 199658. 5959.53   1
   2  -9  -4 183328. 5798.42   1
  -2   9   4 199217. 5953.37   1
   9  -2   4 188437. 5728.68   1
   7  -9  -4 207093. 6200.51   2
  -9   2  -4 209113. 6159.05   1
  -2  -7   4 194983. 6006.37   2
   2  -9  -4 210170. 6194.50   2
   9  -7   5 177594. 5591.82   1
  -7   9   5 170653. 5474.82   1
   2  -9  -5 167077. 5471.66   1
  -2   9   5 156504. 5304.64   1
   9  -2   5 183423. 5661.02   1
  -9   2  -5 162266. 5513.37   1
   7  -9  -5 167327. 5530.36   2
  -9   7  -5 169012. 5527.82   1
  -2  -7   5 175965. 5602.39   2
   2  -9  -5 163902. 5502.04   2
  -7   9   6 359496. 8345.80   1
   7  -9  -6 351319. 8390.48   1
   2  -9  -6 334910. 8218.71   1
  -2   9   6 358537. 8327.87   1
   9  -2   6 347046. 8237.56   1
   2  -9  -6 345609. 8296.87   2
  -9   2  -6 376493. 8680.38   1
   7  -9  -6 377751. 8693.24   2
  -9   7  -6 345719. 8324.82   1
  -2  -7   6 347308. 8296.01   2
   9  -7   6 347671. 8167.18   1
  -7   9   7 86330.2 3866.86   1
   7  -9  -7 84281.6 3889.63   1
   2  -9  -7 85087.0 3933.22   1
   9  -2   7 85597.0 3891.66   1
  -2   9   7 84234.8 3800.58   1
  -9   7  -7 85403.5 3951.16   1
  -9   2  -7 89376.8 4049.82   1
   9  -7   7 82930.3 3788.81   1
   7  -9  -7 85518.5 3999.28   2
  -2  -7   7 82970.9 3870.41   2
   2  -9  -7 88699.3 4040.45   2
   2  -9  -8 4230.92 966.537   2
   9  -7   8 4233.78 847.540   1
   9  -2   8 3741.75 836.618   1
   7  -9  -8 3333.64 788.873   1
   2  -9  -8 3112.07 782.570   1
  -7   9   8 4140.34 883.543   1
  -2   9   8 3857.48 853.381   1
  -9   2  -8 4603.67 905.819   1
  -9   7  -8 4515.03 935.729   1
  -7   9   9 76705.3 3709.58   1
   7  -9  -9 76385.4 3834.74   1
   9  -2   9 79110.1 3810.58   1
   2  -9  -9 73479.6 3718.81   1
  -2   9   9 74326.4 3660.03   1
  -9   2  -9 84857.9 3993.55   1
   9  -7   9 71320.2 3623.51   1
  -9   7  -9 77596.4 3790.16   1
   2  -9  -9 77844.3 3796.71   2
  -7   9  10 65519.0 3481.38   1
   7  -9 -10 59616.3 3370.13   1
   9  -2  10 62445.3 3392.16   1
   2  -9 -10 60815.0 3394.55   1
  -2   9  10 62234.6 3352.88   1
  -9   2 -10 56067.3 3308.63   1
   9  -7  10 58419.4 3329.77   1
  -9   7 -10 58931.6 3350.41   1
   2  -9 -10 61848.4 3455.64   2
  -7   9  11 75738.4 3780.62   1
   9  -2  11 69043.3 3587.55   1
   7  -9 -11 59997.1 3444.74   1
   2  -9 -11 61978.6 3468.86   1
  -2   9  11 72417.5 3626.38   1
   9  -7  11 60680.7 3429.17   1
  -9   2 -11 58979.3 3442.21   1
  -9   7 -11 59868.8 3488.24   1
   2  -9 -11 58544.4 3444.55   2
   9  -2  12 18718.9 1837.19   1
  -7   9  12 18829.5 1877.05   1
   7  -9 -12 14896.6 1722.13   1
   2  -9 -12 18987.6 1923.64   1
  -2   9  12 18863.8 1838.58   1
   9  -7  12 12828.6 1567.16   1
  -9   2 -12 18074.2 1880.10   1
  -9   7 -12 14877.0 1730.85   1
   2  -9 -12 14867.6 1765.30   2
   9  -2  13 18218.9 1908.06   1
  -7   9  13 14710.8 1715.11   1
   7  -9 -13 16477.3 1809.59   1
   2  -9 -13 16438.2 1800.62   1
  -2   9  13 18319.9 1885.66   1
  -9   2 -13 17493.1 1910.72   1
  -9   7 -13 15846.4 1792.96   1
   2  -9 -13 13245.8 1712.78   2
  -7   9  14 124974. 5244.24   1
   7  -9 -14 120290. 5152.83   1
   2  -9 -14 126431. 5205.59   1
  -9   2 -14 122990. 5193.27   1
   7  -9 -15 3262.42 866.059   1
  -1  -8 -14 102371. 4802.37   2
  -8  -1 -13 10635.5 1477.50   2
  -1  -8 -13 8527.26 1296.47   1
   1   8  13 9399.37 1346.07   1
  -8  -1 -13 9995.07 1378.30   1
   8   1  13 9585.28 1350.02   1
  -1  -8 -13 10158.7 1485.70   2
  -1  -8 -12 1690.33 653.703   2
  -8  -1 -12 2105.93 561.794   2
   1   8  12 2857.16 799.047   1
  -9   8  12 2258.70 717.712   1
  -1  -8 -12 3142.36 798.739   1
   8   1  12 1988.13 623.014   1
  -8  -1 -12 2091.60 682.414   1
   9  -8 -12 1676.04 611.439   1
  -9   8  11 52920.2 3328.27   1
  -8  -1 -11 65301.8 3652.70   2
   9  -8 -11 64760.0 3576.76   1
  -1  -8 -11 66200.0 3647.93   1
   1   8  11 63943.5 3498.07   1
  -8  -1 -11 69609.0 3735.34   1
  -1  -8 -11 68430.7 3762.40   2
   8   1  11 68744.9 3608.69   1
  -8  -1 -10 124825. 5000.75   2
   9  -8 -10 131144. 5072.20   1
  -1  -8 -10 124656. 5011.60   1
   1   8  10 133387. 5041.83   1
  -8  -1 -10 127636. 5145.59   1
   1  -9  10 120049. 5112.32   2
  -8   9 -10 126775. 5179.52   1
  -1  -8 -10 125298. 5036.77   2
   8   1  10 135767. 5041.78   1
  -9   8   9 87690.7 4074.28   1
  -8  -1  -9 104194. 4470.97   2
   9  -8  -9 106250. 4449.46   1
  -1  -8  -9 102699. 4491.92   1
   1   8   9 93342.4 4192.55   1
  -8  -1  -9 104947. 4577.19   1
   1  -9   9 95492.8 4436.40   2
  -8   9  -9 100856. 4504.42   1
  -1  -8  -9 100391. 4450.05   2
   8  -9   9 102804. 4448.06   1
   8   1   9 104620. 4407.70   1
   8   1   8 108312. 4427.27   1
   8  -9   8 99503.5 4341.55   1
  -8  -1  -8 101968. 4450.34   2
   9  -8  -8 95905.6 4234.70   1
  -1  -8  -8 102183. 4442.02   1
   1   8   8 91836.3 4142.36   1
  -8  -1  -8 97714.4 4376.39   1
   1  -9   8 102332. 4496.61   2
  -8   9  -8 103006. 4501.39   1
  -1  -8  -8 90730.4 4181.90   2
  -9   8   8 98087.4 4285.96   1
   8   1   7 13427.3 1574.38   1
  -8  -1  -7 13887.8 1647.55   2
   9  -8  -7 13452.6 1534.42   1
   8  -9   7 15220.2 1613.00   1
  -1  -8  -7 14028.1 1603.07   1
   1   8   7 12615.3 1513.40   1
  -8  -1  -7 15580.3 1754.97   1
   1  -9   7 11584.9 1503.85   2
  -8   9  -7 13632.3 1580.08   1
  -1  -8  -7 12117.4 1463.14   2
  -9   8   7 10853.9 1415.78   1
   8   1   6 187495. 5860.51   1
  -8  -1  -6 192129. 6103.48   2
   9  -8  -6 176942. 5727.16   1
  -8   9  -6 181974. 5873.06   1
   8  -9   6 176031. 5795.62   1
  -1  -8  -6 178231. 5887.64   1
   1   8   6 181122. 5793.27   1
   1  -9   6 202040. 6219.59   2
  -1  -8  -6 173333. 5776.17   2
  -9   8   6 195919. 6066.79   1
   9  -8  -5 38534.7 2563.88   1
   8   1   5 36351.5 2466.96   1
  -8  -1  -5 40401.7 2681.97   2
  -1  -8  -5 37932.2 2626.52   1
   8  -9   5 34609.5 2431.93   1
   1   8   5 39958.2 2645.02   1
  -8  -1  -5 36974.2 2573.26   1
   1  -9   5 35938.9 2508.03   2
  -8   9  -5 40866.5 2703.42   1
  -1  -8  -5 38384.0 2677.73   2
  -9   8   5 36803.0 2545.18   1
  -1  -8  -4 157.204 380.082   2
  -8  -1  -4 350.989 440.482   2
  -8   9  -4 254.880 225.789   1
  -9   8   4 451.671 326.552   1
   9  -8  -4 125.396 223.895   1
   9  -1  -4 58.1002 293.549   1
  -1  -8  -4 96.7553 301.489   1
   8  -9   4 734.763 468.749   1
   8   1   4 570.537 298.659   1
  -8  -1  -4 557.888 419.488   1
   1   8   4 268.290 334.888   1
  -9   1   4 366.723 355.253   1
   1  -9   4-307.012 343.892   2
  -8  -1  -3 158178. 5361.66   2
   8   1   3 140747. 4963.98   1
  -1  -8  -3 142960. 5147.17   1
   9  -1  -3 126992. 4673.61   1
   1   8   3 125056. 4743.42   1
  -8  -1  -3 111475. 4560.64   1
  -9   1   3 182936. 5658.09   1
   8  -9   3 139170. 4922.11   1
   8  -9   3 133170. 5013.88   2
   1  -9   3 115279. 4581.87   2
   9  -8  -3 140656. 4857.59   1
  -1  -8  -3 139356. 5017.61   2
  -8   9  -3 136209. 4991.63   1
  -9   8   3 119565. 4669.59   1
  -8  -1  -2 228667. 6446.14   2
   8   1   2 222232. 6307.33   1
   1  -9   2 213376. 6159.06   1
   8  -9   2 197406. 5893.58   1
  -1   9  -2 203186. 6005.54   1
  -1  -8  -2 201860. 6179.76   1
   9  -1  -2 232360. 6412.35   1
   1   8   2 200344. 6021.82   1
  -8  -1  -2 206708. 6168.35   1
   9  -8  -2 182573. 5758.00   1
  -9   1   2 203920. 6129.72   1
   8  -9   2 208218. 6371.12   2
   1  -9   2 195982. 6011.44   2
  -1  -8  -2 217125. 6324.03   2
  -9   8   2 191625. 5903.21   1
  -8   9  -2 204737. 6174.95   1
  -8  -1  -1 103253. 4229.07   2
   8   1   1 98467.2 4104.62   1
   1  -9   1 106727. 4275.18   1
  -1  -8  -1 109827. 4414.68   1
  -1   9  -1 112231. 4348.71   1
   9  -1  -1 116394. 4437.46   1
   1   8   1 108234. 4309.82   1
  -8  -1  -1 85676.5 3916.74   1
  -9   1   1 120807. 4605.34   1
   9  -8  -1 94103.5 3987.86   1
   8  -9   1 107521. 4513.69   2
   1  -9   1 105453. 4329.62   2
  -1  -8  -1 95111.1 4078.72   2
   8  -9   1 101149. 4101.52   1
  -9   8   1 109542. 4363.19   1
  -8   9  -1 105611. 4268.02   1
   8  -9   0 18765.3 1767.84   1
  -8  -1   0 18831.5 1735.64   2
  -9   1   0 20570.4 1908.82   2
   8   1   0 17490.6 1712.59   1
   1  -9   0 18449.5 1750.43   1
  -1  -8   0 17949.6 1726.17   1
  -1   9   0 17490.3 1741.70   1
   9  -1   0 17605.3 1708.67   1
   1   8   0 17122.0 1664.22   1
  -8  -1   0 23070.4 1947.69   1
   9  -8   0 18098.1 1685.06   1
  -9   1   0 15720.0 1650.62   1
   8  -9   0 15308.9 1761.56   2
   1  -9   0 18663.5 1797.86   2
  -1  -8   0 19425.7 1860.88   2
  -9   8   0 19553.3 1810.54   1
  -8   9   0 18034.0 1727.17   1
  -9   1  -1 70246.8 3602.04   2
   8   1  -1 68018.5 3401.03   1
   8  -9  -1 77682.8 3571.00   1
   1  -9  -1 76846.7 3642.81   1
  -1  -8   1 76462.2 3590.32   1
  -1   9   1 79422.1 3621.94   1
   9  -1   1 84083.4 3798.02   1
   1   8  -1 74303.3 3526.72   1
   9  -8   1 79350.2 3545.37   1
  -8  -1   1 66211.2 3401.92   1
  -9   1  -1 63313.3 3347.28   1
   8  -9  -1 81477.7 3865.57   2
   1  -9  -1 73647.2 3616.72   2
  -1  -8   1 71117.0 3529.67   2
  -9   8  -1 78534.7 3710.16   1
  -8   9   1 78319.9 3675.49   1
  -8   9   2 298812. 7677.38   1
  -9   1  -2 325574. 8061.92   2
   8   1  -2 337164. 7862.42   1
   1  -9  -2 324378. 7892.89   1
   8  -9  -2 323424. 7690.48   1
  -1   9   2 293398. 7545.32   1
   9  -1   2 288650. 7493.12   1
   9  -8   2 300814. 7525.72   1
  -8  -1   2 289376. 7397.63   1
  -9   1  -2 271259. 7299.78   1
   8  -9  -2 320137. 8020.75   2
  -1  -8   2 325731. 8018.08   2
   1  -9  -2 314122. 7820.13   2
  -9   8  -2 311964. 7789.19   1
  -8   9   3 49296.8 2888.64   1
   8  -9  -3 53764.9 3113.45   2
  -9   1  -3 48117.8 2959.38   2
   8   1  -3 49908.6 2855.01   1
   1  -9  -3 51548.6 2980.97   1
   9  -8   3 48112.0 2833.61   1
   9  -1   3 43961.3 2728.55   1
  -1   9   3 45970.1 2807.68   1
   8  -9  -3 45310.9 2717.61   1
  -9   1  -3 53565.1 3034.29   1
  -1  -8   3 59433.9 3250.56   2
  -9   8  -3 46158.4 2843.07   1
   1  -9  -3 49286.7 2940.09   2
  -8   9   4 83173.7 3852.19   1
  -9   1  -4 91099.7 4193.57   2
   9  -8   4 77615.6 3662.37   1
   1  -9  -4 80259.6 3814.54   1
   9  -1   4 79692.0 3762.80   1
  -1   9   4 82439.3 3764.65   1
   8  -9  -4 82951.8 3766.21   1
  -9   1  -4 81630.2 3834.30   1
   8  -9  -4 78599.4 3829.21   2
  -1  -8   4 78479.2 3798.31   2
  -9   8  -4 73653.7 3616.13   1
   1  -9  -4 79081.5 3770.24   2
  -1  -8   5 58246.6 3231.58   2
  -8   9   5 50864.3 3044.86   1
  -9   1  -5 65319.5 3576.60   2
   9  -8   5 57988.6 3155.10   1
   9  -1   5 57498.1 3130.77   1
   1  -9  -5 51574.7 3056.20   1
  -1   9   5 49954.9 2954.72   1
  -9   1  -5 58789.8 3308.31   1
   8  -9  -5 52456.7 3012.86   1
   8  -9  -5 56433.8 3231.93   2
  -9   8  -5 57398.0 3158.46   1
   1  -9  -5 55776.1 3160.61   2
   9  -8   6 130285. 4810.53   1
  -8   9   6 127156. 4776.72   1
  -9   1  -6 120131. 4968.62   2
   9  -1   6 131467. 4883.72   1
   1  -9  -6 123567. 4806.49   1
   8  -9  -6 117846. 4657.79   1
  -1   9   6 122801. 4734.80   1
  -9   1  -6 115917. 4768.55   1
  -9   8  -6 120030. 4780.68   1
  -1  -8   6 130459. 4977.83   2
   1  -9  -6 130919. 4932.01   2
  -8   9   7 116125. 4569.14   1
  -9   1  -7 115826. 4873.30   2
   9  -1   7 90349.4 4057.67   1
   1  -9  -7 109822. 4507.64   1
  -1   9   7 97260.1 4220.10   1
  -9   1  -7 107183. 4492.66   1
  -9   8  -7 104368. 4432.53   1
  -1  -8   7 101265. 4469.91   2
   8  -9  -7 113372. 4570.05   1
   1  -9  -7 101884. 4322.55   2
   9  -8   7 97231.7 4215.02   1
  -9   8  -8 3059.55 814.875   1
   1  -9  -8 2376.23 703.661   2
  -9   1  -8 3626.53 881.761   2
   9  -8   8 2734.77 747.125   1
   8  -9  -8 2801.95 728.134   1
  -8   9   8 2913.95 717.076   1
   1  -9  -8 3010.27 797.278   1
  -1   9   8 3477.15 784.214   1
  -9   1  -8 2367.42 633.373   1
   9  -1   8 2399.60 653.575   1
  -1  -8   8 2005.10 686.341   2
  -9   8  -9 40971.6 2825.60   1
  -8   9   9 31691.4 2448.81   1
  -9   1  -9 39228.1 2779.19   2
   9  -1   9 43832.1 2736.35   1
   1  -9  -9 36965.2 2626.43   1
  -1   9   9 37109.6 2595.00   1
  -9   1  -9 36005.3 2546.44   1
   1  -9  -9 39254.4 2745.64   2
   9  -8   9 38812.7 2719.93   1
   8  -9  -9 38182.3 2654.66   1
   8  -9 -10 159054. 5654.98   1
  -8   9  10 146638. 5519.60   1
   9  -1  10 168196. 5635.96   1
  -9   1 -10 151219. 5775.99   2
   1  -9 -10 157370. 5655.28   1
  -1   9  10 161038. 5615.61   1
  -9   1 -10 163232. 5718.23   1
   9  -8  10 157980. 5668.84   1
  -9   8 -10 155232. 5673.54   1
   1  -9 -10 162091. 5744.40   2
   9  -1  11 12129.6 1514.83   1
  -8   9  11 9087.44 1342.43   1
   8  -9 -11 8466.72 1288.03   1
  -9   1 -11 10535.7 1374.81   2
   1  -9 -11 10803.2 1454.40   1
  -1   9  11 12501.4 1520.15   1
  -9   1 -11 9931.75 1399.70   1
   9  -8  11 9744.31 1403.07   1
  -9   8 -11 9586.27 1371.26   1
   1  -9 -11 9573.21 1392.06   2
   1  -9 -12 7081.78 1133.17   2
  -9   1 -12 6905.73 1220.46   2
   1  -9 -12 8684.19 1342.07   1
  -8   9  12 6683.36 1165.18   1
   8  -9 -12 6565.18 1161.91   1
  -9   1 -12 7773.75 1317.42   1
   9  -1  12 7422.49 1119.10   1
  -1   9  12 8000.29 1251.92   1
  -9   8 -12 6359.06 1173.88   1
   9  -1  13 72340.1 3761.08   1
   8  -9 -13 72796.2 3944.17   1
  -9   1 -13 64105.8 3676.95   2
   1  -9 -13 69072.4 3758.15   1
  -1   9  13 70567.7 3733.14   1
  -9   1 -13 68827.1 3789.53   1
   1  -9 -13 60538.0 3690.97   2
   8  -9 -14 73399.1 4066.56   1
  -8   9  14 76426.8 4185.81   1
   1  -9 -14 73122.3 4067.05   2
  -9   0  -1 368.263 201.513   2
  -9   9  -1 579.943 428.316   1
  -9   9   1 418.383 195.966   1
   0  -9   1 325.380 215.779   1
   0  -9  -1 550.889 350.101   1
   0   9  -1 62.8836 342.355   1
   0   9   1-107.646 180.267   1
   9  -9  -1 254.444 301.555   1
  -9   0   1 485.454 504.634   1
  -9   0  -1 97.7854 279.670   1
   9  -9   1 38.5411 203.570   1
   9   0   1 340.793 283.258   1
   9   0  -1 427.794 350.357   1
   0  -9   1 138.386 250.658   2
   0  -9  -1-68.3236 415.724   2
   9   0  -2 1819.75 630.366   1
   0  -9  -2 2143.21 628.817   2
  -9   0  -2 1794.11 496.069   2
  -9   9  -2 3200.24 824.204   1
   9  -9  -2 3095.26 697.550   1
  -9   9   2 1715.96 515.537   1
   0  -9  -2 2002.56 552.374   1
   9  -9   2 2556.01 658.149   1
   0   9   2 2281.47 610.196   1
  -9   0  -2 2334.03 748.462   1
  -9   0   2 2459.61 658.515   1
   9   0   2 2006.80 629.121   1
   0  -9   2 2297.60 683.840   2
   9   0  -3 1035.31 439.223   1
   0  -9  -3 1396.43 598.835   2
  -9   0  -3 760.428 524.960   2
  -9   9  -3 822.482 319.700   1
  -9   9   3 637.510 255.751   1
   9  -9  -3 1022.22 490.549   1
   0  -9  -3 701.763 420.556   1
   9  -9  -3 1198.41 567.814   2
   9  -9   3 1199.98 509.056   1
   0   9   3 775.587 392.808   1
  -9   0  -3 304.516 392.108   1
   9   0   3 1033.84 483.715   1
   0  -9   3 714.595 431.714   2
  -9   0  -4 69144.7 3705.97   2
   9  -9  -4 54759.0 3112.27   1
   9   0   4 58008.3 3193.18   1
   0  -9  -4 56133.6 3205.24   1
   9  -9   4 63141.6 3346.20   1
   0   9   4 60216.5 3319.93   1
  -9   0  -4 55395.0 3191.57   1
   9  -9  -4 56750.0 3526.02   2
   0  -9   4 60816.2 3385.91   2
  -9   9  -4 54041.5 3190.62   1
   0  -9  -4 56755.2 3231.23   2
  -9   9   4 60304.1 3254.59   1
   0  -9  -5 344.540 429.808   2
  -9   9  -5 420.541 417.521   1
  -9   0  -5 761.405 484.056   2
  -9   9   5 724.263 400.757   1
   9  -9   5-4.91532 227.515   1
   0  -9  -5-100.448 430.169   1
   9  -9  -5 90.0798 214.659   1
   9   0   5 321.760 270.414   1
  -9   0  -5 267.097 295.946   1
   0   9   5 63.8064 165.625   1
   0  -9   5 204.739 235.966   2
   0  -9  -6 1789.39 615.387   2
  -9   9  -6 1184.35 526.342   1
   9   0   6 883.544 346.158   1
   9  -9   6 2065.24 738.645   1
  -9   0  -6 1855.96 670.341   2
  -9   9   6 1914.38 673.798   1
   0  -9  -6 1577.47 603.075   1
   9  -9  -6 1757.27 594.480   1
  -9   0  -6 2028.65 629.853   1
   0   9   6 1564.63 537.173   1
   0  -9   6 1953.76 660.315   2
   0  -9  -7 1004.68 508.211   2
  -9   9  -7 978.897 546.654   1
  -9   0  -7 1047.98 498.569   2
  -9   9   7 1341.96 511.545   1
   9   0   7 956.911 344.819   1
   0  -9  -7 880.715 435.787   1
   9  -9   7 139.405 228.002   1
  -9   0  -7 1064.02 539.807   1
   0   9   7 520.000 243.796   1
   9  -9  -7 1306.13 612.988   1
   0  -9   7 1095.04 530.131   2
  -9   9   8 188711. 6278.65   1
   9   0   8 234646. 6725.15   1
  -9   0  -8 220147. 6923.87   2
   0  -9  -8 211007. 6617.71   1
   9  -9  -8 210896. 6498.22   1
   0   9   8 216991. 6521.70   1
  -9   0  -8 214474. 6646.64   1
   0  -9   8 196217. 6513.92   2
  -9   9  -8 205167. 6540.25   1
   0  -9  -8 216117. 6693.41   2
   9  -9   8 216364. 6564.97   1
  -9   9  -9 607.242 370.039   1
   0  -9  -9 774.853 396.572   2
   9  -9  -9 448.985 324.752   1
  -9   0  -9 502.973 414.530   2
   9  -9   9 928.004 477.848   1
  -9   9   9 335.356 374.314   1
   0  -9  -9 1081.02 426.580   1
   9   0   9 852.180 429.334   1
  -9   0  -9 460.443 361.197   1
   0   9   9 468.572 345.543   1
   9  -9  10 1857.83 582.785   1
   0  -9 -10 1943.07 710.807   2
  -9   0 -10 2187.32 705.089   2
   9  -9 -10 1660.55 601.062   1
  -9   9  10 1362.03 501.695   1
   0  -9 -10 1676.56 550.993   1
   9   0  10 1854.81 623.618   1
  -9   0 -10 2119.43 720.209   1
   0   9  10 2184.62 696.652   1
  -9   9 -10 1496.80 554.737   1
   0  -9 -11 552.173 500.802   2
  -9   0 -11 682.550 339.613   2
   9  -9 -11 265.392 216.585   1
  -9   9  11-69.2455 211.327   1
   0  -9 -11-214.299 382.682   1
   9   0  11-519.029 446.252   1
  -9   0 -11-151.155 340.744   1
   0   9  11 302.309 279.043   1
  -9   9  12 256950. 7904.91   1
  -9   0 -12 261524. 7791.22   2
   0  -9 -12 268195. 7670.80   1
   9  -9 -12 266044. 7810.38   1
   0   9  12 269517. 7553.76   1
  -9   0 -12 301790. 8161.11   1
   0  -9 -12 286087. 8120.21   2
   9   0  12 324074. 8185.23   1
   0  -9 -13 264.627 327.323   2
   9  -9 -13-297.165 359.027   1
  -5  -5 -13-242.782 362.155   2
  -5  -5 -13-168.100 213.049   1
  -5  -5 -12 596684. 12177.9   2
   5   5  12 597476. 11855.4   1
  -5  -5 -11 54.4255 318.760   2
   5   5  11 107.173 204.041   1
  -5  -5 -11-51.9009 203.611   1
  -5  -5 -10 23716.6 2212.62   2
  -5  -5 -10 25938.5 2270.03   1
   5   5  10 24724.3 2174.08   1
   5 -10  10 22133.4 2107.65   2
  -5  -5  -9 252.734 293.261   2
   5   5   9 409.821 313.350   1
  -5  -5  -9-199.696 232.910   1
   5 -10   9 353.837 363.847   2
  -5  -5  -8 87121.0 4131.48   2
  -5  -5  -8 87216.1 4077.33   1
   5   5   8 87141.4 3990.51   1
   5 -10   8 73253.5 3865.77   2
 -10   5   8 89675.1 4171.48   1
 -10   5   7 168.969 207.003   1
  10  -5  -7-51.5199 264.088   1
  -5  -5  -7-348.068 405.138   2
   5   5   7-143.591 378.069   1
  -5  -5  -7-117.233 248.053   1
   5 -10   7-3.78574 369.018   2
  10  -5  -6 20004.1 1824.06   1
 -10   5   6 15520.5 1689.81   1
  -5  -5  -6 17539.6 1777.90   1
   5   5   6 17321.0 1730.05   1
   5 -10   6 12551.9 1502.31   2
  -5  -5  -6 15528.6 1709.11   2
 -10   5   5-15.7615 285.741   1
  -5  -5  -5 129.394 293.346   2
   5   5   5 16.2816 271.668   1
  -5  10  -5-132.063 381.262   1
  -5  -5  -5-185.061 261.756   1
   5 -10   5-144.643 223.387   1
  10  -5  -5 279.929 214.588   1
   5 -10   5 131.418 275.412   2
  -5  10  -4 237438. 6699.86   1
  -5  -5  -4 214596. 6479.08   1
   5 -10   4 242617. 6667.41   1
   5   5   4 227444. 6618.95   1
   5 -10   4 221548. 6581.47   2
  -5  -5  -4 221954. 6612.40   2
 -10   5   3 3.44265 203.481   1
  -5  -5  -3-53.5175 342.869   2
   5 -10   3 79.7434 279.858   2
   5   5   3-143.042 244.495   1
  -5  10  -3 401.033 364.336   1
  -5  -5  -3 65.3144 257.949   1
  10  -5  -3 49.1902 215.302   1
   5 -10   3-5.37161 234.709   1
  -5  10  -2 36740.7 2453.47   1
   5 -10   2 40347.3 2604.64   1
  -5  -5  -2 36460.1 2526.89   1
   5   5   2 36329.3 2511.19   1
   5 -10   2 34967.9 2525.70   2
 -10   5   2 36885.9 2499.76   1
  -5  -5  -2 39565.9 2617.88   2
  10  -5  -2 39799.6 2586.89   1
 -10   5   1 472.030 419.575   1
  -5  -5  -1 933.344 504.998   2
   5   5   1 48.8755 234.154   1
   5 -10   1 15.9389 231.628   1
  -5  10  -1 239.044 368.135   1
  10  -5  -1 568.837 390.574   1
  -5  -5  -1-44.7397 252.700   1
   5 -10   1 72.0236 348.852   2
  -5  -5   1 40.5601 185.795   2
   5   5  -1 230.694 189.117   1
  10  -5   1 101.712 310.984   1
   5 -10  -1 208.853 293.705   1
  -5  10   1 278.552 255.153   1
   5 -10  -1-170.412 339.969   2
 -10   5  -1-4.08071 211.449   1
  -5  10   2 20584.2 1872.85   1
   5 -10  -2 17978.1 1790.56   1
 -10   5  -2 18090.1 1761.51   1
  10  -5   2 18121.9 1756.22   1
   5 -10  -2 21256.2 1962.09   2
  -5  -5   2 21056.4 1926.60   2
  -5  -5   3-24.6567 346.560   2
   5 -10  -3 272.182 276.761   1
  -5  10   3 195.683 204.520   1
   5 -10  -3 182.888 314.184   2
  10  -5   3-465.142 514.952   1
 -10   5  -3-384.987 435.254   1
  -5  10   4 225627. 6589.28   1
   5 -10  -4 247298. 6882.57   1
  10  -5   4 257276. 6900.68   1
 -10   5  -4 220111. 6532.09   1
   5 -10  -4 246808. 6950.89   2
   5 -10  -5-52.8730 318.423   1
  -5  10   5-114.249 264.110   1
  10  -5   5 202.741 262.385   1
   5 -10  -5 153.993 337.301   2
 -10   5  -5 50.6198 204.996   1
  -5  10   6 43956.1 2760.51   1
   5 -10  -6 45447.4 2869.24   1
   5 -10  -6 43259.3 2822.82   2
  10  -5   6 46405.9 2864.92   1
 -10   5  -6 44733.9 2797.34   1
   5 -10  -7 387.450 285.957   1
  -5  10   7 486.506 429.690   1
  10  -5   7 361.115 442.100   1
 -10   5  -7 490.472 455.609   1
   5 -10  -7 102.590 291.342   2
   5 -10  -8 63876.0 3382.70   1
  -5  10   8 61431.3 3242.06   1
  10  -5   8 52966.4 3134.18   1
 -10   5  -8 65310.1 3484.37   1
   5 -10  -8 63267.5 3562.61   2
   5 -10  -9-21.3380 223.354   1
  10  -5   9-48.9651 310.142   1
  -5  10   9 319.679 402.212   1
 -10   5  -9-231.549 340.687   1
   5 -10  -9 42.4575 258.872   2
   5 -10 -10 19232.5 1931.34   1
  -5  10  10 20400.4 1932.94   1
  10  -5  10 16844.9 1779.86   1
 -10   5 -10 18450.2 1898.20   1
   5 -10 -10 17423.4 1850.11   2
  10  -5  11 98.4401 222.036   1
   5 -10 -11-368.904 378.245   1
 -10   5 -11 88.0518 255.951   1
  -5  10  11-247.097 326.761   1
   5 -10 -12 745279. 13801.0   1
  10  -5  13 75.1497 358.342   1
   5 -10 -13-60.4538 222.557   1
  -5  10  13 331.582 207.930   1
 -10   5 -13 289.073 334.197   1
 -10   5 -14 4706.84 1018.10   1
  10  -5  14 4797.32 1024.81   1
  -4  -6 -13 8396.23 1318.61   2
  -6  -4 -12 19890.0 1996.41   2
  -4  -6 -12 18682.6 1866.37   1
  -6  -4 -12 16810.9 1825.29   1
   4   6  12 19857.9 1954.47   1
   6   4  12 18601.2 1922.07   1
  -4  -6 -12 16528.7 1857.74   2
  -6  -4 -11 157575. 5750.37   2
  -4  -6 -11 140542. 5358.37   1
  -6  -4 -11 138311. 5310.20   1
   4   6  11 130080. 5170.57   1
   4 -10  11 121638. 5270.91   2
   6   4  11 176920. 5915.05   1
  -4  -6 -11 153467. 5660.53   2
  -6  -4 -10 167087. 5805.89   2
  -4  -6 -10 148150. 5538.94   1
  -6  -4 -10 161217. 5675.29   1
   4   6  10 157186. 5592.67   1
   4 -10  10 133189. 5414.22   2
   6   4  10 138743. 5367.95   1
  -4  -6 -10 152395. 5633.59   2
  -6  -4  -9 121492. 4954.83   2
  -4  -6  -9 117519. 4803.40   1
  10  -6  -9 90010.1 4240.47   1
  -6  -4  -9 104828. 4533.96   1
   4   6   9 113089. 4677.94   1
   6 -10   9 103222. 4662.71   2
   4 -10   9 102008. 4646.66   2
   6   4   9 120370. 4803.08   1
 -10   6   9 105165. 4648.84   1
  -4  -6  -9 126738. 4975.62   2
  -6  -4  -8 17193.5 1844.55   2
  10  -6  -8 18612.1 1801.54   1
  -4  -6  -8 18616.0 1875.81   1
  -6  -4  -8 20170.6 1859.12   1
   4   6   8 22642.4 1984.05   1
   6 -10   8 17270.6 1841.44   2
   4 -10   8 18071.5 1897.19   2
   6   4   8 17022.9 1795.36   1
 -10   6   8 15925.1 1796.69   1
  -4  -6  -8 20593.6 1973.69   2
  -6  -4  -7 8348.65 1307.08   2
   4   6   7 5393.75 1010.55   1
  -4  -6  -7 7017.28 1202.70   2
 -10   6   7 6519.27 1134.29   1
   6   4   7 6348.79 1050.18   1
  10  -4  -7 5527.76 1020.55   1
  10  -6  -7 6421.66 1046.43   1
  -4  -6  -7 6060.82 1066.45   1
  -6  -4  -7 7574.66 1161.69   1
   6 -10   7 7139.91 1209.67   2
   4 -10   7 6035.71 1094.42   2
  -6  -4  -6 96420.7 4294.18   2
  10  -6  -6 80709.8 3872.26   1
  -4  -6  -6 91471.6 4180.75   1
 -10   6   6 80873.1 3930.66   1
  -6  -4  -6 94691.2 4156.14   1
 -10   4   6 78158.4 3883.75   1
   4   6   6 89269.7 4078.65   1
  -6  10  -6 105290. 4442.34   1
   6 -10   6 98695.1 4204.12   1
   6 -10   6 91734.5 4216.54   2
   4 -10   6 96278.5 4269.42   2
   6   4   6 87441.6 4087.46   1
  10  -4  -6 78841.8 3779.71   1
  -4  -6  -6 86775.6 4098.36   2
  -6  -4  -5 22503.5 2068.02   2
  10  -6  -5 18265.5 1787.04   1
  -4  -6  -5 18823.4 1847.68   1
  -6  -4  -5 21316.1 1916.71   1
   4   6   5 20651.1 1910.81   1
   6 -10   5 20868.4 1984.75   2
 -10   4   5 29060.9 2302.41   1
   4 -10   5 19469.1 1911.69   2
   6   4   5 22825.3 2012.64   1
 -10   6   5 21296.1 1974.00   1
  10  -4  -5 27470.8 2142.21   1
   6 -10   5 21819.6 1951.40   1
  -4  -6  -5 19530.3 1920.28   2
  -6  10  -5 26542.0 2151.79   1
 -10   4   4 3066.60 737.041   1
  -4  -6  -4 2564.84 723.733   2
 -10   6   4 4659.84 896.563   1
   4   6   4 3480.94 796.108   1
   4 -10   4 3584.50 824.603   1
  -6  -4  -4 3073.83 764.117   2
  10  -4  -4 4348.72 835.844   1
  -6  10  -4 4621.30 871.391   1
   6   4   4 3201.02 759.982   1
  -4  10  -4 4957.33 903.555   1
  10  -6  -4 4087.95 791.518   1
   6 -10   4 3757.67 801.188   1
  -4  -6  -4 4284.94 850.200   1
  -6  -4  -4 3571.78 788.412   1
   6 -10   4 3405.18 888.715   2
   4 -10   4 3039.28 738.939   2
  -6  -4  -3 47852.7 3054.97   2
  -6  10  -3 54559.7 3111.95   1
  -4  10  -3 47586.9 2852.52   1
  10  -6  -3 50814.4 2904.90   1
   6 -10   3 50821.3 2974.00   1
  -4  -6  -3 51513.5 3037.76   1
  -6  -4  -3 55072.4 3127.72   1
   4   6   3 53267.2 2993.39   1
 -10   4   3 57451.1 3201.50   1
   6 -10   3 53458.6 3071.64   2
   4 -10   3 51029.4 2977.20   2
   6   4   3 51632.2 3006.97   1
  10  -4  -3 52690.2 2984.17   1
 -10   6   3 50821.2 2995.94   1
  -4  -6  -3 55027.0 3176.94   2
  -6  10  -2 293239. 7592.38   1
  -4  10  -2 310645. 7642.70   1
  10  -6  -2 328416. 7870.03   1
   4 -10   2 291360. 7643.69   1
  -4  -6  -2 319334. 7879.15   1
  -6  -4  -2 324123. 7954.68   1
   6 -10   2 291687. 7531.40   1
   4   6   2 301393. 7668.66   1
 -10   4   2 290161. 7608.65   1
   6 -10   2 276360. 7621.87   2
  10  -4  -2 296326. 7576.64   1
   4 -10   2 276531. 7494.71   2
   6   4   2 298471. 7614.06   1
 -10   6   2 291258. 7500.85   1
  -4  -6  -2 294619. 7639.81   2
  -6  -4  -2 299338. 7747.05   2
  -6  10  -1 67097.7 3447.92   1
  10  -6  -1 71231.3 3438.51   1
  -4  10  -1 67010.1 3443.31   1
   4 -10   1 70497.5 3542.57   1
  -4  -6  -1 72428.5 3533.47   1
  -6  -4  -1 67805.0 3433.67   1
   4   6   1 67092.2 3416.08   1
 -10   4   1 54211.6 3131.22   1
  10  -4  -1 64943.0 3363.70   1
   6 -10   1 62970.0 3419.15   2
   6 -10   1 69039.2 3446.82   1
   4 -10   1 65696.4 3457.56   2
   6   4   1 69151.0 3457.92   1
 -10   6   1 61855.1 3352.47   1
  -4  -6  -1 68100.8 3481.21   2
  -6  -4  -1 68538.0 3535.27   2
  10  -6   0 53273.6 3017.08   1
   6   4   0 63136.5 3258.06   1
  -6  10   0 60291.9 3207.42   1
   6 -10   0 57769.1 3176.70   1
  -4  10   0 59552.0 3238.30   1
   4 -10   0 60668.3 3287.85   1
  -4  -6   0 69085.1 3479.82   1
  -6  -4   0 63126.3 3301.72   1
   4   6   0 58394.2 3258.16   1
  10  -4   0 64110.8 3259.49   1
   6 -10   0 56856.5 3170.17   2
   4 -10   0 64281.1 3310.34   2
 -10   6   0 60025.8 3174.35   1
 -10   4   0 60365.0 3198.59   1
  -4  -6   0 59660.9 3209.87   2
  -6  -4   0 63234.2 3351.24   2
  10  -6   1 141762. 4941.01   1
  -6  10   1 133513. 4844.25   1
  -4  10   1 131725. 4857.63   1
   4 -10  -1 143913. 5079.96   1
  -6  -4   1 140449. 4909.74   1
   4   6  -1 132000. 4953.18   1
  10  -4   1 135571. 4900.80   1
 -10   4  -1 144538. 5068.17   1
   6 -10  -1 135927. 4997.62   2
 -10   6  -1 131000. 4888.46   1
   6   4  -1 143129. 5037.58   1
   4 -10  -1 137682. 4982.30   2
  -4  -6   1 121938. 4750.36   2
  -6  -4   1 144137. 5143.86   2
  -6  10   2 305836. 7664.40   1
   6 -10  -2 325641. 8008.16   1
  -4  10   2 309025. 7725.78   1
   4 -10  -2 345208. 8155.94   1
  10  -4   2 319281. 7835.57   1
 -10   4  -2 310159. 7731.97   1
 -10   6  -2 303105. 7693.02   1
   6 -10  -2 315205. 7982.35   2
   4 -10  -2 338042. 8176.12   2
  -4  -6   2 312884. 7965.48   2
  -6  -4   2 325063. 8006.53   2
  10  -6   2 311346. 7678.77   1
  -6  10   3 68264.5 3394.67   1
   6 -10  -3 67215.8 3502.15   1
   4 -10  -3 64355.0 3394.95   1
  -4  10   3 69769.8 3434.62   1
  10  -4   3 65732.4 3386.86   1
 -10   4  -3 66998.1 3402.29   1
 -10   6  -3 68176.7 3527.23   1
   6 -10  -3 64699.7 3473.58   2
   4 -10  -3 68212.6 3521.13   2
  10  -6   3 68715.3 3431.67   1
  -4  -6   3 76565.9 3695.93   2
  -6  10   4 9847.34 1314.22   1
   6 -10  -4 8774.01 1252.66   1
  -4  10   4 8792.59 1246.99   1
   4 -10  -4 8068.02 1184.41   1
  10  -4   4 10017.0 1256.31   1
 -10   4  -4 8386.84 1252.82   1
 -10   6  -4 11355.8 1430.92   1
   6 -10  -4 9319.37 1368.01   2
  10  -6   4 10389.3 1302.36   1
   4 -10  -4 9144.25 1300.58   2
  -4  -6   4 9332.35 1241.50   2
  -6  10   5 42614.1 2736.72   1
   6 -10  -5 42775.1 2783.76   1
   4 -10  -5 36963.4 2580.24   1
  -4  10   5 40146.3 2689.52   1
  10  -4   5 43241.7 2708.75   1
 -10   4  -5 37944.1 2632.60   1
 -10   6  -5 41873.7 2732.47   1
  10  -6   5 41818.6 2696.01   1
   6 -10  -5 38222.1 2699.43   2
   4 -10  -5 38477.5 2674.98   2
  -6  10   6 57470.8 3215.36   1
   6 -10  -6 59407.0 3312.12   1
   4 -10  -6 57682.8 3269.85   1
  -4  10   6 59183.5 3277.23   1
  10  -4   6 54391.1 3075.46   1
 -10   4  -6 56484.0 3234.88   1
  10  -6   6 59937.6 3193.24   1
 -10   6  -6 66210.1 3408.68   1
   6 -10  -6 57169.4 3312.99   2
   4 -10  -6 55364.0 3231.87   2
  -6  10   7 70859.4 3601.16   1
   6 -10  -7 73117.3 3680.43   1
   4 -10  -7 70649.6 3623.05   1
  -4  10   7 73436.1 3622.37   1
  10  -4   7 68778.6 3463.17   1
  10  -6   7 71759.9 3604.16   1
 -10   4  -7 76371.8 3712.75   1
 -10   6  -7 68441.3 3502.37   1
   6 -10  -7 68252.6 3669.32   2
   4 -10  -7 69036.5 3654.58   2
  10  -4   8 1721.60 612.590   1
   6 -10  -8 1737.10 619.238   1
   4 -10  -8 936.079 376.596   1
  -6  10   8 1639.96 553.623   1
  -4  10   8 1151.88 496.904   1
  10  -6   8 502.939 222.442   1
 -10   4  -8 122.268 210.298   1
   6 -10  -8 1374.62 613.192   2
 -10   6  -8 1029.19 429.137   1
   4 -10  -8 1265.34 448.307   2
   4 -10  -9 11356.4 1511.30   2
  -6  10   9 11569.4 1412.40   1
   6 -10  -9 12683.0 1524.39   1
   4 -10  -9 10437.3 1417.42   1
  -4  10   9 11757.7 1489.26   1
  10  -4   9 13452.5 1566.85   1
  10  -6   9 12753.9 1539.88   1
 -10   4  -9 11117.7 1503.94   1
 -10   6  -9 12054.9 1542.63   1
  -6  10  10 266943. 7461.37   1
   6 -10 -10 255276. 7522.86   1
   4 -10 -10 291256. 7793.52   1
  -4  10  10 332239. 8141.83   1
  10  -4  10 284453. 7742.68   1
  10  -6  10 298655. 7885.88   1
 -10   4 -10 289592. 7805.14   1
 -10   6 -10 268662. 7564.28   1
   4 -10 -10 244708. 7574.58   2
  -6  10  11 22843.1 2119.08   1
   6 -10 -11 17061.0 1909.76   1
   4 -10 -11 20153.9 1952.14   1
  -4  10  11 20505.1 1968.64   1
  10  -4  11 19779.2 1972.27   1
  10  -6  11 17022.0 1774.57   1
 -10   4 -11 18668.1 1950.61   1
 -10   6 -11 18372.7 1880.74   1
   4 -10 -11 16532.6 1891.39   2
  -6  10  12 47620.9 3124.22   1
   6 -10 -12 56045.8 3411.11   1
   4 -10 -12 50512.0 3184.19   1
  10  -4  12 48073.6 3125.94   1
  -4  10  12 57094.1 3343.66   1
  10  -6  12 44590.4 3006.03   1
 -10   4 -12 54304.6 3332.32   1
 -10   6 -12 47386.0 3200.85   1
  10  -4  13 118124. 5013.89   1
  -6  10  13 118037. 4996.99   1
   6 -10 -13 111975. 4946.80   1
   4 -10 -13 116032. 4936.45   1
  -4  10  13 117510. 4918.11   1
  10  -6  13 105648. 4836.03   1
 -10   4 -13 127276. 5234.31   1
 -10   6 -13 99286.9 4703.24   1
 -10   6 -14 63116.8 3808.36   1
  -3  -7 -12 1264.72 608.297   2
  -7  -3 -12 1926.96 702.070   2
   7   3  12 2910.32 799.881   1
  -3  -7 -12 1864.19 647.419   1
  -7  -3 -12 2030.45 644.963   1
   3 -10  12 2246.04 774.516   2
   3   7  12 1836.87 587.879   1
  -7  -3 -11 10054.6 1423.07   2
  -7  -3 -11 10340.7 1438.11   1
  -3  -7 -11 9349.41 1311.23   1
   3   7  11 8942.49 1318.51   1
   7   3  11 9896.80 1344.32   1
   3 -10  11 7023.44 1227.58   2
  -3  -7 -11 9059.85 1394.47   2
  -7  -3 -10 230529. 6940.58   2
  -3  -7 -10 220421. 6800.59   1
  -7  -3 -10 192110. 6377.20   1
   3   7  10 227338. 6896.22   1
  10  -7 -10 185437. 6282.73   1
   3 -10  10 177257. 6433.72   2
   7   3  10 255685. 7049.14   1
 -10   7  10 178095. 6438.17   1
  -3  -7 -10 209287. 6653.49   2
  -7  -3  -9 50835.8 3109.33   2
  -3  -7  -9 50921.8 3155.52   1
  -7  -3  -9 53177.6 3241.72   1
   3   7   9 49718.2 3075.18   1
  10  -7  -9 47111.3 3014.74   1
   3 -10   9 42790.0 2976.44   2
   7   3   9 43713.4 2886.38   1
 -10   7   9 40156.7 2912.35   1
  -3  -7  -9 49157.5 3114.33   2
  -7  -3  -8 13832.3 1600.03   2
  -3  -7  -8 13866.7 1679.63   1
  -7  -3  -8 13014.5 1604.05   1
   3   7   8 13868.2 1615.04   1
  10  -7  -8 12226.2 1460.95   1
   3 -10   8 11427.4 1489.90   2
   7   3   8 13839.6 1619.26   1
 -10   7   8 15009.1 1705.67   1
  -3  -7  -8 13473.0 1590.75   2
  -7  -3  -7 204038. 6477.87   2
  -3  -7  -7 196413. 6368.57   1
   7 -10   7 213833. 6549.47   1
  -7  -3  -7 211761. 6560.93   1
  10  -7  -7 219018. 6501.12   1
   3   7   7 209260. 6471.76   1
   7 -10   7 207316. 6548.35   2
   3 -10   7 191679. 6315.73   2
   7   3   7 201480. 6316.51   1
  -7  10  -7 218600. 6680.31   1
 -10   7   7 193692. 6329.23   1
  -3  -7  -7 193676. 6266.62   2
  -7  -3  -6 165092. 5794.19   2
  -3  -7  -6 158867. 5634.06   1
  -7  -3  -6 165368. 5696.59   1
  10  -7  -6 143382. 5218.50   1
   7 -10   6 167355. 5633.42   1
   3   7   6 174487. 5827.55   1
  10  -3  -6 160885. 5506.42   1
   7 -10   6 165627. 5778.40   2
   3 -10   6 151236. 5552.15   2
   7   3   6 165577. 5682.25   1
 -10   7   6 169470. 5829.94   1
  -7  10  -6 155813. 5566.48   1
  -3  -7  -6 157451. 5548.18   2
  -7  -3  -5 61769.2 3481.82   2
   7 -10   5 55955.0 3304.04   2
  -3  -7  -5 66071.0 3505.11   1
  -7  -3  -5 63294.0 3412.89   1
  10  -7  -5 61001.8 3289.39   1
   3   7   5 62189.8 3430.36   1
  10  -3  -5 62917.4 3380.77   1
   7 -10   5 65909.6 3410.22   1
 -10   3   5 75940.5 3703.08   1
   3 -10   5 67581.0 3512.89   2
   7   3   5 63365.7 3377.48   1
 -10   7   5 81134.1 3876.07   1
  -7  10  -5 66125.4 3537.38   1
  -3  -7  -5 63741.0 3450.45   2
  -7  -3  -4 34946.8 2585.53   2
  -3  -7  -4 29129.7 2291.26   1
  10  -7  -4 30108.1 2287.52   1
  -7  -3  -4 30180.8 2386.68   1
   3   7   4 30024.7 2295.63   1
  10  -3  -4 37048.8 2548.62   1
 -10   3   4 28732.3 2233.46   1
   7 -10   4 29375.8 2316.67   2
   3 -10   4 30438.1 2314.61   2
   7 -10   4 32297.0 2321.97   1
 -10   7   4 27497.5 2218.33   1
   7   3   4 29154.3 2298.32   1
  -3  -7  -4 28358.8 2287.96   2
  -7  10  -4 31005.8 2356.73   1
  -3  -7  -3 610.284 425.037   2
  -7  -3  -3 846.270 417.512   2
 -10   7   3 1760.48 632.520   1
  -7  10  -3 558.129 253.014   1
   3 -10   3 937.306 456.787   1
   7 -10   3 1189.82 447.633   1
  -3  10  -3 1769.88 528.813   1
   7   3   3 814.949 454.903   1
  10  -7  -3 1796.72 634.831   1
  -3  -7  -3 854.656 421.303   1
  -7  -3  -3 1387.55 570.532   1
  10  -3  -3 746.161 242.239   1
   7 -10   3 1379.66 661.444   2
   3 -10   3 430.710 303.840   2
 -10   3   3 1854.41 665.187   1
   3   7   3 973.775 439.908   1
  -7  10  -2 207814. 6306.10   1
  -7  -3  -2 224708. 6620.91   2
  -3  10  -2 209485. 6289.64   1
   7 -10   2 186775. 5954.99   1
   3 -10   2 210666. 6388.04   1
  10  -7  -2 200706. 6135.58   1
  -3  -7  -2 218874. 6520.55   1
  -7  -3  -2 223473. 6559.08   1
   3   7   2 216600. 6459.20   1
  10  -3  -2 209177. 6246.73   1
 -10   3   2 219075. 6446.75   1
   3 -10   2 197326. 6132.37   2
 -10   7   2 184335. 5961.04   1
   7 -10   2 201789. 6369.42   2
   7   3   2 198283. 6247.74   1
  -3  -7  -2 207252. 6334.36   2
  -7  -3  -1 20712.9 1982.81   2
  -7  10  -1 24013.4 2038.56   1
  -3  10  -1 22412.7 1979.87   1
   3 -10   1 21757.2 1992.99   1
  10  -7  -1 23747.7 1994.84   1
   7 -10   1 22198.7 1981.17   1
  -3  -7  -1 24723.8 2138.07   1
  -7  -3  -1 20278.7 1910.29   1
   3   7   1 24413.7 2104.49   1
  10  -3  -1 24174.4 2052.47   1
 -10   3   1 25363.6 2118.06   1
   7 -10   1 24008.7 2075.73   2
   3 -10   1 23643.4 2084.21   2
 -10   7   1 21952.1 1965.32   1
  -3  -7  -1 24157.2 2102.76   2
   7   3   1 22379.7 2000.34   1
  -7  10   0 35738.9 2491.83   1
  -3  10   0 32373.9 2336.94   1
   3 -10   0 33867.6 2452.10   1
  10  -7   0 35467.2 2420.91   1
  -3  -7   0 32389.8 2420.88   1
  -7  -3   0 33011.7 2419.85   1
   3   7   0 27941.0 2237.95   1
   7 -10   0 29588.9 2270.14   1
  10  -3   0 31102.3 2331.15   1
 -10   3   0 23545.0 2058.77   1
   7 -10   0 30701.0 2366.90   2
   3 -10   0 31485.3 2391.79   2
 -10   7   0 36825.7 2501.32   1
  -3  -7   0 32555.5 2394.26   2
   7   3   0 33536.5 2433.04   1
  -7  -3   0 29213.2 2357.03   2
  -7  10   1 97955.8 4200.51   1
  10  -7   1 89338.4 4009.40   1
   3 -10  -1 94052.7 4115.10   1
  -3  10   1 101143. 4266.05   1
  -7  -3   1 102480. 4329.21   1
  10  -3   1 91690.0 4045.63   1
 -10   3  -1 107787. 4410.99   1
   7 -10  -1 96509.4 4079.08   1
   7 -10  -1 98038.8 4284.21   2
   3 -10  -1 103140. 4354.10   2
 -10   7  -1 94143.3 4176.24   1
  -3  -7   1 88243.0 4029.55   2
   7   3  -1 98241.9 4235.02   1
  -7  -3   1 112188. 4540.27   2
  -7  10   2 164864. 5483.16   1
  10  -7   2 146557. 5142.19   1
   3 -10  -2 168494. 5626.59   1
  -3  10   2 158338. 5439.56   1
  10  -3   2 162203. 5460.04   1
 -10   3  -2 153388. 5327.37   1
   7 -10  -2 158868. 5520.42   2
 -10   7  -2 145308. 5238.65   1
   3 -10  -2 151092. 5307.77   2
  -3  -7   2 166125. 5576.48   2
   7 -10  -2 160293. 5391.24   1
  10  -7   3 116955. 4487.19   1
  -7  10   3 105447. 4348.32   1
   7 -10  -3 104621. 4273.97   1
   3 -10  -3 104311. 4412.37   1
  -3  10   3 103506. 4312.97   1
  10  -3   3 103114. 4251.84   1
 -10   3  -3 96982.1 4213.77   1
   7 -10  -3 104909. 4426.46   2
 -10   7  -3 109673. 4425.65   1
   3 -10  -3 106772. 4441.74   2
  -3  -7   3 124739. 4766.69   2
 -10   7  -4 396.686 333.148   1
   7 -10  -4-11.0377 431.521   1
   3 -10  -4 27.1942 243.243   1
  10  -3   4-290.805 389.804   1
  -7  10   4 235.748 309.403   1
  10  -7   4 127.721 237.551   1
  -3  10   4-171.476 394.268   1
   7 -10  -4 401.568 434.852   2
 -10   3  -4 89.2229 330.714   1
   3 -10  -4 354.341 367.314   2
  -3  -7   4 414.896 386.455   2
  -7  10   5 62281.4 3306.85   1
   7 -10  -5 63887.8 3423.64   1
   3 -10  -5 60581.9 3335.14   1
  -3  10   5 60905.0 3351.30   1
  10  -3   5 57985.4 3195.65   1
 -10   3  -5 61695.4 3395.81   1
 -10   7  -5 61707.3 3318.42   1
   7 -10  -5 61373.8 3458.26   2
   3 -10  -5 63808.4 3419.34   2
  -3  -7   5 61232.9 3377.04   2
  10  -7   5 61569.3 3274.96   1
  -7  10   6 288385. 7404.86   1
   7 -10  -6 280925. 7534.81   1
   3 -10  -6 282512. 7508.10   1
  -3  10   6 278357. 7471.40   1
  10  -3   6 269445. 7199.52   1
 -10   3  -6 294181. 7686.78   1
 -10   7  -6 292703. 7673.10   1
   7 -10  -6 289570. 7829.83   2
   3 -10  -6 261385. 7447.35   2
  -7  10   7 57710.6 3231.28   1
   7 -10  -7 57617.9 3258.18   1
   7 -10  -7 55959.0 3327.30   2
   3 -10  -7 50468.1 3107.55   1
  -3  10   7 52858.5 3070.92   1
  10  -3   7 58592.0 3235.13   1
 -10   3  -7 61433.6 3399.05   1
 -10   7  -7 55534.9 3173.23   1
  10  -7   7 57023.3 3181.59   1
   3 -10  -7 54638.4 3287.80   2
  -7  10   8 62755.1 3379.61   1
   7 -10  -8 53372.2 3199.45   1
   3 -10  -8 51255.2 3121.66   1
  -3  10   8 55188.0 3225.16   1
  10  -3   8 56598.1 3245.47   1
 -10   3  -8 54216.8 3217.47   1
  10  -7   8 57813.1 3244.63   1
 -10   7  -8 54301.1 3209.46   1
   3 -10  -8 52881.4 3320.11   2
  -7  10   9 98332.6 4263.46   1
   7 -10  -9 98464.9 4387.96   1
   3 -10  -9 94204.0 4226.90   1
  10  -3   9 100784. 4363.79   1
  -3  10   9 86400.6 4069.04   1
 -10   3  -9 91179.6 4249.11   1
  10  -7   9 91289.2 4236.53   1
 -10   7  -9 84146.0 4088.50   1
   3 -10  -9 80767.5 4140.86   2
  -7  10  10 72342.1 3746.42   1
   7 -10 -10 78290.0 4030.30   1
  10  -3  10 78251.6 3869.18   1
   3 -10 -10 76870.2 3824.30   1
  -3  10  10 83263.9 3886.45   1
  10  -7  10 66650.6 3665.93   1
 -10   3 -10 81847.2 4086.81   1
 -10   7 -10 75933.4 3905.60   1
   3 -10 -10 70571.7 3901.62   2
  -7  10  11 24365.4 2186.90   1
   7 -10 -11 23722.5 2150.71   1
  10  -3  11 21959.8 2029.60   1
   3 -10 -11 22657.0 2102.13   1
  -3  10  11 24756.3 2153.24   1
  10  -7  11 22028.1 2098.41   1
 -10   3 -11 22675.8 2107.14   1
 -10   7 -11 20627.2 1986.11   1
   3 -10 -11 19712.9 2041.39   2
  -7  10  12 11131.5 1455.33   1
  10  -3  12 7149.73 1186.09   1
   7 -10 -12 8516.80 1356.72   1
   3 -10 -12 10711.7 1452.45   1
  10  -7  12 7150.57 1202.02   1
  -3  10  12 7561.11 1222.14   1
 -10   3 -12 8810.12 1290.12   1
 -10   7 -12 8383.40 1289.41   1
   3 -10 -12 8495.23 1349.64   2
  10  -7  13 506.423 313.592   1
   7 -10 -13 109.990 215.538   1
  -7  10  13 405.601 404.004   1
 -10   7 -13 523.652 272.694   1
  -2  -8 -12 189031. 6398.17   2
  10  -8 -11 1052.75 527.801   1
  -2  -8 -11 1015.33 536.368   2
  -8  -2 -11 1781.16 650.506   2
 -10   8  11 1217.65 509.724   1
   8   2  11 1948.47 689.447   1
  -2  -8 -11 1617.70 655.706   1
  -8  -2 -11 1342.86 457.803   1
   2   8  11 981.066 564.819   1
  10  -8 -10 3209.85 803.245   1
  -2  -8 -10 3875.74 889.877   2
  -8  -2 -10 4455.98 926.947   2
 -10   8  10 4542.38 997.398   1
   8   2  10 4296.34 880.796   1
  -2  -8 -10 3355.79 871.403   1
  -8  -2 -10 2886.29 815.051   1
   2 -10  10 3007.75 913.849   2
   2   8  10 4722.92 988.245   1
  -2  -8  -9 6866.28 1171.82   2
  -8  -2  -9 7573.66 1223.66   2
 -10   8   9 6521.40 1147.52   1
   8   2   9 6984.86 1183.27   1
  -2  -8  -9 7243.87 1224.16   1
  -8  -2  -9 6748.87 1165.47   1
   2 -10   9 5677.10 1108.33   2
   2   8   9 6558.40 1072.95   1
  10  -8  -9 7585.79 1181.59   1
  -8  -2  -8 256036. 7410.32   2
   8 -10   8 249216. 7394.29   1
  -2  -8  -8 288365. 7841.29   1
  -8  -2  -8 292701. 7926.26   1
   2   8   8 274540. 7562.93   1
   2 -10   8 240980. 7374.52   2
  10  -8  -8 269331. 7408.19   1
  -8  10  -8 278449. 7836.11   1
  -2  -8  -8 265822. 7481.59   2
   8   2   8 272303. 7532.49   1
 -10   8   8 274965. 7636.12   1
  -2  -8  -7 4253.57 921.706   2
  -8  10  -7 4324.22 906.766   1
  -8  -2  -7 4784.37 955.625   2
 -10   8   7 5942.29 1078.52   1
   8 -10   7 4425.56 938.904   1
  -2  -8  -7 4537.44 986.956   1
   8   2   7 4006.66 908.831   1
  -8  -2  -7 4341.13 974.862   1
   2 -10   7 4340.94 929.069   2
   2   8   7 4618.88 957.050   1
  10  -8  -7 4845.65 922.018   1
  -2  -8  -6 119.440 497.294   2
  -8  10  -6-15.2043 220.443   1
  -8  -2  -6-94.3079 389.947   2
 -10   8   6 139.061 208.214   1
  -2  -8  -6 25.2862 211.799   1
   8 -10   6 109.448 195.897   1
   8   2   6 141.298 289.836   1
  -8  -2  -6 263.956 252.785   1
  10  -8  -6-365.963 273.286   1
   2 -10   6-203.020 421.932   2
   2   8   6-592.183 426.342   1
  -8  -2  -5 15090.7 1718.22   2
  -2  -8  -5 16265.6 1750.88   1
   2   8   5 15791.6 1733.79   1
   8 -10   5 16208.1 1687.89   1
  -8  -2  -5 16157.5 1767.91   1
  10  -8  -5 15927.0 1639.50   1
   2 -10   5 14133.9 1652.31   2
  -8  10  -5 15534.2 1733.48   1
  -2  -8  -5 16324.7 1759.23   2
 -10   8   5 18551.4 1886.19   1
   8   2   5 13974.8 1616.32   1
  -8  -2  -4 265324. 7536.35   2
  -2  -8  -4 312731. 8135.58   1
   2   8   4 292747. 7770.25   1
  10  -2  -4 339382. 8247.18   1
  -8  -2  -4 277611. 7769.11   1
  10  -8  -4 327219. 7939.91   1
   8 -10   4 305001. 7740.67   1
 -10   2   4 339947. 8320.80   1
   8 -10   4 296793. 7988.13   2
   2 -10   4 287219. 7799.34   2
  -2  -8  -4 306108. 8035.34   2
 -10   8   4 286632. 7773.07   1
  -8  10  -4 300351. 7992.54   1
   8   2   4 284138. 7709.73   1
  -2  -8  -3 747.998 395.600   2
  -8  -2  -3 1671.75 552.496   2
 -10   8   3 1551.36 536.989   1
  -8  10  -3 1038.75 464.337   1
  10  -2  -3 1115.38 552.982   1
  -2  -8  -3 1547.01 621.580   1
   8   2   3 2091.24 682.718   1
  -8  -2  -3 1574.65 565.761   1
  10  -8  -3 662.157 199.933   1
   8 -10   3 326.322 292.715   2
 -10   2   3 704.099 412.518   1
   2   8   3 1022.09 544.132   1
   2 -10   3 1138.85 479.786   2
   8 -10   3 1346.17 573.815   1
  -8  -2  -2 20050.8 1955.30   2
  -2  10  -2 16720.1 1721.34   1
   2 -10   2 17743.9 1799.32   1
  -2  -8  -2 15591.8 1779.50   1
   2   8   2 18653.2 1791.31   1
  10  -2  -2 19037.3 1805.59   1
  10  -8  -2 15943.7 1640.70   1
  -8  -2  -2 18354.9 1848.26   1
 -10   2   2 15789.0 1717.19   1
   8 -10   2 19708.2 1911.75   2
   2 -10   2 16727.4 1776.29   2
   8 -10   2 15326.4 1619.29   1
 -10   8   2 19576.2 1889.70   1
  -2  -8  -2 15869.9 1687.44   2
  -8  10  -2 17412.1 1763.54   1
   8   2   2 18693.0 1838.63   1
  -2  -8  -1 3197.52 756.867   2
  -8  -2  -1 3290.35 756.167   2
 -10   8   1 3582.77 785.287   1
  -8  10  -1 3103.96 787.464   1
   2 -10   1 3494.16 874.740   1
  10  -2  -1 3636.10 809.020   1
   8 -10   1 3307.77 759.412   1
  -2  -8  -1 2817.61 720.411   1
  -2  10  -1 2788.63 682.507   1
  10  -8  -1 2616.83 741.537   1
   8   2   1 2912.32 757.294   1
  -8  -2  -1 3492.67 827.127   1
   8 -10   1 3725.11 903.561   2
   2   8   1 2963.46 803.588   1
 -10   2   1 3415.32 823.559   1
   2 -10   1 3307.87 803.179   2
  -8  10   0 288674. 7588.05   1
   8   2   0 327091. 8068.57   1
  -8  -2   0 288788. 7852.99   2
   8 -10   0 290890. 7544.83   1
   2 -10   0 299288. 7829.61   1
  -2  10   0 284633. 7544.72   1
  -2  -8   0 313479. 8008.58   1
  10  -8   0 302416. 7566.79   1
   2   8   0 302419. 7753.40   1
  10  -2   0 286699. 7492.50   1
  -8  -2   0 336215. 8329.67   1
   8 -10   0 307447. 8115.66   2
   2 -10   0 290592. 7669.48   2
 -10   8   0 303479. 7729.07   1
  -2  -8   0 290708. 7714.49   2
  -2  -8   1-79.4526 264.208   2
 -10   8  -1-49.1192 283.725   1
 -10   2  -1-296.650 404.894   2
  -8  10   1-53.2674 176.983   1
  10  -2   1-8.89832 220.999   1
   2 -10  -1 461.901 407.716   1
  10  -8   1 79.5166 351.185   1
  -2  10   1 313.944 369.337   1
   8   2  -1-15.4604 302.873   1
  -8  -2   1 56.5455 160.590   1
   8 -10  -1-238.390 306.302   1
   8 -10  -1-105.010 254.960   2
 -10   2  -1-14.2981 303.224   1
   2 -10  -1 529.870 511.306   2
  -8  10   2 30777.5 2338.61   1
 -10   2  -2 26934.8 2346.98   2
   2 -10  -2 30255.6 2353.99   1
  10  -8   2 32008.9 2337.79   1
  -2  10   2 32824.8 2429.72   1
   8 -10  -2 29938.8 2294.30   1
  10  -2   2 29072.1 2276.93   1
 -10   2  -2 23262.4 2084.58   1
   8 -10  -2 31532.6 2478.45   2
 -10   8  -2 31996.2 2321.09   1
   2 -10  -2 28516.5 2301.10   2
  -2  -8   2 28903.9 2336.60   2
 -10   8  -3 6887.36 1121.95   1
  10  -8   3 6243.29 1016.56   1
 -10   2  -3 3959.65 915.994   2
  10  -2   3 4983.57 961.174   1
  -8  10   3 6069.43 1042.29   1
   2 -10  -3 6807.61 1120.57   1
   8 -10  -3 5354.40 953.984   1
  -2  10   3 4973.98 958.845   1
 -10   2  -3 5384.46 972.528   1
   8 -10  -3 7587.50 1185.86   2
   2 -10  -3 5320.52 1000.05   2
  -2  -8   3 6255.65 1079.74   2
  -8  10   4 363835. 8870.75   1
  10  -8   4 419895. 9283.20   1
   2 -10  -4 387103. 9097.72   1
  -2  10   4 412168. 9301.37   1
  10  -2   4 419769. 9278.33   1
 -10   2  -4 435059. 9573.30   1
   8 -10  -4 400196. 9180.67   1
   8 -10  -4 381552. 9444.49   2
 -10   8  -4 399804. 9240.66   1
  -2  -8   4 415020. 9507.14   2
   2 -10  -4 384391. 9165.73   2
 -10   8  -5 198.428 456.074   1
  10  -2   5 216.806 313.490   1
  -8  10   5 326.913 446.074   1
  10  -8   5 1160.34 530.588   1
  -2  10   5 199.912 303.037   1
 -10   2  -5 386.409 384.108   1
   8 -10  -5-2.80311 280.295   1
   8 -10  -5 541.347 379.709   2
  -2  -8   5 79.5950 248.781   2
   2 -10  -5 154.575 341.706   2
 -10   8  -6 932.372 379.542   1
  10  -2   6 1565.46 527.409   1
   8 -10  -6 1246.19 517.020   1
  -8  10   6 741.795 273.479   1
  10  -8   6 1150.58 489.747   1
   2 -10  -6 798.712 453.502   1
  -2  10   6 1408.32 606.389   1
 -10   2  -6 902.300 463.342   1
   8 -10  -6 1383.95 594.389   2
  -2  -8   6 804.382 413.754   2
   2 -10  -6 951.511 543.704   2
   8 -10  -7 11786.5 1409.65   1
  -8  10   7 13004.3 1563.40   1
  10  -2   7 13720.8 1556.85   1
   2 -10  -7 13309.0 1561.99   1
  -2  10   7 12364.2 1505.92   1
 -10   2  -7 13499.1 1607.72   1
 -10   8  -7 10492.3 1419.23   1
  10  -8   7 14719.9 1645.62   1
   2 -10  -7 12428.2 1556.23   2
  -8  10   8 222339. 6764.99   1
   8 -10  -8 229896. 6851.08   1
  10  -2   8 249247. 7072.08   1
   2 -10  -8 234672. 7014.81   1
  -2  10   8 250965. 7072.61   1
 -10   2  -8 260577. 7370.89   1
 -10   8  -8 239293. 7099.81   1
  10  -8   8 215875. 6721.47   1
   2 -10  -8 237328. 7080.31   2
   2 -10  -9 631.564 342.067   2
  -8  10   9 106.374 271.029   1
   8 -10  -9 135.734 267.258   1
  -2  10   9-267.430 451.737   1
 -10   2  -9 689.663 407.624   1
  10  -8   9 79.0994 253.383   1
  10  -2   9 667.305 502.720   1
 -10   8  -9 300.234 328.483   1
   2 -10 -10 609.853 386.553   2
  -8  10  10 687.115 419.653   1
   2 -10 -10 958.863 404.998   1
  -2  10  10 461.432 306.602   1
  10  -8  10 718.549 413.386   1
 -10   2 -10 480.632 238.553   1
  10  -2  10 902.372 531.595   1
   8 -10 -10 828.158 401.636   1
 -10   8 -10 682.521 397.404   1
   2 -10 -11 1285.17 537.797   2
 -10   2 -11 920.706 520.951   2
  -8  10  11 561.751 311.663   1
   2 -10 -11 127.375 301.683   1
  10  -8  11 748.291 410.807   1
   8 -10 -11 533.973 386.126   1
  -2  10  11 743.124 309.202   1
 -10   2 -11 248.035 278.629   1
  10  -2  11 827.058 388.428   1
 -10   8 -11 805.656 478.514   1
   8 -10 -12 123635. 5182.76   1
  10  -8  12 128452. 5347.06   1
 -10   8 -12 124228. 5237.59   1
   2 -10 -12 133094. 5503.82   2
   2 -10 -13 314.373 528.247   2
 -10   9  11 4029.11 914.382   1
  10  -9 -11 2911.29 841.141   1
  10  -9 -10 221709. 6836.29   1
  -9  -1 -10 190766. 6376.94   2
  -1  -9 -10 210303. 6729.53   1
   1   9  10 193652. 6338.22   1
  -9  -1 -10 221959. 6928.44   1
  -1  -9 -10 210302. 6829.12   2
   9   1  10 233660. 6801.39   1
  -9  -1  -9 31901.4 2478.87   2
  -1  -9  -9 33493.4 2625.68   1
   1   9   9 33888.2 2559.63   1
  -9  -1  -9 33358.0 2579.59   1
   1 -10   9 22181.5 2233.94   2
  -9  10  -9 28626.5 2475.80   1
  -1  -9  -9 35191.9 2689.25   2
   9 -10   9 28058.6 2408.31   1
   9   1   9 38485.2 2625.85   1
 -10   9   9 30045.8 2414.65   1
  10  -9  -9 27825.7 2338.38   1
  -1  -9  -8 2353.52 671.837   2
  -9  10  -8 2326.29 745.287   1
  -9  -1  -8 2141.53 665.875   2
 -10   9   8 2534.37 718.435   1
  10  -9  -8 2102.02 638.834   1
  -1  -9  -8 2403.34 736.695   1
   9   1   8 2221.21 698.055   1
   9 -10   8 1709.92 608.660   1
  -9  -1  -8 1486.19 593.150   1
   1   9   8 1982.93 602.984   1
   1 -10   8 1895.55 636.220   2
   9   1   7 95214.8 4257.29   1
  -9  -1  -7 85237.2 4185.46   2
   9 -10   7 85026.9 4111.73   1
  -1  -9  -7 93827.8 4333.40   1
   1   9   7 86336.9 4129.57   1
  -9  -1  -7 93055.7 4375.92   1
   1 -10   7 82276.0 4172.73   2
  -9  10  -7 73496.4 3931.18   1
  -1  -9  -7 95442.9 4394.22   2
  10  -9  -7 78688.6 3845.47   1
 -10   9   7 91774.0 4183.16   1
   9   1   6 20783.0 2039.50   1
  -9  -1  -6 24244.7 2194.07   2
   9 -10   6 20001.5 1974.34   1
  -1  -9  -6 22918.8 2132.87   1
   1   9   6 20710.3 2000.75   1
  -9  -1  -6 21390.2 2058.60   1
   1 -10   6 24164.9 2151.87   2
  10  -9  -6 21482.3 1967.99   1
  -9  10  -6 21416.5 2051.96   1
  -1  -9  -6 22824.1 2150.80   2
 -10   9   6 23326.2 2076.40   1
   9   1   5 9983.72 1378.01   1
  -9  -1  -5 7637.67 1202.84   2
  -1  -9  -5 10692.7 1467.38   1
   9 -10   5 8407.86 1270.02   1
   1   9   5 9902.50 1368.69   1
  -9  -1  -5 13511.6 1564.66   1
   1 -10   5 9839.49 1394.80   2
  10  -9  -5 10594.9 1338.50   1
  -9  10  -5 9670.96 1335.46   1
  -1  -9  -5 11517.4 1471.00   2
 -10   9   5 10228.1 1337.44   1
   9   1   4 32668.3 2441.72   1
  -9  -1  -4 37022.7 2668.89   2
  -1  -9  -4 35255.5 2640.50   1
   1   9   4 35846.2 2632.97   1
   9 -10   4 35415.6 2554.54   1
  -9  -1  -4 39134.2 2775.41   1
  10  -9  -4 32765.7 2423.24   1
   1 -10   4 36705.4 2687.42   2
  -9  10  -4 37256.3 2691.00   1
  -1  -9  -4 35177.9 2562.63   2
 -10   9   4 40143.1 2709.10   1
  -9  -1  -3 31316.3 2467.60   2
   9   1   3 29306.0 2338.78   1
  -1  -9  -3 27964.2 2333.33   1
  10  -1  -3 29308.4 2362.00   1
   1   9   3 30038.0 2391.96   1
   9 -10   3 26592.2 2201.59   1
  -9  -1  -3 27871.5 2348.21   1
  10  -9  -3 27880.2 2233.72   1
   1 -10   3 29764.0 2396.08   2
  -1  -9  -3 32898.7 2446.15   2
  -9  10  -3 31651.1 2443.43   1
 -10   9   3 30018.1 2389.15   1
  -9  -1  -2 311686. 8131.87   2
   9   1   2 270396. 7484.08   1
  -1  -9  -2 244326. 7306.65   1
  10  -1  -2 317640. 8104.48   1
   1   9   2 265952. 7468.93   1
  -9  -1  -2 273183. 7646.16   1
 -10   1   2 355529. 8607.75   1
  10  -9  -2 279769. 7339.22   1
   9 -10   2 265732. 7263.55   1
   1 -10   2 269109. 7459.16   2
  -1  -9  -2 257544. 7320.25   2
 -10   9   2 276552. 7559.57   1
  -9  10  -2 277203. 7619.79   1
  -9  -1  -1 124182. 4931.87   2
   9   1   1 124643. 4876.98   1
  -1  10  -1 110098. 4604.77   1
  -1  -9  -1 112137. 4764.43   1
  10  -1  -1 103870. 4551.11   1
   1   9   1 123954. 4874.12   1
  -9  -1  -1 117014. 4783.73   1
  10  -9  -1 118200. 4652.70   1
   9 -10   1 113189. 4947.29   2
   9 -10   1 119316. 4645.88   1
   1 -10   1 119867. 4803.51   2
  -1  -9  -1 114636. 4708.26   2
 -10   9   1 125380. 4941.58   1
  -9  10  -1 123126. 4825.02   1
   9   1   0 33782.5 2507.30   1
   1 -10   0 31958.8 2511.59   1
  -1  10   0 34018.1 2552.97   1
  10  -1   0 31432.4 2415.99   1
   1   9   0 34484.5 2495.66   1
  10  -9   0 32742.2 2373.09   1
  -9  -1   0 34135.6 2576.94   1
 -10   1   0 28967.6 2369.52   1
   9 -10   0 29275.9 2438.29   2
   9 -10   0 33128.5 2371.48   1
   1 -10   0 33500.4 2503.49   2
  -1  -9   0 32242.6 2462.81   2
 -10   9   0 35666.0 2566.84   1
  -9  10   0 37438.9 2547.75   1
   9   1  -1 70221.7 3710.56   1
   1 -10  -1 88612.5 4168.99   1
  10  -1   1 93850.3 4187.67   1
  -1  10   1 86607.8 4077.90   1
  10  -9   1 87667.6 3977.75   1
  -9  -1   1 111836. 4730.78   1
 -10   1  -1 91041.5 4253.31   1
   9 -10  -1 93294.6 4328.60   2
   1 -10  -1 88362.1 4110.77   2
  -1  -9   1 106910. 4546.37   2
 -10   9  -1 87087.7 4061.56   1
  -9  10   1 91623.6 4074.26   1
   9 -10  -1 87433.5 3983.12   1
   9 -10  -2 260293. 7080.56   1
 -10   1  -2 223650. 7181.37   2
   1 -10  -2 260043. 7339.93   1
  10  -1   2 245226. 7065.96   1
  -1  10   2 250147. 7124.78   1
  10  -9   2 258938. 7143.69   1
 -10   1  -2 238365. 7077.14   1
   9 -10  -2 259296. 7549.64   2
  -1  -9   2 290629. 7776.68   2
   1 -10  -2 256744. 7327.15   2
 -10   9  -2 240280. 7052.48   1
  -9  10   2 264871. 7199.83   1
 -10   1  -3 68920.8 3791.47   2
   9 -10  -3 67996.5 3442.88   1
  10  -1   3 70194.2 3658.13   1
   1 -10  -3 58625.9 3393.03   1
  10  -9   3 64067.9 3407.43   1
  -1  10   3 62721.8 3458.15   1
 -10   1  -3 56099.6 3325.43   1
   9 -10  -3 66027.6 3664.95   2
  -1  -9   3 73879.7 3803.93   2
 -10   9  -3 65159.9 3498.73   1
   1 -10  -3 68368.5 3611.92   2
  -9  10   3 65585.9 3415.98   1
 -10   9  -4 528.114 422.808   1
 -10   1  -4 475.570 439.008   2
  10  -9   4 932.449 474.317   1
  -9  10   4 980.487 372.678   1
   1 -10  -4 725.466 487.835   1
  -1  10   4 712.829 382.217   1
   9 -10  -4 255.866 170.715   1
 -10   1  -4 928.035 575.481   1
   9 -10  -4 546.950 373.425   2
  -1  -9   4 801.950 474.891   2
  10  -1   4 572.213 353.725   1
   1 -10  -4 504.439 365.836   2
  -9  10   5 15960.1 1737.30   1
 -10   1  -5 13527.6 1670.01   2
  10  -9   5 17106.7 1773.67   1
  10  -1   5 19092.2 1862.65   1
   1 -10  -5 15689.2 1760.26   1
   9 -10  -5 17134.3 1734.45   1
  -1  10   5 14300.3 1655.55   1
 -10   1  -5 12058.7 1596.30   1
  -1  -9   5 15199.9 1763.60   2
 -10   9  -5 16329.2 1787.43   1
   1 -10  -5 15774.3 1758.45   2
  -9  10   6 48195.2 3031.33   1
  10  -9   6 47337.5 2991.90   1
 -10   1  -6 34520.4 2720.20   2
  10  -1   6 46891.1 2955.53   1
   1 -10  -6 47290.3 3015.48   1
  -1  10   6 44523.5 2881.39   1
   9 -10  -6 52361.2 3056.29   1
 -10   1  -6 56855.7 3294.60   1
 -10   9  -6 44421.6 2965.18   1
  -1  -9   6 42306.2 2922.18   2
   1 -10  -6 49671.9 3061.74   2
  -9  10   7 10427.8 1416.20   1
  10  -1   7 8578.15 1238.71   1
 -10   1  -7 8063.92 1281.22   2
   1 -10  -7 9370.39 1361.60   1
  -1  10   7 10345.3 1328.55   1
   9 -10  -7 8863.04 1264.65   1
  10  -9   7 8417.78 1278.36   1
 -10   1  -7 10027.0 1329.25   1
 -10   9  -7 9488.42 1361.64   1
  -1  -9   7 8142.67 1304.56   2
   1 -10  -7 9827.68 1398.06   2
  -9  10   8 47380.1 3056.69   1
 -10   1  -8 41067.2 2865.18   2
  10  -1   8 43717.6 2823.25   1
   1 -10  -8 45349.7 2928.68   1
  -1  10   8 42288.3 2823.93   1
   9 -10  -8 42453.2 2868.04   1
 -10   1  -8 41847.6 2850.86   1
 -10   9  -8 44905.7 3070.10   1
  10  -9   8 35137.3 2615.42   1
   1 -10  -8 42402.2 2867.08   2
  -9  10   9 88775.5 4251.99   1
  10  -1   9 75270.4 3839.10   1
 -10   1  -9 90837.0 4404.66   2
   1 -10  -9 98296.9 4457.89   1
  -1  10   9 97845.2 4353.61   1
   9 -10  -9 95390.8 4354.91   1
 -10   1  -9 97336.8 4464.53   1
 -10   9  -9 86575.0 4302.97   1
  10  -9   9 84935.2 4201.06   1
   1 -10  -9 97304.3 4461.42   2
  -9  10  10 90471.7 4410.39   1
  10  -1  10 111669. 4612.87   1
 -10   1 -10 95320.9 4500.05   2
   1 -10 -10 116436. 4865.43   1
  -1  10  10 109842. 4648.85   1
 -10   1 -10 109732. 4723.93   1
   9 -10 -10 100400. 4560.41   1
  10  -9  10 91976.2 4432.13   1
 -10   9 -10 99098.5 4599.82   1
   1 -10 -10 113591. 4935.28   2
  -9  10  11 64626.4 3741.03   1
   9 -10 -11 67622.3 3729.95   1
  10  -9  11 63436.1 3771.34   1
 -10   9 -11 60138.7 3567.90   1
   1 -10 -11 68009.3 3797.29   2
  10   0   0 40123.7 2788.82   1
 -10   0   0 39138.4 2801.85   1
  10 -10   0 42211.5 2753.96   1
   0 -10   0 39487.2 2696.35   2
 -10  10   0 39596.0 2801.57   1
  10   0   1 110210. 4677.52   1
  10   0  -1 109044. 4694.24   1
   0 -10  -1 97941.4 4614.21   1
   0  10   1 101878. 4581.94   1
  10 -10   1 121009. 4745.35   1
 -10   0  -1 97303.8 4503.59   1
 -10   0   1 111727. 4840.65   1
  10 -10  -1 121929. 4709.98   1
   0 -10   1 107351. 4649.04   2
   0 -10  -1 122368. 4937.37   2
 -10  10  -1 122029. 4957.32   1
 -10  10   1 121651. 4810.86   1
  10   0   2 271185. 7536.93   1
   0 -10  -2 263280. 7646.09   1
   0  10   2 268189. 7575.53   1
  10 -10   2 285916. 7575.32   1
 -10   0  -2 252519. 7520.64   1
  10 -10  -2 279839. 7430.44   1
   0 -10   2 282912. 7810.49   2
   0 -10  -2 275242. 7699.08   2
 -10  10  -2 281130. 7743.61   1
 -10  10   2 299478. 7930.04   1
 -10   0  -3 32191.2 2531.13   2
  10   0   3 30317.7 2453.97   1
   0 -10  -3 34161.7 2598.53   1
  10 -10   3 32287.9 2488.25   1
   0  10   3 33388.0 2566.10   1
 -10   0  -3 35204.1 2637.73   1
  10 -10  -3 34876.5 2501.48   1
   0 -10   3 30508.6 2452.10   2
   0 -10  -3 34955.0 2632.42   2
 -10  10  -3 36351.7 2616.03   1
 -10  10   3 37301.2 2643.08   1
   0 -10  -4 6989.25 1175.62   2
 -10  10  -4 7267.62 1139.63   1
 -10   0  -4 3986.17 985.156   2
  10 -10  -4 6111.47 1063.41   1
 -10  10   4 5713.36 1049.74   1
  10 -10   4 5842.22 1075.29   1
   0 -10  -4 5212.62 1019.88   1
   0  10   4 6544.45 1159.23   1
 -10   0  -4 6949.88 1168.25   1
  10   0   4 6229.81 1065.03   1
   0 -10   4 5713.44 1010.44   2
 -10   0  -5 11797.3 1582.61   2
  10   0   5 11213.3 1533.73   1
  10 -10   5 14992.2 1667.95   1
   0 -10  -5 12893.3 1612.62   1
   0  10   5 14738.9 1692.32   1
 -10   0  -5 16786.8 1820.84   1
   0 -10   5 13429.2 1632.45   2
 -10  10  -5 13576.1 1651.02   1
   0 -10  -5 12414.7 1611.68   2
 -10  10   5 14576.0 1663.81   1
  10 -10  -5 12822.7 1525.08   1
  10 -10  -6 16372.3 1749.22   1
 -10   0  -6 11819.6 1548.87   2
  10   0   6 13316.4 1586.95   1
  10 -10   6 13223.4 1607.14   1
   0 -10  -6 15016.0 1691.34   1
   0  10   6 14187.0 1663.80   1
 -10   0  -6 17041.0 1861.06   1
   0 -10   6 10284.1 1482.91   2
 -10  10  -6 14174.1 1713.30   1
   0 -10  -6 14294.6 1675.62   2
 -10  10   6 15767.9 1735.32   1
  10 -10   7 23851.5 2187.50   1
  10   0   7 26520.8 2254.25   1
 -10   0  -7 23778.1 2263.59   2
  10 -10  -7 27282.8 2313.05   1
   0 -10  -7 26803.2 2381.91   1
   0  10   7 29113.5 2339.12   1
 -10   0  -7 29903.3 2490.49   1
   0 -10   7 18385.2 2097.44   2
 -10  10  -7 24582.2 2224.77   1
   0 -10  -7 24384.1 2226.71   2
 -10  10   7 29562.1 2416.26   1
   0 -10  -8 4467.59 973.869   2
 -10  10  -8 4454.75 961.183   1
 -10   0  -8 3440.65 888.220   2
 -10  10   8 6784.87 1067.61   1
  10 -10   8 3513.22 861.559   1
   0 -10  -8 3663.86 917.939   1
  10 -10  -8 4948.67 964.343   1
  10   0   8 5833.18 1012.99   1
 -10   0  -8 3623.04 893.317   1
   0  10   8 4945.47 958.491   1
 -10   0  -9 37315.0 2786.21   2
  10 -10  -9 41402.6 2865.20   1
   0 -10  -9 42156.6 2907.18   1
   0  10   9 43324.7 2923.49   1
 -10  10  -9 36715.9 2839.47   1
  10 -10   9 40383.5 2924.10   1
   0 -10  -9 39221.4 2856.88   2
 -10  10   9 43221.8 2994.92   1
 -10  10 -10 2902.07 909.726   1
   5 -11  11 14679.1 1774.32   2
  -6  -5 -10 153800. 5705.78   2
  -5  -6 -10 151954. 5709.09   1
  -6  -5 -10 154755. 5737.24   1
   5   6  10 156244. 5741.03   1
   6   5  10 156048. 5632.45   1
   5 -11  10 134479. 5642.12   2
  -5  -6 -10 161848. 5852.04   2
  -5  -6  -9 56751.5 3415.09   1
  -6  -5  -9 54517.3 3350.77   1
   5   6   9 58586.7 3377.92   1
   6   5   9 57902.6 3356.16   1
   6 -11   9 53224.9 3346.24   2
   5 -11   9 48161.4 3180.36   2
  -5  -6  -9 61048.7 3513.02   2
  -6  -5  -9 66238.3 3697.55   2
  11  -6  -8 1227.58 522.726   1
  -5  -6  -8 902.526 429.543   2
   5   6   8 767.846 446.333   1
  -6  -5  -8 1293.85 579.965   2
   6   5   8 733.719 472.712   1
  -5  -6  -8 907.355 480.298   1
  -6  -5  -8 1378.97 531.801   1
   6 -11   8 616.526 381.803   2
   5 -11   8 1066.35 481.560   2
  11  -6  -7 30504.8 2427.33   1
  -5  -6  -7 31421.8 2474.53   1
  -6  -5  -7 33882.1 2576.51   1
   5   6   7 32130.9 2451.96   1
   6   5   7 30448.8 2468.31   1
   6 -11   7 33984.6 2610.93   2
   5 -11   7 30624.5 2541.97   2
 -11   6   7 29305.5 2460.79   1
  11  -5  -7 32257.5 2524.79   1
  -5  -6  -7 33656.1 2582.69   2
  -6  -5  -7 31722.4 2555.13   2
  11  -6  -6 77607.3 3873.99   1
  -5  -6  -6 66859.7 3617.58   1
  -6  -5  -6 70174.2 3704.38   1
   5   6   6 64958.1 3605.76   1
   6   5   6 65074.3 3647.93   1
   6 -11   6 63819.1 3595.80   2
   5 -11   6 67649.4 3687.63   2
 -11   5   6 73186.3 3892.03   1
 -11   6   6 70483.6 3809.14   1
  11  -5  -6 62541.8 3508.15   1
  -5  -6  -6 74885.4 3861.45   2
  -6  -5  -6 79403.5 3970.92   2
  11  -6  -5 28966.0 2346.77   1
  -5  -6  -5 33124.1 2552.58   1
  -6  -5  -5 32964.8 2554.63   1
   5   6   5 31399.7 2496.80   1
   6   5   5 32472.5 2514.52   1
   6 -11   5 35026.2 2644.58   2
   5 -11   5 30074.2 2423.86   2
 -11   6   5 33884.1 2567.13   1
  11  -5  -5 36573.2 2648.96   1
  -5  -6  -5 35314.9 2629.37   2
  -6  11  -5 33885.8 2558.91   1
  -6  -5  -5 34778.4 2624.78   2
  -6  11  -4 21525.0 2039.90   1
  -5  11  -4 23268.7 2137.95   1
  11  -6  -4 20085.0 1916.41   1
   6 -11   4 21560.5 1960.25   1
  -5  -6  -4 19514.2 1969.58   1
  -6  -5  -4 19346.2 1955.77   1
   5   6   4 21530.3 2047.95   1
   6   5   4 22542.7 2081.42   1
 -11   5   4 19184.6 1952.66   1
   6 -11   4 23902.0 2159.26   2
   5 -11   4 21525.4 2036.86   2
 -11   6   4 21684.6 2065.46   1
  11  -5  -4 25694.1 2186.13   1
  -5  -6  -4 24634.1 2154.09   2
  -6  -5  -4 23980.6 2179.89   2
  11  -6  -3 95726.7 4255.29   1
  -6  11  -3 108068. 4651.15   1
  -5  11  -3 101741. 4411.45   1
   6 -11   3 102192. 4502.64   1
  -5  -6  -3 103365. 4585.80   1
  -6  -5  -3 112027. 4731.72   1
   5   6   3 109463. 4624.57   1
   6   5   3 112183. 4709.89   1
   5 -11   3 114125. 4761.77   1
 -11   5   3 121683. 4915.54   1
   6 -11   3 105078. 4514.92   2
   5 -11   3 116695. 4757.78   2
 -11   6   3 105465. 4540.93   1
  11  -5  -3 94348.6 4253.21   1
  -5  -6  -3 101870. 4506.13   2
  -6  -5  -3 116257. 4841.57   2
  -6  11  -2 254827. 7281.01   1
  -5  11  -2 239155. 7027.83   1
   5 -11   2 232048. 6982.30   1
  -5  -6  -2 242169. 7173.53   1
  -6  -5  -2 261771. 7367.65   1
   6 -11   2 219218. 6673.56   1
   5   6   2 255396. 7308.51   1
   6   5   2 260540. 7374.20   1
 -11   5   2 203981. 6524.07   1
   6 -11   2 247660. 7127.80   2
   5 -11   2 242524. 7092.51   2
 -11   6   2 254123. 7179.63   1
  11  -5  -2 272804. 7376.68   1
  -5  -6  -2 268761. 7459.06   2
  -6  -5  -2 249269. 7272.52   2
  11  -6  -2 230749. 6759.67   1
  -6  11  -1 44196.2 2860.17   1
  -5  11  -1 40513.9 2757.68   1
  -5  -6  -1 45091.0 2969.53   1
  -6  -5  -1 46270.1 3015.57   1
   5   6   1 43550.3 2879.05   1
   6   5   1 44671.9 2915.99   1
 -11   5   1 40734.9 2769.19   1
   6 -11   1 43300.3 2873.75   2
 -11   6   1 51510.8 3084.77   1
  11  -5  -1 53156.6 3104.21   1
   5 -11   1 42482.8 2807.90   2
   6 -11   1 36760.5 2647.34   1
  -5  -6  -1 39951.7 2774.42   2
  11  -6  -1 42555.6 2692.85   1
  -6  -5  -1 46150.6 3016.83   2
  -6  11   0 14989.8 1603.99   1
  -5  11   0 15569.6 1625.52   1
   5 -11   0 13882.0 1614.13   1
   6 -11   0 17364.7 1726.01   1
 -11   5   0 13986.1 1589.93   1
  11  -5   0 18574.8 1764.16   1
 -11   6   0 15124.6 1663.48   1
   6 -11   0 14104.4 1659.65   2
   5 -11   0 14388.8 1670.11   2
  11  -6   0 14849.5 1630.92   1
  -5  -6   0 18372.5 1878.44   2
  -6  -5   0 15886.0 1770.82   2
 -11   6  -1 4678.47 940.273   1
  -5  -6   1 5495.30 1037.10   2
  -6  -5   1 7106.83 1174.93   2
  11  -6   1 5228.90 969.783   1
   5 -11  -1 5492.38 1019.13   1
  -6  11   1 6000.80 1049.94   1
  -5  11   1 6488.72 1113.43   1
  11  -5   1 6544.16 1070.59   1
   6 -11  -1 7512.40 1207.92   2
   5 -11  -1 5897.32 1078.29   2
 -11   5  -1 6041.51 1017.27   1
  -6  11   2 216358. 6453.56   1
  -5  11   2 214620. 6527.86   1
   6 -11  -2 219751. 6648.31   1
   5 -11  -2 202789. 6420.45   1
  11  -5   2 231445. 6665.86   1
 -11   5  -2 215499. 6470.94   1
 -11   6  -2 226672. 6699.30   1
   6 -11  -2 212936. 6631.44   2
  11  -6   2 184959. 6073.13   1
   5 -11  -2 208397. 6527.55   2
  -5  -6   2 189491. 6344.58   2
  -6  11   3 55540.9 3172.88   1
  -5  11   3 58397.3 3317.28   1
   6 -11  -3 55838.7 3301.75   1
   5 -11  -3 55166.3 3272.15   1
  11  -5   3 61599.4 3309.33   1
 -11   5  -3 64875.6 3465.80   1
 -11   6  -3 56859.0 3215.85   1
  11  -6   3 62755.5 3291.12   1
   6 -11  -3 57058.3 3307.21   2
   5 -11  -3 58762.7 3396.21   2
  -6  11   4 11985.8 1484.78   1
  -5  11   4 10981.6 1421.41   1
   6 -11  -4 12992.5 1561.56   1
   5 -11  -4 11527.2 1511.21   1
  11  -5   4 12449.8 1502.98   1
 -11   5  -4 14482.3 1592.10   1
  11  -6   4 14069.7 1574.06   1
 -11   6  -4 14043.4 1602.67   1
   6 -11  -4 10663.7 1485.81   2
   5 -11  -4 10358.5 1407.06   2
  -6  11   5 64063.4 3504.55   1
   6 -11  -5 63591.1 3532.12   1
  -5  11   5 68245.4 3595.65   1
   5 -11  -5 60877.7 3453.27   1
  11  -5   5 62042.9 3368.62   1
  11  -6   5 64434.7 3400.45   1
 -11   5  -5 64645.1 3502.34   1
 -11   6  -5 66538.0 3460.20   1
   6 -11  -5 58784.2 3513.13   2
   5 -11  -5 61721.5 3500.14   2
  -6  11   6 68363.2 3599.93   1
   6 -11  -6 68948.5 3669.55   1
  -5  11   6 65591.4 3554.22   1
   5 -11  -6 71311.7 3744.55   1
  11  -5   6 68494.5 3574.08   1
  11  -6   6 63531.1 3461.86   1
 -11   5  -6 72432.1 3690.39   1
 -11   6  -6 67510.0 3531.93   1
   6 -11  -6 61440.3 3559.50   2
   5 -11  -6 66492.1 3622.15   2
  -6  11   7 21438.8 2024.07   1
   6 -11  -7 21490.4 2053.22   1
  -5  11   7 21737.2 2021.56   1
   5 -11  -7 24385.8 2139.80   1
  11  -5   7 23007.1 2028.91   1
  11  -6   7 24527.1 2141.48   1
 -11   5  -7 24604.0 2148.03   1
 -11   6  -7 23531.2 2042.98   1
   6 -11  -7 20514.6 2064.46   2
   5 -11  -7 19723.0 2031.69   2
  -6  11   8 16368.4 1737.81   1
   6 -11  -8 15905.8 1707.50   1
  -5  11   8 16285.0 1718.14   1
   5 -11  -8 15136.8 1639.76   1
  11  -5   8 16024.0 1683.04   1
  11  -6   8 13598.8 1616.59   1
 -11   5  -8 16377.4 1749.06   1
 -11   6  -8 15792.0 1742.15   1
   6 -11  -8 14656.0 1724.36   2
   5 -11  -8 13500.8 1661.21   2
  -6  11   9 55451.4 3294.43   1
   6 -11  -9 56522.9 3364.03   1
  -5  11   9 49853.5 3096.89   1
   5 -11  -9 51352.1 3204.40   1
  11  -5   9 48640.6 2989.04   1
  11  -6   9 51310.6 3088.70   1
 -11   5  -9 52323.5 3240.57   1
 -11   6  -9 48768.8 3101.02   1
   6 -11  -9 45902.5 3207.96   2
   5 -11  -9 42317.0 3047.33   2
  -6  11  10 195642. 6273.81   1
   6 -11 -10 190062. 6323.75   1
  -5  11  10 191125. 6253.28   1
   5 -11 -10 185961. 6211.82   1
  11  -5  10 190097. 6286.08   1
  11  -6  10 185444. 6176.98   1
 -11   5 -10 195394. 6457.84   1
 -11   6 -10 196015. 6445.20   1
  11  -6  11 55794.2 3316.04   1
 -11   6 -11 62697.1 3629.07   1
   4 -11  11 547.378 335.767   2
  -7  -4 -10 10040.3 1426.33   2
   7   4  10 8797.43 1282.35   1
  -4  -7 -10 9223.24 1379.71   1
  -7  -4 -10 8078.94 1295.41   1
   4   7  10 9643.37 1362.72   1
   4 -11  10 6251.54 1190.15   2
  -4  -7 -10 9034.11 1364.75   2
  -7  -4  -9 11350.4 1508.65   2
  11  -7  -9 12336.3 1606.23   1
  -4  -7  -9 11164.3 1528.74   1
  -7  -4  -9 13365.9 1660.18   1
   4   7   9 13780.8 1667.74   1
   4 -11   9 10576.9 1480.22   2
   7   4   9 12029.6 1507.15   1
  -4  -7  -9 13530.2 1711.03   2
  -7  -4  -8 428777. 9904.48   2
  11  -7  -8 303713. 8525.30   1
  -4  -7  -8 404853. 9681.20   1
  -7  -4  -8 404691. 9512.80   1
   4   7   8 416998. 9686.34   1
   7 -11   8 378755. 9346.08   2
   4 -11   8 343620. 9116.40   2
   7   4   8 382823. 9253.27   1
 -11   7   8 365584. 9343.69   1
  -4  -7  -8 379498. 9273.61   2
   4   7   7 357.106 394.393   1
  -4  -7  -7-434.244 459.118   2
 -11   7   7 157.472 282.610   1
  -7  -4  -7 501.628 488.671   2
   7   4   7 93.5578 187.053   1
  11  -7  -7 429.665 318.203   1
  -4  -7  -7 188.178 376.711   1
  -7  -4  -7 585.850 399.717   1
   7 -11   7 598.792 474.788   2
   4 -11   7 1070.90 608.444   2
   4   7   6 3829.11 916.751   1
  -4  -7  -6 3191.60 781.737   2
 -11   7   6 2798.49 751.522   1
  -7  -4  -6 4142.47 902.508   2
  -7  11  -6 3094.12 839.495   1
   7   4   6 3454.50 757.093   1
  11  -7  -6 2413.91 748.437   1
  -4  -7  -6 2756.55 715.416   1
  -7  -4  -6 2446.03 729.319   1
   7 -11   6 2645.41 731.503   2
   4 -11   6 2737.54 763.024   2
  -7  -4  -5 25676.2 2331.47   2
  11  -7  -5 29364.6 2293.27   1
  -4  -7  -5 24734.6 2262.12   1
  -7  -4  -5 26555.1 2292.21   1
   4   7   5 25564.5 2283.16   1
 -11   4   5 30967.5 2451.17   1
  11  -4  -5 30327.0 2410.88   1
   7 -11   5 25413.6 2237.06   2
   7 -11   5 28545.3 2277.52   1
   4 -11   5 25005.7 2229.05   2
   7   4   5 28012.2 2357.76   1
 -11   7   5 31053.2 2449.88   1
  -4  -7  -5 29336.7 2363.76   2
  -7  11  -5 27052.5 2325.65   1
  -7  -4  -4 169994. 6075.49   2
  11  -7  -4 192901. 6130.35   1
  -4  -7  -4 175234. 6073.36   1
  -7  -4  -4 175531. 5988.16   1
   4   7   4 182172. 6202.12   1
  11  -4  -4 179976. 6047.38   1
 -11   4   4 179090. 6116.31   1
   7 -11   4 174509. 6080.57   2
   4 -11   4 174398. 6021.76   2
   7   4   4 179859. 6099.32   1
 -11   7   4 195693. 6283.04   1
   7 -11   4 182028. 6054.35   1
  -4  -7  -4 196437. 6311.35   2
  -7  11  -4 184415. 6172.50   1
   4   7   3 196.912 254.625   1
  -4  -7  -3 1085.15 573.875   2
 -11   7   3 898.882 454.857   1
  -7  -4  -3 357.903 321.233   2
  11  -7  -3 591.163 439.623   1
  -7  11  -3 569.816 401.175   1
   7   4   3 564.569 434.595   1
  -4  11  -3 974.458 418.234   1
   7 -11   3 1165.21 536.562   1
  -4  -7  -3 1065.62 470.096   1
  -7  -4  -3 1055.17 514.532   1
  11  -4  -3 1378.15 539.495   1
   7 -11   3 757.873 432.996   2
   4 -11   3 750.714 445.752   2
 -11   4   3 1887.45 603.634   1
  -7  11  -2 26006.5 2251.69   1
  -4  11  -2 29381.2 2347.92   1
  11  -7  -2 33010.0 2432.14   1
   4 -11   2 27755.3 2308.70   1
   7 -11   2 23187.1 2105.09   1
  -4  -7  -2 27360.3 2299.02   1
  -7  -4  -2 28392.8 2332.46   1
   4   7   2 30274.3 2478.63   1
  11  -4  -2 24885.8 2132.52   1
 -11   4   2 22117.5 1979.37   1
   7 -11   2 29462.9 2428.03   2
   4 -11   2 30017.1 2347.40   2
   7   4   2 27851.5 2309.74   1
 -11   7   2 35102.0 2498.63   1
  -4  -7  -2 31480.7 2440.47   2
  -7  -4  -2 28174.0 2380.75   2
  -4  -7  -1 4970.87 934.609   2
 -11   7   1 5709.29 1064.16   1
  -7  -4  -1 4912.46 1079.15   2
   7 -11   1 4454.21 906.513   1
   4 -11   1 4790.20 971.287   1
  -7  11  -1 4958.36 995.628   1
   7   4   1 5224.09 970.566   1
  -4  11  -1 4504.15 919.072   1
  -4  -7  -1 4372.30 926.864   1
  -7  -4  -1 4502.41 997.201   1
  11  -4  -1 3502.72 761.798   1
  11  -7  -1 4722.59 895.884   1
   7 -11   1 5077.43 1029.10   2
   4 -11   1 4828.08 972.779   2
 -11   4   1 5316.42 973.001   1
   4   7   1 4581.98 925.715   1
  11  -7   0 384176. 8865.53   1
  -7  11   0 370690. 9028.28   1
  -4  11   0 379416. 9080.56   1
   4 -11   0 364912. 9098.83   1
   7 -11   0 357063. 8735.76   1
  11  -4   0 388281. 9060.33   1
 -11   4   0 401349. 9232.37   1
   7 -11   0 356187. 8978.53   2
   7   4   0 369712. 9087.71   1
   4 -11   0 385763. 9115.29   2
 -11   7   0 427930. 9452.89   1
  -4  -7   0 353974. 8895.92   2
  -7  -4   0 411638. 9558.07   2
  -4  -7   1 923.864 400.984   2
 -11   7  -1 1192.81 536.836   1
   4 -11  -1 478.974 251.374   1
  -7  11   1 1202.97 532.460   1
  -4  11   1 316.905 303.676   1
  11  -7   1 1065.16 438.780   1
  11  -4   1 1284.40 562.840   1
   7 -11  -1 789.832 418.535   2
 -11   4  -1 851.305 410.741   1
   7 -11  -1 528.905 360.720   1
   4 -11  -1-198.831 457.859   2
  -7  11   2 37606.9 2586.24   1
  -4  11   2 35203.8 2529.05   1
   4 -11  -2 29980.6 2408.29   1
  11  -4   2 31815.6 2410.95   1
 -11   4  -2 36677.4 2587.28   1
   7 -11  -2 29350.5 2470.85   2
 -11   7  -2 37139.6 2641.73   1
   4 -11  -2 32132.9 2488.90   2
  -4  -7   2 34882.9 2622.05   2
  11  -7   2 34727.1 2458.78   1
   7 -11  -2 31683.0 2393.98   1
  -4  -7   3 5041.00 994.070   2
 -11   7  -3 5939.01 1057.07   1
  11  -7   3 6429.29 1026.66   1
   4 -11  -3 6829.91 1123.30   1
  -7  11   3 5970.72 1061.24   1
  -4  11   3 5541.79 1040.45   1
  11  -4   3 5539.74 999.802   1
   7 -11  -3 6102.50 1051.02   1
   7 -11  -3 5698.27 1084.79   2
 -11   4  -3 6282.25 1086.40   1
   4 -11  -3 5243.66 982.256   2
  -7  11   4 191910. 6134.93   1
   4 -11  -4 193605. 6288.86   1
  -4  11   4 195406. 6178.72   1
  11  -4   4 201325. 6160.32   1
 -11   4  -4 183449. 6087.95   1
 -11   7  -4 196927. 6266.80   1
   7 -11  -4 176732. 6148.77   2
  11  -7   4 200867. 6186.13   1
   4 -11  -4 186775. 6223.26   2
  11  -7   5-20.8621 272.969   1
   7 -11  -5-130.204 500.109   1
   4 -11  -5 153.379 276.054   1
  11  -4   5 775.115 418.556   1
  -7  11   5-112.745 318.402   1
  -4  11   5-257.771 342.985   1
 -11   4  -5 233.838 237.185   1
   7 -11  -5 299.880 232.835   2
   4 -11  -5-456.699 436.772   2
 -11   7  -5-206.256 419.689   1
   7 -11  -6 4645.93 931.592   1
  11  -4   6 4537.32 901.560   1
   4 -11  -6 5993.81 1075.13   1
  -7  11   6 4348.40 960.746   1
  -4  11   6 3614.70 860.136   1
 -11   4  -6 4073.37 941.421   1
  11  -7   6 4247.13 924.632   1
   7 -11  -6 3444.14 908.842   2
   4 -11  -6 4060.96 867.569   2
 -11   7  -6 3808.30 782.662   1
  -7  11   7 18797.6 1787.48   1
   7 -11  -7 19647.8 1941.49   1
   4 -11  -7 17514.2 1836.56   1
  -4  11   7 18663.1 1826.77   1
  11  -4   7 17187.4 1753.82   1
 -11   4  -7 17355.6 1831.69   1
  11  -7   7 18099.8 1845.11   1
 -11   7  -7 17288.7 1760.70   1
   7 -11  -7 16149.6 1870.23   2
   4 -11  -7 18891.7 1938.96   2
  -7  11   8 435368. 9656.32   1
   7 -11  -8 430585. 9798.13   1
   4 -11  -8 411117. 9623.08   1
  -4  11   8 405571. 9505.03   1
  11  -4   8 414248. 9455.39   1
  11  -7   8 409580. 9636.14   1
 -11   4  -8 404932. 9619.43   1
 -11   7  -8 415228. 9644.90   1
   4 -11  -8 387225. 9631.03   2
  11  -4   9-12.1057 374.563   1
   7 -11  -9 144.949 190.837   1
   4 -11  -9 147.700 265.603   1
  -7  11   9-1.52011 291.970   1
  11  -7   9-82.6344 295.082   1
  -4  11   9 195.943 272.627   1
 -11   4  -9 241.970 331.762   1
 -11   7  -9 598.068 428.356   1
   4 -11  -9 488.861 394.872   2
  -7  11  10 25797.2 2262.87   1
   7 -11 -10 27157.0 2348.11   1
   4 -11 -10 27425.5 2276.23   1
  -4  11  10 26793.8 2221.38   1
  11  -4  10 27371.1 2296.29   1
  11  -7  10 28281.1 2393.53   1
 -11   4 -10 27035.7 2337.03   1
 -11   7 -10 24184.0 2224.98   1
   4 -11 -10 24445.6 2323.81   2
  11  -7  11 5131.97 996.801   1
 -11   7 -11 5076.59 1043.24   1
   4 -11 -11 3643.33 885.330   2
  11  -8 -10 41824.9 2990.19   1
   3 -11  10 36840.6 2903.71   2
  -8  -3  -9 93176.1 4443.52   2
  -3  -8  -9 104013. 4731.69   1
  -8  -3  -9 91714.0 4419.10   1
  11  -8  -9 103656. 4619.14   1
   3   8   9 102912. 4599.96   1
   3 -11   9 87877.4 4537.14   2
   8   3   9 102870. 4528.61   1
  -3  -8  -9 102246. 4568.39   2
  -3  -8  -8 343.651 456.961   2
  -8  -3  -8 286.553 398.347   2
 -11   8   8-102.164 286.688   1
   8   3   8 712.010 476.392   1
  -3  -8  -8 1.64992 234.112   1
  -8  -3  -8 208.100 327.670   1
  11  -8  -8 40.8042 186.537   1
   3 -11   8 496.993 450.094   2
   3   8   8 342.899 214.301   1
  -8  -3  -7 99366.1 4600.79   2
  -3  -8  -7 95010.8 4499.82   1
  11  -8  -7 93240.7 4349.33   1
  -8  -3  -7 89605.5 4319.58   1
   3   8   7 106120. 4649.76   1
   3 -11   7 83422.3 4226.77   2
   8   3   7 101773. 4559.87   1
  -8  11  -7 89627.2 4463.08   1
 -11   8   7 105030. 4698.08   1
  -3  -8  -7 109390. 4670.97   2
  -8  -3  -6 247595. 7513.86   2
  -3  -8  -6 251020. 7460.04   1
  11  -8  -6 220914. 6811.27   1
   8 -11   6 234104. 7126.76   1
  -8  -3  -6 238431. 7272.17   1
   3   8   6 244117. 7319.73   1
   8 -11   6 236678. 7241.61   2
   3 -11   6 261254. 7534.30   2
   8   3   6 242820. 7187.97   1
  -8  11  -6 237982. 7273.63   1
  -3  -8  -6 241843. 7180.58   2
  -8  -3  -5 28408.4 2507.25   2
  -3  -8  -5 24393.0 2269.73   1
  11  -8  -5 32661.3 2486.53   1
  -8  -3  -5 31220.9 2522.99   1
   3   8   5 32856.9 2582.36   1
   8 -11   5 28134.7 2289.59   1
   8 -11   5 32060.2 2531.24   2
   3 -11   5 30987.0 2486.59   2
   8   3   5 25285.6 2296.22   1
 -11   8   5 25313.2 2234.92   1
  -8  11  -5 30129.2 2503.69   1
  -3  -8  -5 33880.9 2570.38   2
  -8  -3  -4 120464. 5082.97   2
  -3  -8  -4 97359.7 4576.44   1
  11  -8  -4 132020. 5014.68   1
  -8  -3  -4 125622. 5071.43   1
   3   8   4 123670. 5025.19   1
  11  -3  -4 117972. 4926.88   1
 -11   3   4 105149. 4705.42   1
   8 -11   4 107901. 4593.67   1
   8 -11   4 118965. 5003.24   2
   3 -11   4 121135. 4983.16   2
 -11   8   4 125162. 5032.26   1
   8   3   4 118041. 4928.09   1
  -3  -8  -4 119846. 4900.42   2
  -8  11  -4 119187. 4922.53   1
  -8  -3  -3 7795.86 1289.28   2
  11  -8  -3 8918.31 1342.50   1
  -8  -3  -3 7864.85 1292.35   1
  -3  -8  -3 6684.33 1163.15   1
   3   8   3 9303.03 1353.21   1
  11  -3  -3 8619.40 1237.75   1
 -11   3   3 8449.57 1305.23   1
   3 -11   3 9131.97 1375.81   2
   8 -11   3 7652.12 1178.68   1
   8 -11   3 8815.46 1305.10   2
 -11   8   3 11133.2 1439.27   1
   8   3   3 9139.70 1317.68   1
  -3  -8  -3 9326.39 1345.08   2
  -8  11  -3 9625.89 1348.60   1
  -8  -3  -2 119239. 5104.84   2
  11  -8  -2 116650. 4678.33   1
  -3  -8  -2 112789. 4895.68   1
  -8  -3  -2 110105. 4808.47   1
   3   8   2 125343. 5065.90   1
  11  -3  -2 128000. 5046.05   1
 -11   3   2 100768. 4578.10   1
   8 -11   2 121958. 5024.57   2
   3 -11   2 129425. 5043.08   2
 -11   8   2 109392. 4673.64   1
   8   3   2 118982. 4901.67   1
  -3  -8  -2 113698. 4809.15   2
  -8  11  -2 123169. 4959.46   1
   8 -11   2 120276. 4777.54   1
  -3  -8  -1 5262.93 1052.82   2
 -11   8   1 5210.50 991.976   1
  -8  -3  -1 4098.38 946.744   2
  -8  11  -1 4498.20 941.447   1
   3 -11   1 4689.44 954.959   1
  11  -8  -1 5210.17 936.755   1
  11  -3  -1 5425.14 1038.98   1
   8   3   1 5247.07 1083.80   1
  -3  11  -1 5287.64 983.223   1
   8 -11   1 4589.26 923.131   1
  -8  -3  -1 5868.99 1061.32   1
   8 -11   1 5618.17 1097.06   2
   3   8   1 4643.86 933.461   1
 -11   3   1 4574.71 888.146   1
   3 -11   1 5440.26 1019.06   2
  -3  -8   0 3428.00 851.889   2
 -11   8   0 4029.49 886.239   1
  11  -8   0 4911.78 959.965   1
  -8  11   0 4651.73 961.629   1
   3 -11   0 4442.96 919.701   1
  11  -3   0 4796.40 977.254   1
   8   3   0 4659.21 954.594   1
  -3  11   0 4816.96 1008.95   1
   8 -11   0 4247.55 852.833   1
   8 -11   0 5079.29 1030.13   2
 -11   3   0 4675.55 852.982   1
   3 -11   0 4600.52 853.967   2
  -8  11   1 28603.0 2294.88   1
  11  -8   1 28516.8 2237.00   1
  -3  11   1 25512.1 2231.49   1
   3 -11  -1 26806.4 2299.37   1
   8 -11  -1 29435.1 2321.03   1
  11  -3   1 28377.5 2274.94   1
 -11   3  -1 28070.2 2308.12   1
   8 -11  -1 25539.1 2308.78   2
   3 -11  -1 29894.0 2381.20   2
 -11   8  -1 30606.6 2406.09   1
  -3  -8   1 24583.4 2205.99   2
  -8  11   2 98906.6 4399.61   1
  11  -8   2 95898.4 4133.62   1
   3 -11  -2 92645.6 4240.00   1
  -3  11   2 89293.1 4169.55   1
  11  -3   2 99640.0 4335.41   1
   8 -11  -2 90844.0 4156.36   1
 -11   3  -2 95822.5 4280.40   1
   8 -11  -2 95098.2 4436.91   2
 -11   8  -2 111814. 4543.30   1
   3 -11  -2 93015.2 4253.94   2
  -3  -8   2 75013.8 3982.11   2
  11  -8   3 117413. 4621.83   1
  -8  11   3 120714. 4764.16   1
   3 -11  -3 97929.3 4493.32   1
  -3  11   3 112358. 4698.80   1
  11  -3   3 118201. 4760.16   1
   8 -11  -3 109503. 4616.08   1
 -11   3  -3 133024. 5095.01   1
   8 -11  -3 119389. 4987.19   2
 -11   8  -3 117127. 4717.26   1
   3 -11  -3 109690. 4666.62   2
  -3  -8   3 92698.1 4482.69   2
 -11   8  -4 3210.58 747.164   1
  11  -3   4 2645.51 751.564   1
  -8  11   4 2001.72 605.715   1
   3 -11  -4 3287.91 784.728   1
  11  -8   4 3018.62 764.550   1
  -3  11   4 2923.96 724.390   1
   8 -11  -4 2655.13 733.740   1
 -11   3  -4 3346.70 802.779   1
   8 -11  -4 2935.47 781.237   2
   3 -11  -4 2131.58 663.501   2
  -3  -8   4 2684.81 745.063   2
  -8  11   5 148172. 5365.39   1
   3 -11  -5 128174. 5137.94   1
  -3  11   5 132285. 5155.96   1
  11  -3   5 142852. 5264.94   1
 -11   3  -5 157559. 5645.33   1
 -11   8  -5 147123. 5435.05   1
   8 -11  -5 127916. 5313.67   2
   3 -11  -5 131894. 5194.75   2
  11  -8   5 131975. 5051.77   1
   8 -11  -5 136208. 5109.23   1
  -8  11   6 208874. 6403.50   1
   3 -11  -6 184202. 6274.74   1
  -3  11   6 193549. 6316.38   1
 -11   3  -6 205037. 6449.34   1
 -11   8  -6 194506. 6354.19   1
   8 -11  -6 188536. 6586.43   2
  11  -8   6 219537. 6554.57   1
   3 -11  -6 204439. 6544.48   2
   8 -11  -6 214245. 6443.71   1
  -8  11   7 70114.0 3682.86   1
   8 -11  -7 61283.1 3445.92   1
   3 -11  -7 65441.6 3624.51   1
  -3  11   7 64024.0 3519.24   1
  11  -3   7 74014.3 3725.87   1
 -11   3  -7 67489.2 3646.22   1
 -11   8  -7 66451.9 3567.45   1
  11  -8   7 68701.6 3644.37   1
   3 -11  -7 67150.7 3681.16   2
  -8  11   8 84965.7 4099.02   1
   8 -11  -8 85183.2 4089.03   1
   3 -11  -8 86833.5 4201.21   1
  11  -3   8 83474.1 4043.35   1
  -3  11   8 83848.7 4112.63   1
 -11   3  -8 84194.4 4147.30   1
  11  -8   8 79552.1 3938.33   1
 -11   8  -8 87483.3 4217.49   1
   3 -11  -8 83352.6 4216.24   2
  -8  11   9 11241.1 1443.09   1
   8 -11  -9 10481.2 1463.44   1
  11  -3   9 12833.1 1592.89   1
   3 -11  -9 12056.9 1546.40   1
  -3  11   9 11688.1 1512.05   1
 -11   3  -9 14417.7 1718.94   1
  11  -8   9 12360.8 1583.40   1
 -11   8  -9 13634.7 1650.66   1
   3 -11  -9 11969.7 1575.00   2
  11  -8  10 129881. 5266.20   1
 -11   8 -10 116893. 4988.69   1
   3 -11 -10 119105. 5171.27   2
  11  -9 -10 32088.0 2546.28   1
  11  -9  -9 18216.1 1908.37   1
   2 -11   9 16513.8 1970.53   2
 -11   9   9 20414.7 2101.34   1
  -2  -9  -8 1571.57 617.139   2
  -9  11  -8 782.479 373.947   1
  -9  -2  -8 1086.00 438.615   2
 -11   9   8 409.099 272.463   1
  -2  -9  -8 1326.80 642.270   1
   9   2   8 729.038 323.404   1
  -9  -2  -8 997.037 531.749   1
  11  -9  -8 1220.86 609.813   1
   2   9   8 1999.40 663.518   1
   2 -11   8 435.314 261.012   2
  -9  -2  -7 16486.1 1857.97   2
   9 -11   7 12948.2 1636.65   1
  -2  -9  -7 15342.4 1754.21   1
   2   9   7 14370.5 1720.27   1
  -9  -2  -7 16520.0 1873.09   1
  11  -9  -7 17269.5 1850.03   1
   2 -11   7 13381.3 1689.69   2
  -9  11  -7 14140.6 1730.42   1
  -2  -9  -7 16979.9 1865.84   2
 -11   9   7 12335.6 1622.37   1
   9   2   7 17470.8 1829.99   1
  -9  -2  -6 161033. 5998.65   2
   9 -11   6 174129. 6111.05   1
  -2  -9  -6 166457. 6009.89   1
   2   9   6 175747. 6097.16   1
  -9  -2  -6 184454. 6367.00   1
  11  -9  -6 195188. 6208.90   1
   2 -11   6 176143. 6200.21   2
  -9  11  -6 160597. 6058.36   1
  -2  -9  -6 198004. 6441.75   2
 -11   9   6 179303. 6256.26   1
   9   2   6 194623. 6288.74   1
  -9  -2  -5 120814. 5152.90   2
  -2  -9  -5 114416. 4989.81   1
   9 -11   5 122736. 5043.52   1
   2   9   5 130265. 5236.46   1
  -9  -2  -5 132093. 5314.91   1
  11  -9  -5 141361. 5216.78   1
   2 -11   5 119679. 5080.79   2
  -9  11  -5 129759. 5266.45   1
  -2  -9  -5 144700. 5476.74   2
 -11   9   5 163349. 5803.34   1
   9   2   5 145348. 5448.63   1
  -9  -2  -4 39546.1 2963.13   2
  -2  -9  -4 48287.4 3208.38   1
   2   9   4 46756.6 3143.07   1
  11  -9  -4 56759.2 3221.79   1
  -9  -2  -4 44706.5 3042.34   1
   9 -11   4 53827.9 3196.44   1
   2 -11   4 60065.4 3454.43   2
  -2  -9  -4 56483.4 3303.28   2
 -11   9   4 49767.2 3174.53   1
  -9  11  -4 53585.6 3338.93   1
   9   2   4 57480.9 3370.75   1
  -9  -2  -3 24302.8 2320.00   2
  -2  -9  -3 26157.2 2326.19   1
  11  -2  -3 27658.2 2351.08   1
   2   9   3 28936.7 2391.42   1
  11  -9  -3 32992.0 2501.81   1
  -9  -2  -3 29534.2 2495.37   1
   9 -11   3 30545.4 2392.03   1
   9 -11   3 32220.6 2615.44   2
   2 -11   3 31019.0 2475.42   2
 -11   9   3 30590.4 2463.85   1
  -2  -9  -3 32111.1 2489.63   2
  -9  11  -3 35398.6 2626.53   1
   9   2   3 29236.7 2434.52   1
  -9  -2  -2 149786. 5908.50   2
  -2  -9  -2 180440. 6368.71   1
  11  -2  -2 191563. 6226.08   1
  11  -9  -2 195981. 6125.34   1
   2   9   2 175536. 6123.10   1
  -9  -2  -2 178932. 6290.98   1
 -11   2   2 155573. 5877.25   1
   9 -11   2 188986. 6076.08   1
   9 -11   2 190953. 6458.90   2
   2 -11   2 195071. 6301.60   2
 -11   9   2 190317. 6180.56   1
  -2  -9  -2 183854. 6153.80   2
  -9  11  -2 187067. 6244.44   1
   9   2   2 171356. 6003.81   1
  -2  -9  -1 695.929 532.867   2
   9 -11   1 360.840 329.011   1
 -11   9   1 510.151 307.743   1
  11  -2  -1 306.810 282.166   1
  -9  11  -1 604.947 314.086   1
  11  -9  -1 569.161 288.132   1
   9   2   1 1014.37 476.015   1
  -9  -2  -1 319.127 332.956   1
   9 -11   1 602.508 397.122   2
 -11   2   1 587.447 445.530   1
   2 -11   1 992.712 456.358   2
  -2  -9   0 5204.28 1035.92   2
 -11   9   0 5021.62 986.538   1
  11  -2   0 5108.15 968.394   1
  -9  11   0 3985.87 876.335   1
   9 -11   0 4678.91 931.113   1
   2 -11   0 3677.87 888.680   1
  11  -9   0 4935.98 942.287   1
  -2  11   0 4695.00 938.046   1
   9   2   0 5531.78 1020.18   1
   9 -11   0 4397.74 997.236   2
 -11   2   0 3453.52 846.165   1
   2 -11   0 4551.54 905.519   2
   9 -11  -1 61097.6 3407.71   1
   2 -11  -1 53157.6 3285.27   1
  11  -9   1 59247.3 3292.10   1
  -2  11   1 57307.9 3425.76   1
  11  -2   1 59764.3 3402.65   1
 -11   2  -1 46099.3 3072.17   1
   9 -11  -1 56506.0 3463.98   2
   2 -11  -1 61151.6 3432.32   2
 -11   9  -1 61116.0 3395.63   1
  -2  -9   1 50698.1 3257.31   2
  -9  11   1 62560.4 3468.17   1
   9 -11  -2 71664.7 3647.96   1
  11  -9   2 73595.0 3681.13   1
   2 -11  -2 59255.7 3520.66   1
  -2  11   2 67599.8 3668.14   1
  11  -2   2 76349.1 3907.18   1
 -11   2  -2 62490.9 3549.14   1
   9 -11  -2 62914.7 3746.50   2
 -11   9  -2 73767.9 3801.05   1
   2 -11  -2 67711.6 3639.45   2
  -2  -9   2 57479.2 3430.37   2
  -9  11   2 70174.5 3597.97   1
  -9  11   3 116298. 4739.02   1
 -11   2  -3 74752.2 4136.71   2
  11  -9   3 107991. 4518.07   1
   9 -11  -3 114286. 4648.50   1
   2 -11  -3 98768.0 4533.72   1
  -2  11   3 105272. 4644.95   1
  11  -2   3 114386. 4793.28   1
 -11   2  -3 104922. 4653.28   1
   9 -11  -3 93750.9 4670.41   2
 -11   9  -3 121570. 4876.28   1
   2 -11  -3 107078. 4672.67   2
  -2  -9   3 97653.1 4516.27   2
  -9  11   4 10118.1 1408.99   1
  11  -9   4 13054.2 1496.24   1
 -11   2  -4 5991.05 1090.52   2
   2 -11  -4 9245.65 1373.32   1
  11  -2   4 10664.5 1445.87   1
  -2  11   4 9337.94 1348.56   1
   9 -11  -4 10844.5 1418.06   1
 -11   2  -4 14290.1 1671.34   1
   9 -11  -4 8289.48 1339.62   2
 -11   9  -4 10845.7 1382.99   1
  -2  -9   4 8971.53 1383.61   2
   2 -11  -4 10544.7 1445.16   2
  -9  11   5 88175.9 4119.55   1
 -11   2  -5 49424.3 3347.93   2
   2 -11  -5 69663.9 3777.83   1
  11  -2   5 74820.9 3825.45   1
  -2  11   5 68253.2 3751.24   1
   9 -11  -5 80188.9 3830.19   1
 -11   2  -5 70488.8 3807.12   1
 -11   9  -5 67358.2 3668.88   1
  -2  -9   5 64619.3 3712.83   2
   2 -11  -5 73256.0 3878.70   2
  11  -9   5 73634.7 3714.41   1
  -9  11   6 160421. 5744.92   1
  11  -2   6 166976. 5816.08   1
   2 -11  -6 164634. 5935.29   1
  -2  11   6 171192. 5882.71   1
   9 -11  -6 180722. 5938.29   1
 -11   2  -6 182021. 6189.02   1
 -11   9  -6 174195. 6039.17   1
   2 -11  -6 178917. 6144.06   2
  11  -9   6 173113. 5913.78   1
  -9  11   7 25039.2 2226.13   1
 -11   2  -7 15174.5 1887.12   2
  11  -2   7 23708.3 2082.10   1
   2 -11  -7 23338.3 2180.04   1
  -2  11   7 24138.1 2176.74   1
   9 -11  -7 25785.6 2172.18   1
 -11   2  -7 27070.9 2290.68   1
 -11   9  -7 25325.9 2203.74   1
  11  -9   7 23235.8 2084.64   1
   2 -11  -7 26135.1 2302.74   2
 -11   2  -8 5372.55 1174.87   2
  11  -2   8 8787.64 1259.14   1
  -9  11   8 6602.56 1213.74   1
   2 -11  -8 6879.83 1110.93   1
 -11   2  -8 7160.97 1255.77   1
   9 -11  -8 7154.04 1155.46   1
  -2  11   8 6840.91 1202.37   1
  11  -9   8 5995.81 1098.35   1
 -11   9  -8 6100.87 1125.49   1
   2 -11  -8 7247.76 1191.93   2
  11  -9   9 2261.74 715.641   1
 -11   9  -9 3014.35 748.329   1
 -10  11  -8 86581.5 4404.78   1
 -10  11  -7 4203.06 989.387   1
 -10  -1  -7 3977.34 914.775   2
  -1 -10  -7 3923.49 946.965   1
   1  10   7 4190.36 923.232   1
  10 -11   7 3731.95 917.372   1
   1 -11   7 3327.80 867.077   2
 -10  11  -6 6850.99 1172.43   1
 -10  -1  -6 6796.53 1206.37   2
  10 -11   6 7037.87 1243.63   1
  -1 -10  -6 5602.61 1086.20   1
 -10  -1  -6 8127.12 1338.87   1
  10   1   6 6776.27 1146.76   1
   1  10   6 6206.84 1100.89   1
  11 -10  -6 7528.34 1214.82   1
   1 -11   6 5427.06 1070.42   2
 -11  10   6 8883.11 1339.90   1
  -1 -10  -5 4187.10 902.960   2
 -10  11  -5 3784.93 871.145   1
 -10  -1  -5 3350.93 892.133   2
 -11  10   5 4141.08 969.970   1
  10 -11   5 4508.30 930.365   1
  -1 -10  -5 3684.44 861.654   1
  10   1   5 4673.32 991.745   1
 -10  -1  -5 4259.50 935.124   1
   1  10   5 3950.14 838.225   1
  11 -10  -5 4544.94 912.017   1
   1 -11   5 4743.78 989.085   2
  10   1   4 214695. 6809.40   1
 -10  -1  -4 174775. 6485.99   2
  -1 -10  -4 172562. 6327.48   1
  10 -11   4 210518. 6724.92   1
   1  10   4 201681. 6671.13   1
 -10  -1  -4 239192. 7395.78   1
  11 -10  -4 219779. 6597.53   1
   1 -11   4 192166. 6547.12   2
 -10  11  -4 208569. 6788.06   1
  -1 -10  -4 224209. 6917.85   2
 -11  10   4 233582. 7053.96   1
  -1 -10  -3 419.891 311.890   2
 -10  11  -3 212.120 321.517   1
 -11  10   3 196.501 254.306   1
  -1 -10  -3 527.363 390.282   1
  10 -11   3 752.225 456.773   1
  10   1   3-134.258 306.410   1
 -10  -1  -3 407.357 380.073   1
   1  10   3 189.336 232.032   1
  11 -10  -3 169.003 155.487   1
   1 -11   3 517.867 453.222   2
 -11  10   2 825.712 353.433   1
 -10  11  -2 1406.31 529.098   1
  10   1   2 1483.59 600.145   1
  11 -10  -2 1398.25 582.921   1
  10 -11   2 939.968 503.491   1
   1  10   2 1874.36 578.241   1
 -10  -1  -2 900.754 413.760   1
   1 -11   2 1253.27 508.114   2
  -1 -10  -2 1591.32 649.749   2
 -11  10   1 1240.46 539.549   1
 -10  11  -1 2303.74 739.284   1
  11 -10  -1 1555.43 533.747   1
  10   1   1 1009.82 382.810   1
 -10  -1  -1 1407.28 512.376   1
  10 -11   1 1870.77 591.809   1
 -11   1   1 1242.73 587.054   1
   1 -11   1 2323.09 681.489   2
  11  -1  -1 976.567 425.356   1
  -1 -10  -1 844.340 598.575   2
  10   1   0 297261. 8321.84   1
  11  -1   0 320665. 8560.70   1
  11 -10   0 323636. 8170.21   1
 -11   1   0 277079. 8312.72   1
  10 -11   0 318278. 8145.57   1
   1 -11   0 349109. 8718.78   2
  -1 -10   0 350677. 8894.44   2
 -11  10   0 322118. 8368.63   1
 -10  11   0 340646. 8636.10   1
 -11  10  -1 2175.40 627.954   1
 -10  11   1 1961.67 621.253   1
  11 -10   1 1976.22 607.720   1
  -1  11   1 2170.36 720.986   1
 -11   1  -1 1934.31 648.978   1
  11  -1   1 1681.33 623.179   1
  10 -11  -1 2183.19 652.875   1
   1 -11  -1 1813.66 569.585   2
  -1 -10   1 2462.08 745.864   2
  10 -11  -2 146.077 350.138   1
 -11  10  -2 385.228 475.449   1
 -10  11   2-193.416 388.395   1
  11 -10   2 190.114 404.438   1
   1 -11  -2 94.7149 298.065   1
  -1  11   2-369.911 300.157   1
 -11   1  -2 206.922 308.975   1
  11  -1   2-359.017 425.015   1
  -1 -10   2-44.8089 260.230   2
   1 -11  -2-188.809 205.803   2
 -11  10  -3 5546.87 1032.71   1
  10 -11  -3 5674.15 1004.81   1
 -10  11   3 5367.73 1006.65   1
  11 -10   3 6685.28 1119.24   1
   1 -11  -3 3475.99 852.212   1
  -1  11   3 4789.55 1030.05   1
 -11   1  -3 5901.75 1133.48   1
  11  -1   3 6427.78 1126.51   1
  -1 -10   3 4742.82 989.780   2
   1 -11  -3 6459.92 1131.25   2
 -11   1  -4 91620.9 4712.95   2
  11 -10   4 144583. 5361.37   1
  11  -1   4 147828. 5492.49   1
   1 -11  -4 120185. 5081.67   1
  -1  11   4 135703. 5345.01   1
 -11   1  -4 106808. 4820.31   1
  -1 -10   4 135151. 5487.21   2
 -11  10  -4 153324. 5542.03   1
   1 -11  -4 150261. 5597.62   2
 -10  11   4 142623. 5358.66   1
  10 -11  -4 136274. 5138.78   1
 -11  10  -5 6782.32 1069.80   1
  10 -11  -5 7406.28 1192.99   1
 -11   1  -5 4495.51 1021.24   2
 -10  11   5 6610.77 1105.51   1
   1 -11  -5 5221.48 987.984   1
  -1  11   5 6287.41 1122.32   1
  11 -10   5 6408.79 1135.13   1
 -11   1  -5 5136.39 971.726   1
  11  -1   5 5971.43 1045.09   1
  -1 -10   5 3872.96 957.196   2
   1 -11  -5 4274.51 911.615   2
 -11  10  -6 967.925 449.246   1
 -11   1  -6 486.287 347.799   2
 -10  11   6 785.452 461.015   1
   1 -11  -6 529.261 449.730   1
  11 -10   6 1225.17 515.733   1
  10 -11  -6 1056.86 546.132   1
  -1  11   6 807.693 431.549   1
 -11   1  -6 727.000 429.026   1
  11  -1   6 755.533 339.371   1
  -1 -10   6 533.430 350.260   2
   1 -11  -6 956.090 526.957   2
 -11  10  -7 8493.39 1283.65   1
 -11   1  -7 5893.63 1094.53   2
  11 -10   7 7349.35 1225.85   1
  11   0   0 20326.5 2074.90   1
   0 -11   0 19651.9 2002.80   2
 -11  11   0 21300.0 2051.96   1
  11   0   1 11748.3 1523.36   1
  11 -11   1 13818.2 1624.23   1
 -11   0  -1 9422.09 1446.02   1
   0 -11   1 12010.2 1553.26   2
   0 -11  -1 13016.6 1634.70   2
 -11  11  -1 13424.9 1626.45   1
  11   0   2 89198.4 4377.87   1
 -11   0  -2 81282.3 4303.88   1
 -11  11  -2 92969.5 4379.02   1
  11   0   3 57073.3 3388.28   1
   0 -11  -3 49038.2 3324.83   1
   0  11   3 49521.3 3258.53   1
 -11   0  -3 50528.7 3414.06   1
  11   0   4 20691.7 2060.38   1
   0 -11  -4 18627.2 2049.97   1
   0  11   4 19833.2 2030.98   1
 -11   0  -4 21089.2 2163.26   1
   0 -11   4 17247.3 1947.89   2
   0 -11  -5 58777.7 3635.83   1
   0  11   5 65898.1 3755.41   1
   0 -11   5 55830.1 3596.05   2
  -6  -6  -7-89.3817 290.262   2
   6   6   7-32.4747 382.672   1
  -6  -6  -7-0.85168 284.983   1
   6 -12   7 12.5315 255.950   2
  -6  -6  -6 28607.1 2468.40   1
   6   6   6 30895.9 2541.73   1
   6 -12   6 30751.3 2481.91   2
  12  -6  -6 29451.4 2444.46   1
  -6  -6  -6 36388.8 2738.78   2
 -12   6   5 439.263 320.217   1
  -6  -6  -5-25.7513 300.965   2
   6   6   5-205.698 355.316   1
  12  -6  -5 173.898 235.748   1
  -6  -6  -5 379.126 418.844   1
   6 -12   5-313.494 244.849   2
  -6  -6  -4 295881. 8479.61   1
   6   6   4 339041. 8971.85   1
 -12   6   4 313217. 8616.64   1
   6 -12   4 374629. 9157.00   2
  12  -6  -4 416539. 9516.80   1
  -6  -6  -4 366435. 9270.58   2
  -6  -6  -3 2.48565 282.368   2
   6   6   3-168.669 367.901   1
  12  -6  -3 465.313 359.768   1
  -6  12  -3 155.237 232.959   1
  -6  -6  -3-394.587 432.570   1
   6 -12   3 258.889 273.841   2
   6 -12   3-309.648 241.365   1
 -12   6   3 223.715 362.131   1
  -6  -6  -2 3575.19 880.822   2
  12  -6  -2 4023.98 911.813   1
   6   6   2 3126.36 780.523   1
  -6  12  -2 3811.12 874.862   1
   6 -12   2 2441.41 705.170   1
   6 -12   2 2381.00 739.831   2
 -12   6   2 4286.48 957.464   1
  12  -6  -1 45.6773 245.293   1
  -6  -6  -1-429.329 466.400   2
  -6  12  -1 218.395 323.677   1
   6 -12   1-52.0610 212.026   2
   6 -12   1 233.395 241.036   1
 -12   6   1-100.034 222.237   1
   6 -12   0 128679. 5210.49   1
  -6  12   0 148110. 5545.22   1
 -12   6   0 150236. 5530.01   1
  12  -6   0 142550. 5320.56   1
   6 -12   0 142875. 5469.53   2
  -6  -6   0 124386. 5283.26   2
  -6  12   1-44.9457 260.803   1
   6 -12  -1 298.821 269.379   1
   6 -12  -1 69.9401 282.638   2
  12  -6   1 387.582 260.593   1
 -12   6  -1 412.654 308.673   1
   6 -12  -2 1333.74 527.075   1
  -6  12   2 892.944 404.877   1
  12  -6   2 1272.70 586.377   1
   6 -12  -2 598.948 468.699   2
 -12   6  -2 1501.16 620.870   1
   6 -12  -3 282.102 312.904   1
  -6  12   3 137.793 252.250   1
  12  -6   3 384.805 317.503   1
   6 -12  -3-137.045 364.233   2
 -12   6  -3-362.487 314.569   1
  -6  12   4 227499. 6969.89   1
   6 -12  -4 246006. 7376.11   1
  12  -6   4 239530. 6988.91   1
 -12   6  -4 239123. 7054.38   1
   6 -12  -4 222491. 7074.80   2
   6 -12  -5-2.41848 220.961   1
  -6  12   5-546.331 344.081   1
  12  -6   5-122.825 263.999   1
   6 -12  -5 68.2365 240.441   2
 -12   6  -5 65.6794 285.716   1
  -6  12   6 16093.7 1789.18   1
   6 -12  -6 17683.8 1915.87   1
  12  -6   6 13808.1 1599.82   1
 -12   6  -6 14254.0 1707.90   1
   6 -12  -6 14597.2 1691.03   2
   6 -12  -7-289.139 436.934   2
   6 -12  -8 220655. 7363.07   2
  12  -7  -7 88668.1 4350.00   1
  -5  -7  -7 87887.3 4429.26   1
  -7  -5  -7 94413.4 4536.05   1
   5   7   7 94935.0 4567.50   1
   7   5   7 94764.0 4508.60   1
   5 -12   7 105293. 4776.93   2
  -7  -5  -7 99131.6 4599.63   2
  12  -7  -6 144828. 5570.84   1
  -5  -7  -6 161314. 6056.37   1
  -7  -5  -6 165480. 6044.85   1
   5   7   6 174702. 6230.26   1
   7   5   6 172266. 6139.70   1
   7 -12   6 164784. 5975.51   2
   5 -12   6 164700. 6005.46   2
 -12   7   6 191299. 6512.35   1
  -5  -7  -6 186427. 6259.90   2
  -7  -5  -6 160545. 5961.24   2
  12  -7  -5 75727.5 3972.43   1
  -5  -7  -5 87514.3 4409.74   1
  -7  -5  -5 74746.3 4068.43   1
   5   7   5 96214.8 4590.19   1
   7   5   5 96180.7 4586.38   1
 -12   5   5 83509.3 4262.84   1
  12  -5  -5 81607.4 4181.01   1
   7 -12   5 105369. 4697.29   2
   5 -12   5 104517. 4620.49   2
 -12   7   5 99239.7 4572.67   1
  -5  -7  -5 108352. 4756.61   2
  -7  -5  -5 84648.4 4261.14   2
   5   7   4 2642.45 783.705   1
 -12   7   4 3426.83 859.032   1
  -5  -7  -4 2951.46 769.865   2
  -7  -5  -4 3370.67 882.146   2
  -7  12  -4 2901.91 769.702   1
   7   5   4 2274.25 713.980   1
   7 -12   4 2970.77 792.958   1
  -5  -7  -4 1780.74 684.353   1
  -7  -5  -4 2257.52 677.471   1
  12  -7  -4 3132.67 775.734   1
   7 -12   4 2704.12 741.041   2
   5 -12   4 3797.38 882.850   2
  12  -5  -4 3256.31 851.562   1
 -12   5   4 3385.76 837.607   1
   5   7   3 997.845 483.349   1
 -12   7   3 579.080 388.524   1
  -5  -7  -3 871.466 516.050   2
  -7  -5  -3 68.4670 231.171   2
   7   5   3 860.865 458.071   1
  -7  12  -3 972.095 476.952   1
  -5  -7  -3 285.098 306.128   1
   7 -12   3 575.523 426.703   1
  12  -7  -3 937.748 418.133   1
  -7  -5  -3 703.485 502.761   1
   7 -12   3 1287.27 527.398   2
  12  -5  -3 1343.97 574.151   1
   5 -12   3 1135.64 552.180   2
 -12   5   3 1118.26 536.199   1
  -7  12  -2 124965. 5185.98   1
  -5  12  -2 116893. 5067.59   1
   7 -12   2 109667. 4736.77   1
   5   7   2 120854. 5158.43   1
  12  -5  -2 121780. 4929.57   1
 -12   5   2 121057. 5023.26   1
   7   5   2 120037. 5113.07   1
   7 -12   2 129415. 5220.15   2
   5 -12   2 132712. 5132.16   2
  -5  -7  -2 118526. 5061.77   2
  12  -7  -2 118821. 4865.69   1
   5 -12   2 109850. 4833.31   1
  -7  -5  -2 115069. 5110.17   2
  -7  12  -1 24827.1 2255.91   1
  -5  12  -1 26385.6 2284.18   1
   7 -12   1 22221.6 2085.71   1
  12  -5  -1 29637.0 2366.98   1
 -12   5   1 26669.4 2305.55   1
   7 -12   1 25799.5 2312.81   2
 -12   7   1 26783.5 2320.56   1
   5 -12   1 25581.1 2261.50   2
   5 -12   1 19306.1 2002.12   1
  -5  -7  -1 28337.8 2454.66   2
  12  -7  -1 30815.0 2369.05   1
  -7  -5  -1 24446.7 2283.35   2
  -7  12   0 22600.4 2118.05   1
  -5  12   0 22735.2 2081.23   1
   5 -12   0 19496.5 2065.26   1
   7 -12   0 19917.3 1934.33   1
  12  -5   0 24406.2 2174.04   1
 -12   5   0 27428.2 2303.45   1
 -12   7   0 24229.8 2165.59   1
   7 -12   0 23336.2 2209.26   2
   5 -12   0 23969.7 2167.43   2
  12  -7   0 22110.8 2043.54   1
  -5  -7   0 19929.0 2051.36   2
  -7  12   1 95504.0 4347.26   1
  -5  12   1 94176.1 4374.35   1
   5 -12  -1 87564.8 4311.48   1
  12  -5   1 108484. 4613.33   1
 -12   5  -1 105277. 4555.84   1
 -12   7  -1 92724.2 4299.17   1
   7 -12  -1 92116.0 4287.03   1
   7 -12  -1 87058.0 4339.00   2
   5 -12  -1 99443.5 4547.55   2
  12  -7   1 98403.3 4333.77   1
  -5  -7   1 85862.6 4336.10   2
  -7  12   2 54583.0 3234.43   1
  -5  12   2 47624.8 3144.09   1
   5 -12  -2 46812.0 3156.84   1
  12  -5   2 45309.4 2972.88   1
 -12   5  -2 61740.8 3444.17   1
 -12   7  -2 51770.0 3195.80   1
   7 -12  -2 52150.3 3298.00   2
  12  -7   2 56470.8 3268.06   1
   5 -12  -2 47562.5 3137.83   2
   7 -12  -2 51419.7 3207.78   1
  -7  12   3 11077.9 1491.83   1
  -5  12   3 10002.4 1417.04   1
   5 -12  -3 10377.9 1459.25   1
   7 -12  -3 10608.0 1459.63   1
  12  -5   3 9918.14 1377.84   1
 -12   5  -3 10878.5 1469.45   1
 -12   7  -3 11917.4 1454.99   1
  12  -7   3 9670.75 1284.23   1
   7 -12  -3 8984.62 1380.87   2
   5 -12  -3 10342.3 1474.89   2
   5 -12  -4 5581.37 1085.26   1
  -7  12   4 6100.60 1093.05   1
  -5  12   4 6645.76 1142.00   1
  12  -5   4 8106.40 1102.40   1
  12  -7   4 7545.85 1167.31   1
   7 -12  -4 5310.14 1064.20   2
 -12   5  -4 7116.41 1194.94   1
   5 -12  -4 6343.79 1157.86   2
 -12   7  -4 6951.44 1133.05   1
  -7  12   5 10646.7 1465.13   1
   7 -12  -5 11988.2 1489.38   1
  -5  12   5 10929.0 1398.74   1
   5 -12  -5 10161.3 1434.07   1
  12  -5   5 12784.2 1472.04   1
 -12   5  -5 12767.7 1531.52   1
  12  -7   5 11150.5 1409.86   1
 -12   7  -5 12535.4 1535.90   1
   7 -12  -5 8977.05 1381.76   2
   5 -12  -5 8943.97 1429.92   2
  -7  12   6 268293. 7558.86   1
   7 -12  -6 298355. 8113.30   1
  -5  12   6 279640. 7747.47   1
   5 -12  -6 290893. 8056.84   1
  12  -5   6 299130. 7871.44   1
  12  -7   6 313318. 8067.47   1
 -12   5  -6 314205. 8207.98   1
 -12   7  -6 294357. 7843.51   1
   7 -12  -6 245761. 7803.40   2
   5 -12  -6 269475. 7916.66   2
   7 -12  -7 43625.9 3136.47   2
   5 -12  -7 49977.0 3303.43   2
   5 -12  -8 13312.8 1637.49   2
  12  -8  -8 3174.79 816.092   1
  12  -8  -7 50526.6 3258.61   1
  -4  -8  -7 42060.8 3051.56   1
   4   8   7 47462.4 3114.62   1
 -12   8   7 48340.6 3204.12   1
  -8  -4  -6 204790. 6948.58   2
  12  -8  -6 203257. 6606.17   1
  -8  -4  -6 198917. 6620.58   1
   4   8   6 202227. 6706.83   1
   4 -12   6 189589. 6549.29   2
   8   4   6 202822. 6625.48   1
 -12   8   6 201960. 6752.24   1
  -4  -8  -5 8897.33 1273.91   2
  -8  -4  -5 9013.72 1410.06   2
  -8  12  -5 7113.47 1217.97   1
  12  -8  -5 7086.66 1197.45   1
  -4  -8  -5 7918.92 1244.21   1
   4   8   5 8254.94 1331.77   1
   8 -12   5 7383.28 1257.91   1
  -8  -4  -5 6908.04 1192.27   1
   4 -12   5 9832.77 1421.91   2
   8   4   5 8247.43 1356.37   1
   8 -12   5 9715.67 1384.24   2
 -12   8   5 8569.31 1321.57   1
  12  -8  -4 63488.4 3541.79   1
  -4  -8  -4 51136.5 3372.21   1
  -8  -4  -4 50360.4 3287.82   1
   4   8   4 56848.6 3510.81   1
  12  -4  -4 64288.1 3660.38   1
   8 -12   4 50031.6 3213.47   1
   8 -12   4 66474.9 3656.96   2
   4 -12   4 58332.1 3490.40   2
   8   4   4 59571.9 3543.43   1
 -12   8   4 66580.2 3694.19   1
  -4  -8  -4 62986.8 3639.21   2
  -8  12  -4 56025.1 3482.22   1
  -8  -4  -4 59468.0 3668.26   2
  12  -8  -3 40185.3 2804.52   1
  -4  -8  -3 42931.6 3053.47   1
  -8  -4  -3 39193.1 2904.59   1
   4   8   3 41280.5 2993.75   1
  12  -4  -3 37115.4 2798.79   1
 -12   4   3 36433.0 2772.77   1
   8 -12   3 50045.3 3219.31   2
   4 -12   3 48025.7 3072.42   2
   8   4   3 42864.4 2987.47   1
 -12   8   3 49527.8 3190.53   1
   8 -12   3 39563.5 2781.10   1
  -4  -8  -3 52383.1 3338.85   2
  -8  12  -3 42275.0 2946.61   1
  -8  -4  -3 39526.8 2967.59   2
   8 -12   2 92407.5 4304.29   1
  12  -8  -2 112695. 4665.88   1
  12  -4  -2 103945. 4664.13   1
 -12   4   2 105208. 4795.35   1
   8 -12   2 106777. 4786.18   2
   4 -12   2 110377. 4672.08   2
   8   4   2 98025.0 4597.90   1
 -12   8   2 127342. 5130.02   1
  -4  -8  -2 101992. 4697.57   2
  -8  -4  -2 88238.6 4531.03   2
  -8  12  -2 99563.1 4533.55   1
  12  -8  -1 30295.0 2378.50   1
  -4  12  -1 23717.8 2215.74   1
   8 -12   1 27620.8 2299.43   1
  12  -4  -1 28962.8 2348.26   1
 -12   4   1 27245.0 2395.39   1
   8 -12   1 29750.7 2490.02   2
   4 -12   1 30836.2 2455.74   2
 -12   8   1 34808.0 2616.53   1
  -4  -8  -1 26483.9 2407.37   2
  -8  12  -1 29703.0 2433.23   1
  -4  -8   0 422.487 328.334   2
 -12   8   0 435.972 328.115   1
  -8  12   0 355.985 313.254   1
   4 -12   0 302.960 428.815   1
  -4  12   0 116.554 277.765   1
  12  -4   0-52.7236 354.847   1
  12  -8   0 417.289 277.308   1
   8 -12   0 572.995 453.767   1
   8 -12   0-255.168 235.494   2
 -12   4   0-107.384 218.729   1
   4 -12   0 242.752 363.240   2
  -4  -8   1 6055.67 1170.97   2
   8 -12  -1 8182.48 1257.97   1
  -4  12   1 7821.67 1303.72   1
  -8  12   1 7125.57 1210.99   1
   4 -12  -1 6657.43 1143.82   1
  12  -4   1 10194.4 1399.52   1
 -12   4  -1 6183.08 1110.15   1
   8 -12  -1 7708.92 1302.86   2
 -12   8  -1 8367.84 1253.64   1
   4 -12  -1 7165.90 1214.76   2
  12  -8   1 7769.44 1186.78   1
  -8  12   2 107580. 4663.64   1
  -4  12   2 93783.4 4430.41   1
   4 -12  -2 88048.5 4372.24   1
  12  -4   2 107783. 4604.67   1
   8 -12  -2 106623. 4544.33   1
 -12   4  -2 100783. 4548.04   1
   8 -12  -2 102671. 4761.79   2
 -12   8  -2 106653. 4607.74   1
   4 -12  -2 103997. 4601.91   2
  -4  -8   2 94298.1 4563.60   2
  12  -8   2 103771. 4428.40   1
  -8  12   3 61440.6 3514.08   1
  -4  12   3 50623.2 3216.31   1
   4 -12  -3 53585.9 3371.79   1
  12  -4   3 57394.2 3268.05   1
 -12   4  -3 55913.9 3379.68   1
   8 -12  -3 55844.5 3326.53   1
 -12   8  -3 54183.8 3223.38   1
   8 -12  -3 52328.9 3325.85   2
   4 -12  -3 53044.5 3291.35   2
  12  -8   3 54617.1 3148.32   1
  12  -8   4 1884.70 629.923   1
  12  -4   4 735.713 451.973   1
   4 -12  -4 1374.25 560.110   1
  -8  12   4 1339.03 489.159   1
  -4  12   4 1640.24 570.973   1
 -12   4  -4 1437.02 533.419   1
   8 -12  -4 1348.63 605.742   2
   8 -12  -4 1449.45 413.956   1
   4 -12  -4 1509.27 599.243   2
 -12   8  -4 1507.03 398.350   1
  -8  12   5 97516.1 4339.51   1
  -4  12   5 95230.7 4352.17   1
   4 -12  -5 88388.0 4296.51   1
  12  -4   5 100334. 4373.40   1
 -12   4  -5 99449.9 4494.33   1
 -12   8  -5 99785.7 4451.75   1
  12  -8   5 96529.7 4361.14   1
   8 -12  -5 87719.4 4485.93   2
   4 -12  -5 97960.1 4549.15   2
   8 -12  -5 92517.9 4349.02   1
   4 -12  -6 123259. 5073.55   1
  -4  12   6 123467. 5005.01   1
   4 -12  -6 121249. 5132.00   2
   4 -12  -7 50379.9 3297.02   2
  -9  -3  -6 6731.66 1218.47   2
  -3  -9  -6 9705.16 1486.79   1
   3   9   6 7742.76 1308.49   1
  -9  12  -6 8473.42 1391.26   1
 -12   9   5 2222.44 634.242   1
  -9  -3  -5 1385.03 554.720   2
  -9  12  -5 863.932 404.115   1
   9   3   5 2023.01 686.731   1
  12  -9  -5 2754.90 792.570   1
  -3  -9  -5 1519.01 582.219   1
   9 -12   5 1323.86 527.130   1
  -9  -3  -5 1736.51 645.730   1
   3   9   5 1443.96 562.120   1
  -9  -3  -4 227802. 7701.98   2
  12  -9  -4 327602. 8390.52   1
  -3  -9  -4 278480. 8294.47   1
  -9  -3  -4 249726. 7994.84   1
   3   9   4 304321. 8481.09   1
   9 -12   4 286710. 8039.50   1
   9 -12   4 295011. 8284.85   2
   3 -12   4 338239. 8687.22   2
   9   3   4 314881. 8556.28   1
 -12   9   4 391097. 9217.82   1
  -3  -9  -4 334263. 8625.41   2
  -9  12  -4 331460. 8878.30   1
  -3  -9  -3 7282.68 1195.10   2
 -12   9   3 6457.41 1127.40   1
  -9  -3  -3 4705.14 1072.48   2
  -9  12  -3 6737.73 1204.83   1
  12  -9  -3 6036.52 1131.34   1
   9   3   3 6324.30 1150.46   1
  -9  -3  -3 4974.86 1024.18   1
   9 -12   3 6486.13 1173.45   2
   3   9   3 5158.64 1056.26   1
   9 -12   3 6802.03 1149.98   1
   3 -12   3 5343.85 1048.85   2
  -3  -9  -2 522.274 402.089   2
 -12   9   2 673.539 418.597   1
  -9  12  -2-53.2242 302.236   1
  12  -9  -2 469.383 357.544   1
  12  -3  -2 377.944 333.122   1
   9   3   2 830.204 507.961   1
  -9  -3  -2 570.983 481.793   1
   9 -12   2 135.265 279.460   2
 -12   3   2 407.098 325.871   1
   3 -12   2 424.382 401.579   2
   9 -12   2-224.459 314.487   1
  -3  -9  -1 710.773 435.085   2
 -12   9   1 810.432 473.959   1
  12  -9  -1 1474.15 529.940   1
   9 -12   1 374.612 216.248   1
  -9  12  -1 1124.31 517.237   1
  12  -3  -1 861.764 443.449   1
   9 -12   1 615.871 468.605   2
 -12   3   1 1359.07 656.416   1
   3 -12   1 972.036 494.443   2
  12  -9   0 101728. 4398.91   1
  -3  12   0 87064.3 4446.32   1
  12  -3   0 111159. 4770.99   1
 -12   3   0 106852. 4860.91   1
   9 -12   0 92599.7 4596.15   2
   3 -12   0 106560. 4607.26   2
 -12   9   0 106224. 4653.32   1
  -3  -9   0 89863.9 4472.78   2
  -9  12   0 108496. 4747.59   1
   9 -12   0 101684. 4508.18   1
 -12   9  -1 24.5384 324.709   1
  12  -3   1-22.7259 349.028   1
  -9  12   1 1.55089 273.592   1
   3 -12  -1 202.544 259.683   1
   9 -12  -1 148.018 278.192   1
  -3  12   1 287.714 349.855   1
  12  -9   1 292.219 312.838   1
   9 -12  -1 120.169 195.384   2
 -12   3  -1-106.553 173.742   1
   3 -12  -1-147.417 203.769   2
  -3  -9   1-24.0634 369.013   2
 -12   9  -2 7514.25 1172.63   1
  12  -3   2 7360.51 1243.41   1
  -9  12   2 7764.15 1204.73   1
   3 -12  -2 5326.16 1092.98   1
  -3  12   2 8102.16 1276.38   1
  12  -9   2 7202.73 1133.20   1
 -12   3  -2 8253.31 1329.41   1
   9 -12  -2 7164.19 1170.06   1
   9 -12  -2 6092.31 1207.52   2
   3 -12  -2 6708.57 1179.38   2
  -3  -9   2 6106.98 1220.74   2
 -12   9  -3 1296.34 513.531   1
  12  -3   3 540.050 427.412   1
  -9  12   3 831.967 461.955   1
   3 -12  -3 614.018 444.012   1
  12  -9   3 1550.41 568.000   1
  -3  12   3 1319.79 525.376   1
 -12   3  -3 1390.68 609.118   1
   9 -12  -3 435.172 231.135   1
   9 -12  -3 952.869 459.981   2
   3 -12  -3 877.198 420.392   2
  -3  -9   3 1165.61 559.504   2
   3 -12  -4 225585. 7246.35   1
  -3  12   4 239873. 7304.76   1
 -12   3  -4 249717. 7358.32   1
   9 -12  -4 220178. 7433.77   2
   3 -12  -4 235117. 7217.54   2
 -12   3  -5 703.285 446.655   2
   3 -12  -5 2700.63 787.467   1
  -3  12   5 2244.02 719.894   1
 -12   3  -6 289.748 443.267   2
  10   2   4 4549.47 935.116   1
 -10  -2  -4 4062.29 995.854   1
   2  10   4 4551.16 967.140   1
 -10  -2  -3 69582.2 4092.52   1
  10   2   3 75276.5 4070.72   1
  10   2   2 77813.3 4167.35   1
  12  -2  -1 28991.5 2488.54   1
  12  -2   0 10234.7 1479.45   1
 -12   2   0 7990.42 1335.08   1
  -2 -10   0 9651.09 1454.86   2
  12  -2   1 283.111 210.994   1
 -12   2  -1 1093.88 626.066   1
  10 -12  -1 224.620 257.634   2
  -2 -10   1 828.679 541.491   2
   2 -12  -2 83262.7 4462.26   1
  12  -2   2 87765.5 4333.51   1
  -2  12   2 85748.1 4369.72   1
 -12   2  -2 80740.1 4336.80   1
  10 -12  -2 87814.5 4586.37   2
  -2 -10   2 79507.6 4289.44   2
   2 -12  -3 15945.7 1872.57   1
  -2  12   3 17541.2 1962.46   1
  -2 -10   3 15625.6 1849.74   2
   2 -12  -4 19332.5 2111.85   1
  -2  12   4 20735.7 2036.14   1
  -7  13  -2 56838.6 3571.26   1
  -6  -7  -2 57127.3 3645.88   2
  -6  -7  -1 2005.73 715.145   2
   7 -13   1 1227.23 550.007   1
  -7  13  -1 3035.39 838.866   1
  -6  13  -1 2128.80 730.093   1
  -7  13   0 358.514 489.572   1
  -6  13   0 19.6499 312.199   1
   6 -13   0 430.811 343.803   1
   7 -13   0 372.850 301.635   1
  -6  13   1 2533.76 756.838   1
   6 -13  -1 1337.31 554.828   1
  -5  13   0 160886. 6059.52   1
   5 -13  -1 482.961 371.745   1
  -5  13   1 316.450 261.684   1
   0   0   0    0.00    0.00   0
;
_shelx_hkl_checksum              20860
loop_
_space_group_symop_operation_xyz
'x, y, z'
'-y, x-y, z'
'-x+y, -x, z'
'-y, -x, -z+1/2'
'-x+y, y, -z+1/2'
'x, x-y, -z+1/2'
'-x, -y, -z'
'y, -x+y, -z'
'x-y, x, -z'
'y, x, z-1/2'
'x-y, -y, z-1/2'
'-x, -x+y, z-1/2'
loop_
_atom_site_label
_atom_site_type_symbol
_atom_site_fract_x
_atom_site_fract_y
_atom_site_fract_z
_atom_site_U_iso_or_equiv
_atom_site_adp_type
_atom_site_occupancy
_atom_site_site_symmetry_order
_atom_site_calc_flag
_atom_site_refinement_flags_posn
_atom_site_refinement_flags_adp
_atom_site_refinement_flags_occupancy
Co1 Co 0.6667 0.3333 0.2500 0.01091(15) Uani 1 6 d S T P
Fe1 Fe 1.0000 0.0000 0.0000 0.00954(15) Uani 1 6 d S T P
O1 O 0.88329(13) 0.34337(12) 0.16805(8) 0.0220(2) Uani 1 1 d . . .
O2 O 1.01288(11) 0.20887(12) 0.08292(6) 0.0178(2) Uani 1 1 d . . .
C1 C 0.87328(16) 0.20974(16) 0.12048(9) 0.0173(2) Uani 1 1 d . . .
H1 H 0.7554 0.1038 0.1121 0.034(6) Uiso 1 1 calc R . .
C2 C 1.3333 0.6667 0.1533(15) 0.198(7) Uani 1 3 d S T P
N1 N 1.2780(5) 0.5560(10) 0.2500 0.151(9) Uani 0.334 2 d S T P
loop_
_atom_site_aniso_label
_atom_site_aniso_U_11
_atom_site_aniso_U_22
_atom_site_aniso_U_33
_atom_site_aniso_U_23
_atom_site_aniso_U_13
_atom_site_aniso_U_12
Co1 0.00951(16) 0.00951(16) 0.0137(2) 0.000 0.000 0.00476(8)
Fe1 0.00857(16) 0.00857(16) 0.0115(2) 0.000 0.000 0.00429(8)
O1 0.0190(4) 0.0171(4) 0.0288(5) -0.0063(3) 0.0058(3) 0.0082(3)
O2 0.0160(3) 0.0166(4) 0.0219(5) -0.0032(3) 0.0026(3) 0.0089(3)
C1 0.0157(4) 0.0166(4) 0.0210(6) -0.0046(3) 0.0000(3) 0.0093(4)
C2 0.0274(12) 0.0274(12) 0.54(2) 0.000 0.000 0.0137(6)
N1 0.039(3) 0.013(2) 0.39(3) 0.000 -0.093(8) 0.0065(12)
loop_
_atom_type_symbol
_atom_type_description
_atom_type_scat_dispersion_real
_atom_type_scat_dispersion_imag
_atom_type_scat_source
C C 0.0030 0.0010 'International Tables Vol C Tables 4.2.6.8 and 6.1.1.4'
H H 0.0000 0.0000 'International Tables Vol C Tables 4.2.6.8 and 6.1.1.4'
N N 0.0050 0.0030 'International Tables Vol C Tables 4.2.6.8 and 6.1.1.4'
O O 0.0090 0.0050 'International Tables Vol C Tables 4.2.6.8 and 6.1.1.4'
Fe Fe 0.3380 0.7600 'International Tables Vol C Tables 4.2.6.8 and 6.1.1.4'
Co Co 0.3460 0.8760 'International Tables Vol C Tables 4.2.6.8 and 6.1.1.4'
loop_
_geom_angle_atom_site_label_1
_geom_angle_atom_site_label_2
_geom_angle_atom_site_label_3
_geom_angle
_geom_angle_site_symmetry_1
_geom_angle_site_symmetry_3
O1 Co1 O1 93.43(4) 4_665 6
O1 Co1 O1 83.75(5) 4_665 3_665
O1 Co1 O1 176.05(5) 6 3_665
O1 Co1 O1 176.05(5) 4_665 2_655
O1 Co1 O1 89.52(6) 6 2_655
O1 Co1 O1 93.43(4) 3_665 2_655
O1 Co1 O1 93.43(4) 4_665 5_655
O1 Co1 O1 93.43(4) 6 5_655
O1 Co1 O1 89.52(6) 3_665 5_655
O1 Co1 O1 83.75(5) 2_655 5_655
O1 Co1 O1 89.52(6) 4_665 .
O1 Co1 O1 83.75(5) 6 .
O1 Co1 O1 93.43(4) 3_665 .
O1 Co1 O1 93.43(4) 2_655 .
O1 Co1 O1 176.05(5) 5_655 .
O2 Fe1 O2 91.41(4) 7_755 9_545
O2 Fe1 O2 88.59(4) 7_755 3_765
O2 Fe1 O2 180.00(6) 9_545 3_765
O2 Fe1 O2 88.59(4) 7_755 2_645
O2 Fe1 O2 88.59(4) 9_545 2_645
O2 Fe1 O2 91.41(4) 3_765 2_645
O2 Fe1 O2 91.41(4) 7_755 8_665
O2 Fe1 O2 91.41(4) 9_545 8_665
O2 Fe1 O2 88.59(4) 3_765 8_665
O2 Fe1 O2 180.00(10) 2_645 8_665
O2 Fe1 O2 180.0 7_755 .
O2 Fe1 O2 88.59(4) 9_545 .
O2 Fe1 O2 91.41(4) 3_765 .
O2 Fe1 O2 91.41(4) 2_645 .
O2 Fe1 O2 88.59(4) 8_665 .
C1 O1 Co1 124.93(8) . .
C1 O2 Fe1 125.03(8) . .
O1 C1 O2 124.06(11) . .
N1 C2 N1 52.6(7) 3_775 .
N1 C2 N1 52.6(7) 3_775 2_755
N1 C2 N1 52.6(7) . 2_755
N1 N1 N1 60.001(1) 3_775 2_755
N1 N1 C2 63.7(4) 3_775 4_775
N1 N1 C2 63.7(4) 2_755 4_775
N1 N1 C2 63.7(4) 3_775 .
N1 N1 C2 63.7(4) 2_755 .
C2 N1 C2 118.5(9) 4_775 .
loop_
_geom_bond_atom_site_label_1
_geom_bond_atom_site_label_2
_geom_bond_distance
_geom_bond_site_symmetry_2
Co1 O1 2.0693(9) 4_665
Co1 O1 2.0693(9) 6
Co1 O1 2.0693(9) 3_665
Co1 O1 2.0693(9) 2_655
Co1 O1 2.0693(9) 5_655
Co1 O1 2.0693(9) .
Fe1 O2 2.0146(9) 7_755
Fe1 O2 2.0146(9) 9_545
Fe1 O2 2.0146(9) 3_765
Fe1 O2 2.0146(9) 2_645
Fe1 O2 2.0146(9) 8_665
Fe1 O2 2.0146(9) .
O1 C1 1.2427(13) .
O2 C1 1.2597(13) .
C2 N1 1.539(18) 3_775
C2 N1 1.539(18) .
C2 N1 1.539(18) 2_755
N1 N1 1.363(12) 3_775
N1 N1 1.363(12) 2_755
N1 C2 1.539(18) 4_775
