#------------------------------------------------------------------------------
#$Date: 2017-02-04 00:26:31 +0200 (Sat, 04 Feb 2017) $
#$Revision: 191255 $
#$URL: file:///home/coder/svn-repositories/cod/cif/4/34/51/4345107.cif $
#------------------------------------------------------------------------------
#
# This file is available in the Crystallography Open Database (COD),
# http://www.crystallography.net/
#
# All data on this site have been placed in the public domain by the
# contributors.
#
data_4345107
loop_
_publ_author_name
'Mazzuca, Lidia'
'Ca\~nadillas-Delgado, Laura'
'Rodr\'iguez-Velamaz\'an, J Alberto'
'Fabelo, Oscar'
'Scarrozza, Marco'
'Stroppa, Alessandro'
'Picozzi, Silvia'
'Zhao, Jiong-Peng'
'Bu, Xian-He'
'Rodr\'iguez-Carvajal, Juan'
_publ_section_title
;
 Magnetic Structures of Heterometallic M(II)-M(III) Formate Compounds.
;
_journal_issue                   1
_journal_name_full               'Inorganic chemistry'
_journal_page_first              197
_journal_page_last               207
_journal_paper_doi               10.1021/acs.inorgchem.6b01866
_journal_volume                  56
_journal_year                    2017
_chemical_formula_sum            'C8 H14 Co Fe N O12'
_chemical_formula_weight         430.97
_chemical_name_systematic
;
 ?
;
_space_group_crystal_system      trigonal
_space_group_IT_number           163
_space_group_name_Hall           '-P 3 2c'
_space_group_name_H-M_alt        'P -3 1 c'
_symmetry_space_group_name_Hall  '-P 3 2c'
_symmetry_space_group_name_H-M   'P -3 1 c'
_atom_sites_solution_hydrogens   geom
_audit_creation_method           SHELXL-2014
_cell_angle_alpha                90
_cell_angle_beta                 90
_cell_angle_gamma                120
_cell_formula_units_Z            2
_cell_length_a                   8.21320(10)
_cell_length_b                   8.21320(10)
_cell_length_c                   13.6863(2)
_cell_measurement_reflns_used    6410
_cell_measurement_temperature    85(2)
_cell_measurement_theta_max      32.473
_cell_measurement_theta_min      5.581
_cell_volume                     799.542(18)
_computing_cell_refinement       'CrysAlis PRO software program'
_computing_data_collection       'CrysAlis PRO software program'
_computing_data_reduction        'CrysAlis PRO software program'
_computing_molecular_graphics    'Mercury (McRae, 2006)'
_computing_publication_material  'WINGX (Farrugia, 1999)'
_computing_structure_refinement  'SHELXL-2014 (Sheldrick, 2014)'
_computing_structure_solution    'SHELXL-2014 (Sheldrick, 2014)'
_diffrn_ambient_temperature      85(2)
_diffrn_measured_fraction_theta_full 0.795
_diffrn_measured_fraction_theta_max 0.854
_diffrn_measurement_device_type  'CRISTAL beamline, SOLEIL synchrotron'
_diffrn_radiation_type           synchrotron
_diffrn_radiation_wavelength     0.66951
_diffrn_reflns_av_R_equivalents  0.0725
_diffrn_reflns_av_unetI/netI     0.0288
_diffrn_reflns_Laue_measured_fraction_full 0.795
_diffrn_reflns_Laue_measured_fraction_max 0.854
_diffrn_reflns_limit_h_max       12
_diffrn_reflns_limit_h_min       -12
_diffrn_reflns_limit_k_max       13
_diffrn_reflns_limit_k_min       -13
_diffrn_reflns_limit_l_max       18
_diffrn_reflns_limit_l_min       -19
_diffrn_reflns_number            9106
_diffrn_reflns_point_group_measured_fraction_full 0.795
_diffrn_reflns_point_group_measured_fraction_max 0.854
_diffrn_reflns_theta_full        23.685
_diffrn_reflns_theta_max         32.473
_diffrn_reflns_theta_min         5.581
_diffrn_source                   synchrotron
_exptl_absorpt_coefficient_mu    1.617
_exptl_absorpt_correction_T_max  1.00000
_exptl_absorpt_correction_T_min  0.94109
_exptl_absorpt_correction_type   multi-scan
_exptl_absorpt_process_details
;
CrysAlisPro, Agilent Technologies,
Version 1.171.37.33 (release 27-03-2014 CrysAlis171 .NET)
(compiled Mar 27 2014,17:12:48)
Empirical absorption correction using spherical harmonics,
 implemented in SCALE3 ABSPACK scaling algorithm.
;
_exptl_crystal_colour            red
_exptl_crystal_density_diffrn    1.790
_exptl_crystal_description       prism
_exptl_crystal_F_000             436
_exptl_crystal_size_max          0.09
_exptl_crystal_size_mid          0.07
_exptl_crystal_size_min          0.06
_refine_diff_density_max         0.571
_refine_diff_density_min         -0.428
_refine_diff_density_rms         0.100
_refine_ls_extinction_method     none
_refine_ls_goodness_of_fit_ref   1.143
_refine_ls_hydrogen_treatment    refU
_refine_ls_matrix_type           full
_refine_ls_number_parameters     41
_refine_ls_number_reflns         997
_refine_ls_number_restraints     0
_refine_ls_restrained_S_all      1.143
_refine_ls_R_factor_all          0.0402
_refine_ls_R_factor_gt           0.0394
_refine_ls_shift/su_max          0.000
_refine_ls_shift/su_mean         0.000
_refine_ls_structure_factor_coef Fsqd
_refine_ls_weighting_details
'w=1/[\s^2^(Fo^2^)+(0.0893P)^2^+0.1206P] where P=(Fo^2^+2Fc^2^)/3'
_refine_ls_weighting_scheme      calc
_refine_ls_wR_factor_gt          0.1243
_refine_ls_wR_factor_ref         0.1256
_reflns_Friedel_coverage         0.000
_reflns_number_gt                957
_reflns_number_total             997
_reflns_threshold_expression     'I > 2\s(I)'
_cod_data_source_file            FeCo_85K.cif
_cod_data_source_block           shelx
_cod_original_cell_volume        799.54(2)
_cod_database_code               4345107
_shelx_space_group_comment
;
The symmetry employed for this shelxl refinement is uniquely defined
by the following loop, which should always be used as a source of
symmetry information in preference to the above space-group names.
They are only intended as comments.
;
_shelxl_version_number           2014-3
_shelx_res_file
;
TITL FeCo_warm5 in P-31c
CELL  0.66951   8.2132   8.2132  13.6863   90.000   90.000  120.000
ZERR     2.00   0.0001   0.0001   0.0002    0.000    0.000    0.000
LATT   1
SYMM  - Y,   X - Y,   Z
SYMM  - X + Y, - X,   Z
SYMM  - Y, - X, 1/2 - Z
SYMM  - X + Y,   Y, 1/2 - Z
SYMM    X,   X - Y, 1/2 - Z
SFAC  C        2.31000 20.84392  1.02000 10.20751   1.58860   0.56870 =
         0.86500  51.65125   0.21560   0.003   0.001     5.315   0.770  12.011
SFAC  H        0.49300 10.51091  0.32291 26.12573   0.14019   3.14236 =
         0.04081  57.79977   0.00304   0.000   0.000     0.000   0.320   1.008
SFAC  N       12.21261  0.00570  3.13220  9.89331   2.01250  28.99754 =
         1.16630   0.58260 -11.52901   0.005   0.003    10.897   0.700  14.007
SFAC  O        3.04850 13.27711  2.28680  5.70111   1.54630   0.32390 =
         0.86700  32.90894   0.25080   0.009   0.005    20.072   0.660  15.999
SFAC  FE      11.76951  4.76111  7.35731  0.30720   3.52220  15.35351 =
         2.30450  76.88058   1.03690   0.338   0.760  2867.351   1.260  55.845
SFAC  CO      12.28411  4.27910  7.34091  0.27840   4.00340  13.53591 =
         2.34880  71.16927   1.01180   0.346   0.876  3304.255   1.260  58.933
UNIT  16   28   2    24   2    2
MERG   2
FMAP   2
PLAN   20
ACTA
L.S.   8
WGHT    0.089300    0.120600
FVAR      24.18516
CO1   6    0.666667    0.333333    0.250000    10.16667    0.01029    0.01029 =
         0.01580    0.00000    0.00000    0.00515
FE1   5    1.000000    0.000000    0.000000    10.16667    0.00937    0.00937 =
         0.01379    0.00000    0.00000    0.00469
O1    4    0.883285    0.343193    0.168127    11.00000    0.02002    0.01852 =
         0.03129   -0.00669    0.00596    0.00881
O2    4    1.012867    0.208842    0.082906    11.00000    0.01733    0.01782 =
         0.02584   -0.00354    0.00258    0.00956
C1    1    0.873363    0.209720    0.120673    11.00000    0.01693    0.01826 =
         0.02370   -0.00484    0.00004    0.01014
AFIX  43
H1    2    0.755536    0.103664    0.112471    11.00000    0.03801
AFIX   0
C2    1    1.333333    0.666667    0.151465    10.33333    0.02880    0.02880 =
         0.60589    0.00000    0.00000    0.01440
N1    3    1.277913    0.555826    0.250000    10.16700    0.03923    0.01573 =
         0.41368    0.00000   -0.08989    0.00786
HKLF    4

REM  FeCo_warm5 in P-31c
REM R1 =  0.0394 for     957 Fo > 4sig(Fo)  and  0.0402 for all     997 data
REM     41 parameters refined using      0 restraints

END

WGHT      0.0893      0.1206

REM Highest difference peak  0.571,  deepest hole -0.428,  1-sigma level  0.100
Q1    1   0.9986  0.0962  0.0432  11.00000  0.05    0.57
Q2    1   0.9476  0.1757  0.1157  11.00000  0.05    0.42
Q3    1   0.6195  0.2682  0.2943  11.00000  0.05    0.42
Q4    1   0.8584  0.2933  0.1292  11.00000  0.05    0.41
Q5    1   1.0000  0.0000  0.2500  10.16667  0.05    0.40
Q6    1   1.3333  0.6667  0.0838  10.33333  0.05    0.37
Q7    1   1.3127  0.7605  0.1463  11.00000  0.05    0.36
Q8    1   1.1136  0.2522  0.1016  11.00000  0.05    0.34
Q9    1   1.0079  0.1998  0.2515  11.00000  0.05    0.34
Q10   1   1.0013  0.5011  0.0772  11.00000  0.05    0.33
Q11   1   1.3357  0.5567  0.1768  11.00000  0.05    0.32
Q12   1   1.0000  0.0000  0.1478  10.33333  0.05    0.32
Q13   1   1.0059  0.1022 -0.0371  11.00000  0.05    0.32
Q14   1   1.1028  0.5990  0.1513  11.00000  0.05    0.30
Q15   1   0.7804  0.3396  0.2039  11.00000  0.05    0.30
Q16   1   1.0023  0.4294  0.1473  11.00000  0.05    0.29
Q17   1   0.9022  0.4849  0.1429  11.00000  0.05    0.29
Q18   1   0.7546  0.2507 -0.0022  11.00000  0.05    0.29
Q19   1   0.7469  0.0378  0.1463  11.00000  0.05    0.29
Q20   1   0.7446  0.1426  0.0723  11.00000  0.05    0.28
;
_shelx_res_checksum              65233
_shelx_hkl_file
;
   0   0  -3-66.8412 98.7061   1
   0   0   3 113.392 119.815   1
   0   0  -5 1068.59 280.918   1
   0   0   5-135.605 149.150   1
   0   0  -6 90126.6 2623.50   1
   0   0   6 103768. 2737.05   1
   0   0   7 206.044 195.850   1
   0   0  -7 169.591 145.439   1
   0   0   9 112.494 181.002   1
   0   0  -9-34.6840 188.561   1
   0   0 -10 25236.8 1767.59   1
   0   0  10 21605.8 1567.04   1
   0   0  11-16.6474 278.884   1
   0   0 -11-118.052 225.906   1
   0   0 -13-25.2383 257.493   1
   0   0  13 587.414 313.839   1
   0   1   4 5035.63 636.350   1
  -1   0  -4 6942.07 740.478   1
   0  -1   4 8224.70 711.135   2
   1   0  -4 10019.9 568.801   1
   0  -1  -4 7755.41 802.043   2
  -1   1  -4 8104.87 685.198   1
   0  -1   4 7458.56 401.300   1
  -1   0   4 8808.97 532.035   1
   0   1  -4 7188.20 403.082   1
   1   0   4 9211.89 807.452   1
   0  -1  -4 8967.03 843.637   1
   1  -1   4 6329.95 617.804   1
  -1   1   4 8512.58 741.071   1
   1  -1  -4 6328.88 517.884   2
   1  -1  -4 6395.85 642.894   1
   0   1  -5 28534.5 982.156   1
   1  -1   5 31408.4 1426.70   1
  -1   0  -5 26680.8 1501.87   1
   0  -1  -5 28234.8 1610.30   1
  -1   1   5 26140.5 1354.48   1
   1  -1  -5 24802.8 1360.86   1
   1   0  -5 20319.5 930.737   1
   0  -1   5 24689.2 878.170   1
   0   1   5 17214.7 1234.88   1
   1   0   5 22876.1 1403.30   1
  -1   0   5 28292.8 1052.30   1
   1  -1  -5 20803.3 1052.47   2
  -1   1  -5 24081.1 1243.61   1
   0  -1  -5 23604.7 1477.90   2
   0   1   6 84887.5 2933.12   1
   0  -1  -6 67360.0 2718.03   1
  -1   0  -6 79427.5 2899.58   1
  -1   1  -6 104947. 2925.03   1
   0  -1  -6 94968.8 3223.20   2
   0   1  -6 93526.1 2065.13   1
   1  -1  -6 89538.2 2469.63   2
   1  -1  -6 72768.7 2591.68   1
   1   0   6 89309.1 3035.80   1
  -1   0   6 61326.1 1829.84   1
   1   0  -6 66768.2 1940.98   1
   0  -1   6 71215.0 1809.77   1
  -1   1   6 73069.2 2488.79   1
   1  -1   6 82836.0 2563.35   1
   1  -1   7 218554. 4657.29   1
   0   1   7 246592. 5428.36   1
  -1   1  -7 222364. 4825.78   1
   0  -1  -7 195964. 5357.42   2
   1   0   7 218016. 5152.03   1
  -1   0  -7 232828. 5398.36   1
   0  -1   8 89022.7 2455.15   1
  -1   1  -8 89848.9 3091.83   1
  -1   0  -8 98999.7 3562.07   1
   1  -1  -8 80029.6 2872.62   2
   1   0  -8 86646.1 2657.77   1
   0  -1  -8 90211.2 3724.30   2
  -1   0   8 122936. 3008.18   1
   0   1   8 87332.3 3307.09   1
   0   1  -8 110873. 2824.67   1
   1   0   8 116356. 3742.32   1
   1  -1  -8 84748.2 3161.16   1
  -1   1   8 119196. 3555.11   1
   1  -1   8 110986. 3387.58   1
   0  -1  -8 76045.3 3216.79   1
   0  -1  -9 381367. 7946.09   1
   1  -1 -11 215865. 6072.94   2
  -1   0  11 270057. 5777.35   1
   1  -1 -11 353155. 7606.50   1
   0  -1 -11 420561. 8606.87   1
   0   1  11 380495. 7949.69   1
   0  -1 -11 230669. 6821.52   2
   1   0 -11 251917. 5831.85   1
  -1   1 -11 317608. 7013.12   1
  -1   1  11 233560. 6166.35   1
  -1   0 -11 364238. 7963.55   1
   0   1  12 104622. 4296.27   1
   1  -1 -12 119846. 4538.74   1
   1  -1 -12 76369.3 3497.46   2
   0  -1 -12 117824. 4651.52   1
   0  -1 -12 66539.6 3859.97   2
   1   0 -12 123964. 4028.87   1
  -1   1  12 109587. 4142.08   1
  -1   1 -12 105274. 4062.05   1
  -1   0 -12 95837.8 4194.22   1
   1  -1  12 149066. 4657.92   1
   1   0  12 129650. 4739.11   1
   1  -1 -13 241483. 6813.63   1
  -1   0 -13 297227. 7863.03   1
   0  -1 -13 190180. 6346.66   1
   0  -1 -13 142940. 5874.02   2
  -1   1  13 212675. 6173.03   1
   0   1  13 209309. 6479.58   1
  -1   1 -13 232017. 6484.73   1
   1   0  13 233635. 6712.93   1
   0   1  14 392467. 9386.82   1
   1   1  15 222.348 317.953   1
  -1  -1 -15 538.942 457.501   2
  -1  -1 -15 478.161 383.309   1
  -1  -1 -14 13610.2 1889.36   2
   1   1  14 12621.0 1673.64   1
  -1  -1 -14 14840.0 1904.17   1
   1   1  13-320.111 386.547   1
  -1  -1 -13-423.450 508.162   1
  -1  -1 -13-104.089 330.334   2
  -1  -1 -11 10.4132 228.332   1
  -2   1  11-79.6691 197.766   1
   1   1  11 430.192 428.733   1
  -1  -1 -11-18.6296 504.011   2
  -1   2 -11-116.921 199.044   1
   2  -1 -11-60.0782 179.406   1
   1  -2  11 82.5471 128.841   1
  -1   2 -10 115499. 3505.30   1
  -1  -1 -10 100506. 4353.50   1
  -1  -1 -10 95844.6 4816.64   2
   2  -1 -10 75561.8 2503.07   2
  -2   1  10 119341. 3800.55   1
   1  -2  10 116941. 3538.86   1
   2  -1 -10 99750.6 3545.48   1
   1   1  10 124393. 4648.14   1
   1   1   9 106.824 268.152   1
   2  -1  -9-80.4956 118.077   2
  -2   1   9-199.518 271.235   1
   2  -1  -9-104.433 192.368   1
   1  -2   9 180.725 132.651   1
  -1  -1  -9 230.222 259.376   2
  -1  -1  -9 221.474 254.405   1
   2  -1  -7-103.975 235.112   1
   2  -1  -7 26.7038 72.9796   2
   1  -2   7 125.020 149.319   1
  -1   2  -7-87.4502 188.500   1
  -1  -1  -7-126.556 241.828   1
  -2   1   7 18.4028 174.647   1
   1   1   7-97.6046 199.107   1
   2  -1  -6 4494.84 337.347   2
   1   1   6 7000.48 941.122   1
  -2   1   6 6541.39 722.652   1
   2  -1  -6 6133.35 709.930   1
   1  -2   6 6962.42 664.957   1
  -1  -1  -6 5230.65 817.505   1
  -1  -1  -5-69.2853 221.308   1
  -1  -1  -5 130.273 246.903   2
   1   1   5 121.206 212.896   1
   1  -2   5 70.0781 112.090   1
   2  -1  -5 131.160 158.491   1
  -1   2  -5 131.789 153.789   1
  -2   1   5 38.2003 170.566   1
   1  -2   5 382.546 273.133   2
  -1  -1  -3 184.143 214.293   1
   1   1   3-81.9224 223.366   1
   2  -1  -3 189.164 173.179   1
   1  -2   3-103.580 281.364   2
   1  -2   3 331.883 191.782   1
   2  -1  -3 318.390 100.691   2
  -2   1   3 50.0573 222.547   1
  -1  -1  -3 336.279 248.269   2
  -1   2  -3 312.721 154.437   1
  -2   1   1 81.1393 174.960   1
   1   1   1 195.428 159.327   1
   1  -2   1 418.213 241.373   2
   1  -2   1 575.680 245.891   1
  -1   2  -1-46.9104 156.037   1
   2  -1  -1-40.9271 227.391   1
  -1  -1  -1 3.52711 212.471   2
  -1  -1  -1 60.1468 180.310   1
   1  -2  -1 159.691 197.079   2
  -1  -1   1-456.100 180.220   1
  -2   1  -1 201.690 179.749   1
   2  -1   1 1035.23 290.050   1
   1   1  -1 54.4964 124.137   1
   1  -2  -1 334.040 228.455   1
  -1  -1   1 249.511 158.839   2
  -1   2   1 434.542 261.616   1
   2  -1   3 77.7825 239.547   1
   1  -2  -3-157.219 160.411   2
  -2   1  -3-96.3612 188.300   1
  -1  -1   3 592.239 189.848   2
  -1   2   3-197.265 244.442   1
   1  -2  -3 124.613 244.060   1
   1  -2  -5 153.821 192.268   1
   2  -1   5-7.38638 239.930   1
   1  -2  -5 99.1456 153.903   2
  -1   2   5 917.977 351.822   1
  -1  -1   5 216.849 191.342   2
  -2   1  -5 339.868 253.744   1
   2  -1   6 29093.4 1753.33   1
  -1   2   6 26152.5 1706.74   1
   1  -2  -6 29625.6 1677.10   2
  -2   1  -6 30114.9 1847.15   1
   1  -2  -6 28760.8 1824.41   1
   1  -2  -7 106.049 177.539   1
   2  -1   7-19.4883 212.350   1
  -2   1  -7 47.6693 300.668   1
   1  -2  -7-23.1462 177.697   2
  -1   2   7 86.7490 292.413   1
  -2   1  -9 408.628 233.026   1
   1   1  -9 456.318 151.731   1
   2  -1   9 428.561 351.256   1
  -1  -1   9-8.04689 74.2348   1
   1  -2  -9-6.84849 308.951   1
   1  -2  -9 173.991 336.552   2
  -1   2   9 121.083 346.297   1
  -1   2  10 291174. 6965.67   1
   2  -1  10 284500. 6925.58   1
  -2   1 -10 280060. 6951.69   1
   2  -1  11-163.497 367.019   1
  -1   2  11 264.107 293.085   1
   1  -2 -11-51.8890 241.680   2
   1  -2 -11 111.282 308.387   1
  -2   1 -11 389.499 300.784   1
   1  -2 -13-133.897 402.756   2
   1  -2 -13-279.319 388.635   1
   2  -1  13 326.784 311.276   1
  -2   1 -13-103.502 317.174   1
  -1   2  13 350.373 389.874   1
   1  -2 -14 42550.1 3136.82   1
  -1   2  14 53317.1 3374.05   1
   2  -1  14 48714.0 3145.71   1
  -2   1 -14 44273.0 3070.70   1
   1  -2 -15-175.299 279.195   1
  -2   0   1 165731. 3383.46   1
   2   0   1 172266. 3874.86   1
   0   2   7 240111. 5846.66   1
   2  -2  -7 160221. 3845.59   2
  -2   0  -7 221678. 5753.48   1
   0  -2  -7 196863. 5380.30   2
   2  -2  -7 195794. 5125.96   1
  -2   2  -7 192492. 4744.33   1
   0  -2  -7 198199. 5547.80   1
   2   0   7 222978. 5663.59   1
   2  -2   7 210006. 5042.64   1
  -2   2   7 218531. 5226.89   1
   0  -2   8 8665.28 494.597   1
   2  -2   8 7876.94 985.110   1
   2   0   8 8132.89 1118.06   1
   0  -2  -8 7284.96 1035.57   2
  -2   2  -8 8967.92 1085.99   1
  -2   2   8 9255.61 1028.05   1
  -2   0   8 8104.03 706.620   1
   0   2  -8 7280.16 495.934   1
  -2   0  -8 8784.08 1155.00   1
   0   2   8 8106.30 1086.20   1
   2  -2  -8 7936.70 844.345   2
   2   0  -8 9213.00 778.069   1
   0  -2  -8 10242.6 1258.47   1
   2  -2  -8 10807.2 1232.02   1
   0  -2  -9 82775.0 3817.46   1
   2  -2  -9 103279. 3219.35   2
   2  -2  -9 130274. 4382.53   1
   0   2   9 124047. 4411.93   1
   0  -2  -9 92111.8 3842.54   2
   2  -2   9 123239. 3953.82   1
  -2   0  -9 130522. 4670.05   1
   2   0  -9 116690. 2976.70   1
  -2   2  -9 105211. 3759.62   1
   0  -2   9 88371.9 1800.00   1
   2   0   9 102377. 4131.68   1
  -2   2   9 116153. 4002.78   1
   0   2  -9 98422.1 2075.72   1
  -2   0   9 106863. 2695.69   1
   0   2  10 460620. 8645.40   1
   2  -2 -10 332270. 7234.84   1
   0  -2 -11 401099. 9412.22   1
  -2   0 -11 448974. 9774.19   1
  -2   0 -12 132288. 5273.86   1
   2  -2  12 145361. 4930.47   1
   0  -2 -12 139236. 5379.55   2
   2   0  12 143625. 5375.91   1
   0   2  12 142826. 5362.08   1
  -2   2  12 146846. 5104.60   1
  -2   2 -12 141467. 5009.98   1
   0  -2 -13 181808. 6541.81   2
  -2   2  13 250095. 6895.05   1
   0  -2 -13 147043. 5920.84   1
   2   0  13 189087. 6475.18   1
  -2   0 -13 182009. 6520.82   1
   2  -2 -13 245039. 7109.23   1
  -2   2 -13 207161. 6276.53   1
   0   2  13 195402. 6588.36   1
   0   2  14 337887. 9035.09   1
   0  -2 -14 269858. 8276.00   2
  -2   0 -14 311587. 8848.74   1
   2   0  14 332130. 8941.28   1
   0  -2 -14 277848. 8491.15   1
   0   2  15 5386.99 1140.56   1
   0  -2 -15 7783.52 1481.02   1
  -2   0 -15 7545.97 1433.22   1
   2   0  15 4951.81 1052.80   1
   0  -2 -16 5672.06 1327.94   1
  -2   0 -16 2944.19 1006.47   2
  -1  -2 -17 229757. 8535.22   1
  -2  -1 -17 112254. 6218.09   2
  -1  -2 -16 1212.26 454.684   2
  -2  -1 -16 113.749 636.512   2
   2   1  16-319.200 496.611   1
  -2  -1 -16-406.596 486.114   1
   1   2  16 467.564 477.607   1
  -1  -2 -16 373.785 617.236   1
   1   2  15 252641. 8357.38   1
  -1  -2 -15 329920. 9774.53   1
  -2  -1 -15 256219. 9264.14   2
  -1  -2 -15 312226. 9707.33   2
   2   1  15 350243. 9739.63   1
  -2  -1 -15 295525. 9386.12   1
  -2  -1 -14 141042. 6090.13   1
  -1  -2 -14 132577. 6011.59   2
   2   1  14 162042. 6370.20   1
  -2  -1 -14 156167. 6827.30   2
   1   2  14 174421. 6523.14   1
  -1  -2 -14 136433. 6010.46   1
   1   2  13 36729.9 2880.71   1
  -2  -1 -13 41841.3 3205.12   1
   2   1  13 33466.7 2719.68   1
  -1  -2 -13 33803.2 2954.65   2
  -2  -1 -13 42788.7 3498.77   2
  -1  -2 -13 42396.4 3237.56   1
  -1  -2 -12 3597.29 965.951   1
  -2  -1 -12 3574.01 1075.97   2
   3  -2 -12 3151.88 743.969   1
  -1  -2 -12 3801.18 993.330   2
  -3   2  12 2988.05 671.505   1
   2   1  12 5866.04 1136.71   1
  -2  -1 -12 3663.60 918.977   1
   1   2  12 5499.89 1111.71   1
   2   1  11 6851.60 1180.79   1
  -2  -1 -11 7993.67 1417.03   2
  -1  -2 -11 8908.68 1422.87   2
  -2   3 -11 9522.93 1148.01   1
   1   2  11 5107.74 1045.66   1
  -2  -1 -11 6099.77 1141.25   1
  -1  -2 -11 9425.20 1363.71   1
  -3   2  11 9554.07 1192.54   1
   2  -3  11 6837.46 962.644   1
   3  -2 -11 5604.01 933.217   1
   3  -1 -11 9168.50 1091.34   1
   2   1   9 149134. 5172.01   1
   2  -3   9 146975. 4173.34   1
  -2   3  -9 138008. 4135.59   1
  -2  -1  -9 136726. 5543.36   2
   3  -1  -9 121048. 3890.65   1
   1  -3   9 137356. 3269.62   1
  -1  -2  -9 137073. 5186.04   1
  -2  -1  -9 155805. 5412.76   1
  -3   1   9 178520. 4429.98   1
  -1  -2  -9 132696. 5215.16   2
   1   2   9 173785. 5596.35   1
  -1   3  -9 137215. 3352.02   1
   3  -2  -9 84072.9 2286.87   2
   3  -2  -9 144798. 4643.59   1
  -3   2   9 125501. 4288.35   1
  -1  -2  -7 425131. 9004.38   2
  -2  -1  -7 444347. 9033.17   1
   3  -1  -2 164322. 4190.56   1
   2  -3   2 224504. 4747.07   1
  -3   1   2 186727. 4424.43   1
  -3   2   2 265969. 5426.49   1
   1  -3   2 213784. 4900.15   2
  -2  -1  -2 227898. 5119.72   1
  -1  -2  -2 205155. 4852.00   1
   2  -3   0 1552.96 409.700   2
  -3   1   0 1847.79 484.051   1
   3  -1   0 2191.00 511.073   1
   2  -3   0 1584.92 443.311   1
   3  -2   0 1737.55 473.967   1
  -3   2   0 1203.93 416.155   1
   1   2   0 1641.58 357.794   1
  -2  -1   0 1138.38 344.546   2
  -1  -2   0 1617.12 382.883   1
   2   1   0 1335.03 353.581   1
  -2   3   0 1559.67 403.935   1
   1  -3   0 1260.36 407.107   2
  -2  -1   0 1694.81 350.393   1
  -1  -2   0 1767.12 385.286   2
   1  -3   0 1597.63 440.501   1
   1   2  -3 74011.7 1916.38   1
   2  -3  -3 65262.2 2531.94   2
  -1   3   3 66925.1 2739.68   1
   3  -2   3 70710.2 2837.53   1
  -1  -2   3 61748.2 2332.16   2
  -3   1  -3 71749.2 2940.00   1
  -2   3   3 78449.2 3038.15   1
  -2  -1   3 63715.9 1904.21   1
   2  -3  -3 73836.3 2911.19   1
   1  -3  -3 66246.8 2723.82   2
   2   1  -3 71255.1 2002.18   1
  -1  -2   3 77902.2 1924.61   1
   3  -1   3 72529.9 2907.60   1
   1  -3  -3 71718.2 2927.11   1
  -2  -1   3 73626.5 2185.79   2
  -3   2  -3 70773.5 2891.15   1
  -1   3   8 46752.6 2770.93   1
   1  -3  -8 59701.3 3167.02   1
   3  -1   8 69745.3 3376.44   1
  -1  -2   8 59719.0 2626.01   2
   3  -2   8 71422.9 3257.92   1
  -3   2  -8 61968.7 3070.28   1
  -3   1  -8 58975.3 3142.81   1
   1  -3  -8 53256.9 2902.69   2
   2  -3  -8 62825.0 2926.70   2
  -2   3   8 66462.6 3238.11   1
  -3   1 -10 351339. 8541.56   1
  -1   3  10 285177. 7632.64   1
  -2   3  10 354497. 8288.83   1
   2  -3 -10 320468. 8150.69   1
   1  -3 -10 315048. 8295.47   1
   3  -2  10 377828. 8418.57   1
   1  -3 -10 339774. 8178.36   2
   3  -1  10 367193. 8485.63   1
   2  -3 -10 353595. 7708.30   2
   1  -3 -11 148283. 5647.68   1
   3  -1  11 108537. 4650.87   1
  -2   3  11 123871. 4867.39   1
   2  -3 -11 91140.6 4323.08   1
   1  -3 -11 115830. 4744.22   2
  -3   1 -11 108099. 4699.39   1
  -1   3  11 112315. 4721.13   1
   2  -3 -11 108552. 4208.88   2
   3  -2  11 122534. 4752.86   1
  -3   2 -11 122669. 4891.90   1
   3  -2  12 1282.50 511.043   1
  -3   2 -12 1386.71 526.394   1
  -3   1 -12 1653.12 600.111   1
   1  -3 -12 1342.42 476.748   2
  -2   3  12 1335.13 565.292   1
   3  -1  12 1793.74 692.091   1
   1  -3 -12 2091.80 739.616   1
   2  -3 -12 2553.21 834.269   1
   2  -3 -12 1477.25 528.086   2
  -1   3  12 1232.51 519.772   1
  -3   2 -13 33971.0 2767.70   1
  -2   3  13 43826.8 3098.40   1
   3  -1  13 42394.0 3053.82   1
   2  -3 -13 41050.6 3090.76   1
   3  -2  13 44928.4 3054.39   1
  -3   1 -13 37530.8 2991.34   1
  -1   3  13 53067.8 3440.02   1
   1  -3 -13 41114.7 3016.78   2
  -3   1 -14 283891. 8739.10   1
  -2   3  14 197899. 7085.57   1
   3  -1  14 320035. 8835.64   1
  -3   2 -14 261030. 7986.38   1
   2  -3 -14 245327. 8013.64   1
   1  -3 -14 235821. 8067.30   1
  -3   1 -15 54541.9 3795.79   1
   2  -3 -15 68082.2 4210.85   1
   3  -1  15 55840.6 3749.73   1
  -1   3  15 52156.0 3677.81   1
   1  -3 -15 69403.2 4342.57   1
   1  -3 -16 217392. 8097.87   1
   3  -3  -1 2488.76 542.165   2
  -3   0  -1 2416.05 488.491   1
   0  -3   1 3013.55 600.861   2
  -3   0   1 2957.37 519.359   1
   0  -3  -1 2414.62 515.702   1
   0   3   1 2000.89 498.816   1
   3   0  -1 3033.47 525.624   1
  -3   3  -1 2264.66 574.143   1
   0  -3  -1 2166.22 527.520   2
   0  -3   1 2744.11 554.512   1
  -3   3   1 2048.55 568.725   1
   3   0   1 2359.13 554.650   1
   3  -3   1 3252.06 652.118   2
   0   3  -1 1778.98 391.099   1
  -3   3   2 39349.7 2187.66   1
   3  -3   2 51488.3 2434.31   1
  -3   0   2 57109.2 2218.12   1
   3   0   2 54357.5 2591.02   1
   0  -3  -2 49987.0 2455.67   1
   0   3  -2 44931.7 1920.87   1
   0   3   2 48910.3 2333.81   1
   3   0  -2 55107.4 2255.88   1
   0  -3   2 47075.7 1979.31   1
   3  -3   2 61505.6 2791.01   2
   0  -3   2 52270.1 2383.24   2
  -3   0  -2 44546.5 2302.98   1
   3  -3  -2 56574.5 2583.40   1
  -3   0   2 49183.3 1886.24   2
   0  -3  -2 47190.3 2402.92   2
   3  -3  -2 56254.6 2322.31   2
  -3   3  -2 49036.3 2390.84   1
   0   3   3 49154.1 2438.25   1
  -3   0  -3 40829.0 2298.05   1
   3  -3  -3 48060.3 2444.38   1
   0  -3   3 58112.2 2524.51   2
   3  -3   3 50617.4 2678.07   2
  -3   0   3 54579.3 2132.88   1
   0  -3  -3 52895.6 2586.45   1
   3  -3  -3 53544.7 2220.47   2
   0   3  -3 50967.2 1858.95   1
   3   0   3 50344.2 2564.39   1
  -3   3   3 40057.2 2258.01   1
  -3   3  -3 58783.7 2645.28   1
   0  -3  -3 54106.9 2580.74   2
   3  -3   3 57846.1 2603.64   1
  -3   0   3 47539.2 1653.83   2
   0  -3   3 54858.5 1943.81   1
   3   0  -3 39900.5 1859.82   1
   0   3  -5 22341.5 1021.97   1
   3  -3   5 24213.3 1726.51   1
   0   3   5 25835.7 1899.24   1
  -3   0   5 19998.2 713.534   2
   0  -3  -5 22565.2 1830.69   2
   3   0  -5 25755.7 1399.69   1
  -3   3  -5 21574.8 1684.15   1
   0  -3   5 19681.2 974.824   1
   3   0   5 25484.0 1967.85   1
  -3   0  -5 23630.8 1898.90   1
   0  -3  -5 26321.8 2006.00   1
  -3   0   5 26246.6 1393.48   1
  -3   3   5 21476.7 1714.33   1
   3  -3  -5 22969.9 1753.55   1
   3  -3  -5 23508.5 1527.28   2
   0  -3   5 29387.9 1863.08   2
   3   0   6 3821.91 847.917   1
  -3   0  -6 3645.34 851.017   1
   0  -3   6 3650.05 733.117   2
   0   3  -6 4012.89 401.448   1
   3  -3   6 5028.19 845.570   1
  -3   0   6 5473.23 630.950   1
  -3   3  -6 3921.20 727.196   1
   0   3   6 4055.35 816.031   1
  -3   3   6 3593.89 788.484   1
   0  -3   6 4719.58 405.196   1
   3   0  -6 4783.77 600.218   1
   3  -3  -6 2595.39 588.486   2
   0  -3  -6 4104.29 833.782   1
   0  -3  -6 3962.65 805.851   2
   3  -3  -6 3139.62 729.789   1
   3   0  -7 25705.5 1370.54   1
   0  -3  -7 20386.5 1837.09   2
   3   0   7 24795.1 1953.94   1
   3  -3   7 24859.7 1806.80   1
   3  -3  -7 23251.0 1895.31   1
  -3   3  -7 23212.2 1794.61   1
   3  -3  -7 22630.6 1472.00   2
  -3   0  -7 23063.3 1929.84   1
   0   3   7 25280.6 2002.11   1
   0  -3  -7 18517.0 1816.53   1
  -3   0   7 26948.2 1370.98   1
  -3   3   7 28871.7 2060.20   1
   0  -3   7 23442.1 1830.95   2
  -3   3   9 14056.6 1531.90   1
  -3   0   9 16513.5 1080.74   1
   0  -3  -9 16333.5 1768.50   1
   0   3   9 18964.8 1793.79   1
   3  -3   9 21090.2 1804.36   1
   3  -3  -9 15747.8 1282.30   2
   3   0   9 16145.1 1730.58   1
  -3   0  -9 14539.7 1713.12   1
   3  -3  -9 18160.3 1728.40   1
   0  -3  -9 18329.6 1901.46   2
  -3   3  -9 15307.1 1536.28   1
   3   0  -9 11180.0 918.650   1
   3  -3 -10 1811.29 612.330   1
  -3   0 -10 834.624 469.562   1
   0   3  10 1712.45 655.098   1
   0  -3 -10 1325.56 623.457   2
  -3   3 -10 1904.62 583.756   1
   0  -3 -10 2769.02 768.700   1
   3   0  10 1964.90 757.917   1
   3  -3 -10 1759.65 414.648   2
  -3   3  10 1836.40 681.349   1
   3   0  11 1908.10 626.292   1
   3  -3  11 3059.66 809.925   1
   0  -3 -11 761.038 258.159   2
   0  -3 -11 2005.59 752.894   1
  -3   3 -11 2046.21 579.475   1
  -3   3  11 2121.20 654.689   1
   3  -3 -11 2015.57 653.473   1
   0   3  11 2083.98 681.448   1
  -3   0 -11 2282.84 790.136   1
   0   3  12 559824. 11896.3   1
   3  -3 -13 498.773 356.307   1
   3   0  13 876.438 586.234   1
   0  -3 -13 210.666 288.468   1
   0   3  13 312.763 319.851   1
  -3   3  13 80.7532 275.091   1
  -3   0 -13 81.2376 342.836   1
   0  -3 -13 126.233 314.432   2
   3  -3 -14 851.591 527.967   1
   0   3  14 106.039 302.640   1
   0  -3 -14 383.409 360.059   1
   0  -3 -14 360.262 465.904   2
  -3   0 -14 988.907 692.160   1
   3   0  14 90.0910 439.826   1
   0  -3 -15 676.413 591.135   2
  -3   0 -15 594.157 355.336   1
   3   0  15 396.901 349.306   1
   0   3  15 677.371 455.354   1
   3   0  16 419853. 11395.8   1
  -3   0 -16 380275. 11870.8   2
   0   3  16 450959. 11713.8   1
  -3   0 -16 477402. 12325.4   1
   0  -3 -16 403712. 11558.1   1
  -3   0 -17 1081.19 768.918   2
   0  -3 -17 682.292 558.302   1
  -3   0 -18 76.7211 619.656   2
   2   2  17 206.688 340.285   1
  -2  -2 -17 104.294 497.196   2
  -2  -2 -17-181.152 359.464   1
  -2  -2 -16 662304. 15237.0   2
  -2  -2 -16 515769. 13359.6   1
   2   2  15 293.823 502.440   1
  -2  -2 -15 183.090 439.315   2
  -2  -2 -15 321.612 451.661   1
  -2  -2 -14 154412. 6794.66   2
  -2  -2 -14 171399. 7098.06   1
   2   2  14 157337. 6514.43   1
   2   2  13-131.840 260.337   1
  -2  -2 -13 424.370 554.348   1
  -2  -2 -13 316.506 287.964   2
  -2  -2 -12 170264. 6566.07   1
  -2  -2 -12 160586. 6632.92   2
  -2  -2 -11 83.5282 348.747   1
   4  -2 -11 50.0669 251.344   1
  -4   2  11-212.782 315.247   1
   2   2  11 310.230 431.746   1
  -2  -2 -10 416786. 9930.24   1
  -2  -2 -10 435392. 10642.9   2
   2   2  10 428344. 9966.58   1
  -2   4  -9 688.798 303.589   1
  -2  -2  -9-158.392 379.678   2
   2  -4   9-62.8524 131.567   1
  -2  -2  -9 537.070 481.656   1
  -4   2   9 106.918 245.304   1
   2   2   9-368.996 378.168   1
   2   2   7-60.4267 336.718   1
   2  -4   7-525.059 530.227   2
  -4   2   7 49.3507 219.945   1
  -2   4  -7 41.7851 185.957   1
  -2  -2  -7 714.387 595.213   1
  -2  -2  -7 839.420 587.011   2
   4  -2  -7-5.66993 213.629   1
   2  -4   7 581.654 308.758   1
   2   2   6 2612.85 665.252   1
  -2  -2  -6 3599.53 910.861   2
  -4   2   6 3104.33 638.732   1
   2  -4   6 4856.03 915.064   2
  -2   4  -6 2546.37 571.749   1
  -2  -2  -6 3613.31 844.667   1
   4  -2  -6 2873.64 652.676   1
   2  -4   6 2613.89 532.117   1
  -2   4  -5 195.920 282.855   1
   2  -4   5 86.4442 186.780   1
  -2  -2  -5-160.743 441.071   1
   2   2   5-237.372 455.335   1
  -4   2   5-32.8079 190.845   1
   2  -4   5 521.582 486.204   2
  -2  -2  -5 383.094 462.835   2
   4  -2  -5-80.6448 197.169   1
   2  -4   3-140.161 286.537   2
   2  -4   3 363.402 266.818   1
   2   2   3-175.051 345.668   1
  -2  -2  -3 222.401 339.287   2
  -2   4  -3 176.018 190.107   1
  -2  -2  -3-561.356 428.011   1
  -4   2   3 319.438 314.540   1
   4  -2  -3 42.0031 277.522   1
  -2  -2  -1 669.228 385.713   2
   4  -2  -1 108.146 328.999   1
   2  -4   1-165.387 305.728   2
  -2  -2  -1 32.8066 270.173   1
   2  -4   1 113.589 174.513   1
   2   2   1-19.6119 218.877   1
  -2   4  -1 337.171 378.102   1
  -4   2   1-35.3066 264.797   1
   2   2  -1 211.905 208.011   1
  -2   4   1 570.893 317.261   1
  -2  -2   1 916.926 300.924   1
  -2  -2   1 624.418 340.776   2
   2  -4  -1 277.462 269.768   1
  -4   2  -1 112.669 255.427   1
   4  -2   1 1322.68 425.219   1
   2  -4  -1 126.961 227.217   2
   2  -4  -3 161.158 231.235   1
  -2   4   3-66.9650 311.453   1
  -2  -2   3 302.297 247.193   2
  -4   2  -3-199.846 259.790   1
  -2  -2   3 330.403 229.828   1
   4  -2   3 46.6377 238.218   1
   2  -4  -3 116.436 340.123   2
   2   2  -3 15.1533 158.918   1
  -4   2  -5-53.4989 247.301   1
   2   2  -5 7.55358 70.6359   1
   4  -2   5 495.415 427.591   1
  -2  -2   5 529.695 158.750   1
   2  -4  -5 87.9723 260.677   2
  -2  -2   5 245.545 227.973   2
  -2   4   5-124.138 262.984   1
   2  -4  -5-138.969 341.772   1
   4  -2   6 6431.05 994.016   1
  -2   4   6 7279.01 1113.84   1
  -4   2  -6 6940.46 1096.60   1
   2  -4  -6 8491.75 1098.44   2
   2  -4  -6 8587.38 1248.48   1
  -2  -2   6 5578.39 746.592   2
  -2  -2   7 53.7442 171.519   2
  -4   2  -7 546.638 431.363   1
   2  -4  -7-377.214 357.080   1
  -2   4   7 429.863 362.193   1
   4  -2   7 630.222 428.615   1
   2  -4  -7-35.3219 275.449   2
   4  -2   9 83.9552 223.837   1
   2  -4  -9-132.023 214.698   2
  -2   4   9 286.597 427.457   1
   2  -4  -9-296.396 282.162   1
  -4   2  -9-159.478 361.857   1
   2  -4 -10 264264. 7869.23   1
  -2   4  10 333129. 8455.86   1
   2  -4 -10 312338. 8045.35   2
  -4   2 -10 298084. 8148.28   1
   4  -2  10 294491. 7993.19   1
  -4   2 -11-564.979 467.967   1
  -2   4  11-2.16553 249.766   1
   4  -2  11 149.175 313.172   1
   2  -4 -11 507.593 279.617   1
   2  -4 -11-94.3496 337.779   2
   4  -2  12 119716. 5198.07   1
  -2   4  12 119302. 5235.33   1
   2  -4 -12 136780. 5812.97   1
  -4   2 -12 127858. 5527.14   1
   2  -4 -12 131501. 5483.38   2
   2  -4 -13-10.4544 340.118   1
   4  -2  13-154.520 276.427   1
  -2   4  13 143.262 334.581   1
  -4   2 -13-4.14703 458.656   1
   2  -4 -14 80452.0 4780.88   1
   4  -2  14 94232.4 5002.93   1
  -4   2 -14 81456.1 4673.18   1
  -4   2 -15 118.969 428.305   1
  -2   4  15-283.914 338.623   1
   2  -4 -15 122.456 454.216   1
   2  -4 -16 596258. 14318.1   1
  -3  -1 -18 176834. 8254.53   2
  -1  -3 -18 248313. 9383.06   1
  -1  -3 -17 24213.5 2791.44   1
  -3  -1 -17 23140.2 2910.06   2
  -3  -1 -17 28324.0 3088.92   1
   3   1  17 24942.2 2767.22   1
   1   3  17 27864.2 2996.51   1
  -1  -3 -16 3397.76 1104.24   1
   1   3  16 3005.92 979.964   1
  -3  -1 -16 3450.75 1058.77   1
  -3  -1 -16 3630.63 1226.62   2
  -1  -3 -16 3329.69 1096.91   2
   3   1  16 2698.24 835.143   1
   3   1  15 240527. 8540.40   1
   1   3  15 288995. 9217.40   1
  -3  -1 -15 306875. 9661.59   1
  -1  -3 -15 267645. 9205.76   2
  -3  -1 -15 278644. 9860.18   2
  -1  -3 -15 312528. 9736.54   1
  -3  -1 -14 131487. 6130.60   1
  -1  -3 -14 147005. 6536.45   2
   1   3  14 180508. 6921.54   1
   3   1  14 156439. 6537.55   1
  -3  -1 -14 158047. 7188.34   2
  -1  -3 -14 164387. 6815.48   1
  -3  -1 -13 328919. 10266.1   2
   3   1  13 325122. 9502.10   1
   1   3  13 389031. 10053.1   1
  -1  -3 -13 370190. 10324.3   2
  -3  -1 -13 387940. 10292.6   1
  -4   3  12 35547.2 2692.36   1
   1   3  12 27600.0 2547.46   1
   4  -3 -12 32085.6 2616.44   1
  -3  -1 -12 32008.1 3050.12   2
  -1  -3 -12 30154.7 2747.31   1
  -1  -3 -12 30798.8 2969.11   2
   3   1  12 36435.9 2930.04   1
  -3  -1 -12 32569.9 2850.41   1
   3  -4  11 20266.1 1825.25   1
  -3  -1 -11 24556.3 2647.49   2
  -3  -1 -11 20152.1 2250.70   1
  -4   3  11 21516.7 2016.47   1
  -3   4 -11 20883.0 1837.41   1
   4  -3 -11 17773.6 1839.54   1
  -1  -3 -11 19375.5 2193.04   2
   3   1  11 17098.1 1991.80   1
  -1  -3 -11 17687.6 2070.73   1
   1   3  11 23476.7 2251.89   1
  -3  -1 -10 999999. 17926.8   2
   3   1   9 25278.5 2229.89   1
  -1  -3  -9 22090.7 2141.02   2
  -3  -1  -9 20529.3 2147.79   1
  -4   3   9 23921.2 1971.63   1
  -1  -3  -9 23046.4 2227.15   1
   3  -4   9 23290.1 1844.73   1
   4  -1  -9 22031.9 1637.45   1
  -4   1   9 21200.8 1584.98   1
   1  -4   9 22543.1 2071.44   2
  -3  -1  -9 24703.2 2540.97   2
   1   3   9 21413.3 2088.92   1
  -3   4  -9 23130.3 1909.52   1
   4  -3  -9 18436.7 1780.79   1
  -3  -1  -8 437455. 9881.81   1
  -1  -3  -8 344072. 8873.82   1
  -3  -1  -8 396960. 9991.00   2
  -1  -3  -8 435426. 9771.74   2
   3  -4   8 444643. 8660.09   1
   1   3   8 365626. 8871.02   1
   4  -3  -8 437648. 9244.63   1
  -1  -3  -4 38854.3 2490.88   2
   1  -4   4 49613.4 2196.76   1
  -1   4  -4 37576.8 1904.45   1
   1   3   4 35552.4 2311.93   1
  -4   1   4 46933.7 2365.72   1
   3   1   4 34642.6 2337.80   1
  -1  -3  -4 38293.2 2481.48   1
   3  -4   4 45335.0 2727.78   2
  -3  -1  -4 48403.6 2899.04   2
   4  -3  -4 33733.4 2258.74   1
   1  -4   4 37884.1 2373.02   2
   4  -3  -4 39964.0 1931.12   2
  -3   4  -4 36200.1 2249.30   1
  -3  -1  -4 29180.4 2194.74   1
   3  -4   4 33681.9 2104.97   1
  -4   3   4 38054.5 2315.78   1
   4  -1  -4 50762.6 2421.58   1
  -3  -1  -3 523518. 10197.1   2
  -4   1   0 142044. 4331.75   1
   1  -4   0 130717. 4099.93   1
   3   1   0 81618.2 3300.81   1
   3  -4   0 136867. 4384.43   1
   4  -3   0 111603. 4026.06   1
  -1  -3   0 124901. 4198.15   2
  -3  -1   0 166225. 4466.61   1
  -3   4   0 135604. 4302.60   1
  -1  -3   0 133221. 4058.91   1
   3  -4   0 133863. 4353.69   2
   4  -1   0 148799. 4477.33   1
   4  -3   0 145358. 4419.24   2
   1  -4   0 130114. 4334.39   2
   1   3   0 126460. 3865.92   1
  -3  -1   0 144221. 4184.78   2
  -4   3   0 133362. 4390.31   1
  -1   4   0 123597. 3932.68   1
  -1   4   3 106192. 3971.56   1
  -1  -3   3 88654.0 2749.94   1
   1  -4  -3 103405. 3968.94   2
  -4   3  -3 102832. 3994.56   1
   3  -4  -3 109717. 3739.65   2
  -1  -3   3 123160. 3902.20   2
   1   3  -3 89578.2 2866.45   1
  -3  -1   3 106704. 3151.91   1
   1  -4  -3 104914. 4048.72   1
  -4   1  -3 117823. 4207.18   1
   4  -3   3 115151. 4021.44   1
   3   1  -3 117077. 3345.20   1
  -3  -1   3 100634. 3038.94   2
   3  -4  -3 99120.1 3797.28   1
   4  -1   3 110952. 4074.73   1
  -3   4   3 103566. 3910.18   1
   3  -4  -4 501766. 9481.52   1
   1  -4  -5 78409.9 3585.86   2
   3  -4  -5 76427.0 3535.62   1
   3   1  -5 89751.9 2580.43   1
  -3  -1   5 57565.8 2110.98   2
  -4   1  -5 77117.0 3520.76   1
   3  -4  -5 72314.6 3115.48   2
  -1  -3   5 71237.6 2961.09   2
  -3   4   5 104524. 4103.76   1
   4  -1   5 77212.1 3565.85   1
   1   3  -5 74100.9 2012.00   1
   4  -3   5 69334.5 3275.89   1
   1  -4  -5 70402.3 3456.88   1
  -1   4   5 78625.8 3576.29   1
  -1  -3   5 82277.3 2041.00   1
  -3  -1   5 76858.0 2353.10   1
  -4   3  -5 78006.3 3529.68   1
   3  -4  -7 463658. 9619.82   1
  -4   1  -7 439241. 9567.00   1
   1  -4  -7 449607. 9774.28   1
  -4   3  -8 21623.4 2016.12   1
  -3   4   8 19602.2 1910.66   1
  -1   4   8 17435.5 1819.40   1
   3  -4  -8 17068.4 1769.28   1
   3  -4  -8 14288.8 1458.93   2
  -4   1  -8 12488.5 1611.23   1
   1  -4  -8 15995.1 1703.56   2
   4  -3   8 17968.8 1697.76   1
   4  -1   8 16651.3 1788.53   1
  -1  -3   8 20819.0 1702.94   2
   1  -4  -8 18538.7 1893.77   1
   4  -1  10 250450. 7456.31   1
  -4   3 -10 278222. 7525.72   1
   3  -4 -10 225769. 6303.15   2
   4  -3  10 246934. 7106.38   1
  -4   1 -10 253410. 7681.59   1
   1  -4 -10 234826. 7372.99   1
   1  -4 -10 255377. 7533.79   2
   3  -4 -10 287759. 7890.88   1
  -3   4  10 186407. 6487.53   1
  -1   4  10 203919. 6700.98   1
  -3   4  11 210821. 7109.41   1
   1  -4 -11 263588. 8175.92   1
   3  -4 -11 297567. 8279.79   1
  -1   4  11 373049. 9228.84   1
   3  -4 -11 281446. 7279.39   2
  -4   3 -11 285088. 8018.52   1
   1  -4 -11 296773. 8389.27   2
   4  -1  11 282398. 8195.39   1
  -4   1 -11 299816. 8648.53   1
   4  -3  11 305134. 8061.75   1
  -3   4  12 16803.5 1978.74   1
   4  -3  12 15059.2 1819.71   1
  -1   4  12 9012.78 1430.58   1
   3  -4 -12 19731.0 2138.61   1
  -4   1 -12 13625.5 1835.15   1
   1  -4 -12 10569.2 1635.50   1
   1  -4 -12 12935.6 1768.63   2
  -4   3 -12 13182.7 1743.93   1
   4  -1  12 12450.8 1714.40   1
  -4   1 -13 17200.2 2062.33   1
  -4   3 -13 15390.0 1861.19   1
   1  -4 -13 16838.8 2166.05   1
   4  -1  13 18196.7 2139.06   1
   1  -4 -13 15662.8 2007.71   2
   3  -4 -13 20102.7 2172.46   1
  -1   4  13 17581.4 2045.82   1
   4  -3  13 14166.2 1805.37   1
  -3   4  13 21567.8 2330.42   1
  -3   4  14 575606. 12840.1   1
  -4   3 -14 539252. 12316.8   1
  -1   4  14 668920. 13809.9   1
  -4   1 -14 454679. 11887.8   1
   3  -4 -14 570881. 12942.2   1
   1  -4 -14 448463. 12051.8   1
   4  -1  14 530592. 12516.4   1
   1  -4 -14 549227. 12929.6   2
  -1   4  15 51277.2 3847.41   1
   4  -1  15 49794.4 3742.99   1
  -4   1 -15 58858.6 4133.92   1
  -1   4  16 83193.1 5032.66   1
   1  -4 -16 88014.4 5356.08   1
   1  -4 -17 130091. 6586.81   1
  -4   4   0 109118. 4144.12   1
   4  -4   0 124375. 4379.89   1
   0  -4   0 125983. 4412.45   2
  -4   0   0 147652. 4545.91   1
   0   4   0 107945. 3810.68   1
   4   0   0 98606.8 3802.68   1
   4  -4   0 110800. 4104.43   2
   0  -4   0 126862. 4117.77   1
   4  -4  -4 262349. 6110.36   2
   4  -4   4 247135. 6530.40   1
   4   0   4 286936. 7155.96   1
   0  -4  -4 292952. 7234.86   1
  -4   0  -4 297832. 7260.02   1
   0  -4   4 208964. 5922.23   2
   0  -4  -4 291212. 7264.69   2
  -4   4   4 217044. 6219.56   1
  -4   0   4 260881. 5734.52   1
   4   0  -4 326875. 6475.85   1
  -4   4  -4 288143. 7146.50   1
   0   4   4 276926. 6939.73   1
   4  -4  -4 255359. 6819.06   1
   4   0  -5 203571. 4922.86   1
   0  -4  -5 196524. 6047.24   1
   4  -4  -5 153630. 5270.46   1
   0  -4   5 195785. 5600.99   2
  -4   0  -5 226049. 6422.94   1
  -4   4  -5 183998. 5739.21   1
   0   4   5 195012. 5879.58   1
   0   4  -5 219468. 4489.24   1
  -4   0   5 202695. 4847.25   1
   4  -4  -5 158508. 4741.98   2
   0  -4  -5 201784. 6140.44   2
   4  -4   5 174611. 5418.59   1
   4   0   5 199783. 6101.67   1
  -4   4   5 252166. 6609.13   1
   4   0  -6 92901.6 3147.96   1
  -4   4  -6 98642.7 4117.98   1
   4  -4  -6 89891.5 4010.08   1
   0  -4   6 86626.8 2419.32   1
   4   0   6 90455.5 4203.75   1
  -4   0   6 97285.7 3176.39   1
   0   4   6 77369.5 3764.59   1
   0  -4  -6 91094.5 4158.88   2
   0  -4   6 91299.8 3852.34   2
   4  -4   6 82678.2 3699.06   1
  -4   0  -6 96203.7 4290.50   1
  -4   4   6 103664. 4239.56   1
   4  -4  -6 80130.0 3168.52   2
   0  -4  -6 60023.9 3500.88   1
   0   4  -6 91967.6 2575.48   1
   4  -4   7 8949.43 1180.55   1
   0   4   7 6679.69 1099.05   1
   4   0   7 10094.8 1441.10   1
  -4   4   7 9056.50 1289.01   1
   0  -4   7 8198.23 1199.39   2
  -4   0  -7 7283.10 1280.69   1
   4  -4  -7 8170.26 1289.18   1
   0  -4  -7 9025.13 1312.47   2
  -4   0   7 8820.08 916.583   1
   0   4  -7 7300.70 629.865   1
  -4   4  -7 7857.80 1171.47   1
   4  -4  -7 7359.08 969.199   2
   4   0  -7 9188.01 972.649   1
   0  -4  -7 9456.03 1383.78   1
   0   4   8 5079.13 1006.38   1
  -4   0  -8 5238.37 1054.86   1
   4  -4  -8 4913.93 998.085   1
   0  -4  -8 4461.73 974.974   2
   4   0   8 6430.54 1111.34   1
   4   0  -8 5414.67 724.488   1
   0  -4  -8 5215.42 1118.22   1
  -4   4   8 3286.14 876.740   1
  -4   0   8 6332.26 744.021   1
   4  -4  -8 5852.01 866.392   2
  -4   4  -8 5583.93 979.438   1
   4  -4   8 5292.83 900.755   1
   0  -4   8 5755.59 951.324   2
  -4   4  -9 118791. 4804.87   1
   4  -4  -9 128264. 4101.30   2
   0  -4  -9 117600. 5091.19   1
   0  -4   9 105995. 4689.17   2
   4  -4  -9 93976.4 4405.41   1
   4  -4   9 124665. 4773.74   1
   0   4   9 145983. 5573.29   1
  -4   0  -9 106125. 4940.38   1
   4   0   9 135804. 5353.82   1
   0  -4  -9 111807. 4978.30   2
  -4   4   9 119394. 4918.02   1
   0  -4 -10 711731. 13957.0   2
   0  -4 -10 681809. 13687.2   1
   0  -4 -11 606846. 12809.4   1
   4  -4  11 514014. 10871.1   1
   0   4  11 479263. 11291.4   1
  -4   0 -11 578039. 12415.3   1
   4   0  11 440769. 11189.3   1
  -4   4  11 548004. 11652.5   1
   0  -4 -11 560533. 12377.4   2
  -4   4 -12 161066. 6059.97   1
  -4   0 -12 159093. 6480.54   1
   0   4  12 151200. 6183.20   1
   4  -4  12 145727. 5640.86   1
  -4   4  12 157507. 6129.36   1
   0  -4 -12 156848. 6508.63   1
   4  -4 -12 181358. 6558.46   1
   4   0  12 189692. 6933.26   1
   0  -4 -12 164193. 6576.44   2
   4  -4 -13 339915. 9549.93   1
  -4   4  13 394453. 10196.6   1
  -4   0 -13 361730. 10295.1   1
   0  -4 -13 387826. 10723.5   2
   4   0  13 326309. 9658.63   1
   0   4  13 424110. 10740.7   1
   0  -4 -13 305977. 9491.64   1
   4  -4 -14 653155. 13898.5   1
   0  -4 -14 615466. 14036.0   1
   0   4  14 607019. 13636.7   1
  -4   0 -14 557631. 13523.8   1
   0  -4 -14 527317. 13371.9   2
   4   0  14 639532. 13927.2   1
  -4   0 -15 47319.7 3747.89   1
   0  -4 -15 60594.0 4406.77   2
   0  -4 -15 69670.9 4637.75   1
   4   0  15 53079.1 3950.42   1
  -4   0 -15 67651.4 4772.44   2
   0   4  15 56552.5 4038.60   1
  -4   0 -16 4346.60 1181.01   1
   0   4  16 4223.34 1158.50   1
   4   0  16 4743.58 1224.04   1
  -4   0 -16 3495.54 1075.79   2
   0  -4 -16 2134.96 838.597   1
  -4   0 -17 16399.9 2301.53   1
   4   0  17 14439.2 2133.40   1
  -4   0 -17 14082.2 2354.13   2
   0  -4 -17 11148.0 1979.16   1
   0   4  17 18057.6 2417.55   1
  -4   0 -18 27857.1 3297.60   2
   0  -4 -18 32783.1 3373.65   1
  -4   0 -19 24776.7 3134.20   2
   3   2  18 144228. 7068.21   1
   2   3  18 138224. 7016.10   1
  -2  -3 -18 146372. 7264.43   1
  -3  -2 -18 126757. 6767.10   1
  -2  -3 -17 66762.3 4797.86   1
  -3  -2 -17 81272.1 5211.26   1
   3   2  17 72302.8 4890.85   1
   2   3  17 65351.3 4589.65   1
  -3  -2 -17 68928.0 4927.01   2
  -2  -3 -17 59582.3 4667.54   2
  -3  -2 -16 48360.0 3942.45   1
  -2  -3 -16 39978.4 3582.76   1
  -2  -3 -16 46726.2 4099.32   2
   2   3  16 53630.2 3999.54   1
   3   2  16 47948.1 3836.07   1
  -3  -2 -16 48120.4 4088.33   2
  -3  -2 -15 29956.3 3090.73   1
  -3  -2 -15 36551.4 3472.57   2
  -2  -3 -15 38571.0 3436.57   1
   3   2  15 37839.4 3340.63   1
  -2  -3 -15 36603.6 3506.12   2
   2   3  15 31620.8 2968.51   1
  -2  -3 -14 296723. 9838.23   2
  -3  -2 -14 326744. 10099.6   1
  -2  -3 -14 307832. 9827.84   1
   2   3  14 286841. 9257.60   1
  -3  -2 -14 318763. 10162.5   2
  -2  -3 -13 36862.8 3188.92   1
   3   2  13 37565.6 3207.09   1
  -2  -3 -13 38878.1 3320.84   2
  -3  -2 -13 44009.8 3526.08   1
  -3  -2 -13 37629.0 3367.36   2
   2   3  13 39539.6 3193.40   1
   3   2  12 9163.64 1588.17   1
   2   3  12 11923.0 1762.67   1
  -2  -3 -12 10544.5 1698.63   2
  -3  -2 -12 10979.1 1724.34   1
  -2  -3 -12 10522.3 1636.48   1
  -3  -2 -12 10882.7 1799.96   2
   3   2  11 231650. 7776.87   1
  -2  -3 -11 215994. 7731.05   2
  -3  -2 -11 237488. 8436.14   2
   2   3  11 232039. 7704.81   1
   5  -3 -11 289476. 8025.46   1
  -5   3  11 251081. 7190.89   1
  -2  -3 -11 199167. 7412.53   1
  -3  -2 -11 248111. 8118.33   1
  -5   3  10 415947. 9285.03   1
  -3  -2 -10 383733. 10060.8   1
   5  -2 -10 405201. 8815.68   1
   2   3  10 332304. 9174.76   1
  -3  -2 -10 360771. 10140.5   2
  -5   2  10 408937. 8736.02   1
   5  -3 -10 335946. 8747.25   1
  -3   5 -10 376549. 8394.14   1
   3   2  10 395737. 10027.5   1
  -2  -3 -10 421498. 10486.6   2
  -2  -3 -10 318121. 9201.62   1
  -3  -2  -9 497081. 11472.8   2
  -2  -3  -9 444740. 10594.6   2
  -3  -2  -9 366054. 9743.60   1
  -2  -3  -9 394863. 10082.3   1
   2   3   9 329151. 9085.42   1
   2  -5   9 376051. 9701.24   2
   5  -3  -9 460675. 9924.60   1
   3   2   9 440228. 10410.4   1
  -2  -3  -8 68816.5 3990.62   2
   2  -5   8 95108.1 4602.87   2
  -2   5  -8 83571.3 3343.56   1
  -5   2   8 114348. 4274.74   1
   3   2   8 71220.7 3917.51   1
   5  -2  -8 84537.9 3751.63   1
   5  -3  -8 82257.0 3948.40   1
  -3  -2  -8 85603.6 4376.70   1
   3  -5   8 109636. 4160.71   1
   2   3   8 67291.7 3870.63   1
   3  -5   8 75293.8 4154.47   2
  -3  -2  -8 92085.2 4710.11   2
  -3   5  -8 93473.4 3957.08   1
   2  -5   8 90127.2 3402.80   1
  -2  -3  -8 71955.4 4037.39   1
  -5   3   8 99087.4 4185.44   1
  -2  -3  -7 348763. 8840.61   2
   3  -5   7 360821. 9110.61   2
   5  -3  -7 249220. 7049.15   1
  -3  -2  -7 423750. 9986.09   2
   2  -5   7 309032. 8277.98   2
   5  -2  -7 280428. 7160.01   1
   2   3   7 320308. 8411.82   1
  -5   3   7 259731. 7152.81   1
  -3   5  -7 325956. 7562.92   1
   3  -5   7 363473. 7658.94   1
  -3  -2  -7 397963. 9359.32   1
  -2  -3  -7 278576. 7997.94   1
   3   2   7 314333. 8368.34   1
  -3  -2  -5 475413. 10273.6   2
  -2  -3  -5 461294. 9831.52   1
   5  -2  -5 363234. 8168.26   1
  -3   5  -5 382013. 8284.19   1
  -3  -2  -5 419260. 9427.84   1
   2   3   5 443457. 9751.35   1
  -2  -3  -5 408204. 9426.78   2
  -2  -3  -4 250850. 6943.21   1
   3  -5   4 262068. 6484.87   1
   5  -3  -4 219347. 6251.55   1
   3  -5   4 283020. 7629.57   2
  -3  -2  -4 229450. 6756.93   1
  -3   5  -4 268385. 6738.69   1
   3   2   4 297174. 7575.10   1
   5  -2  -4 364723. 7837.43   1
  -2  -3  -4 340542. 8354.11   2
   2  -5   4 281093. 7336.12   2
  -3  -2  -4 261049. 7224.79   2
   2   3   4 275222. 7322.93   1
  -5   3   4 271065. 6903.94   1
  -2   5  -4 274361. 6496.09   1
  -5   2   4 277811. 6874.31   1
   2  -5   4 265075. 6239.16   1
   2   3   3 267287. 7073.29   1
   5  -2  -3 292093. 7023.77   1
  -2  -3  -3 281513. 7305.61   2
   5  -3  -3 294479. 7176.93   1
   3  -5   3 247588. 6934.04   2
  -3   5  -3 277635. 6751.22   1
  -2   5  -3 319266. 6981.27   1
   3  -5   3 270145. 6669.49   1
  -3  -2  -3 363649. 8215.35   2
   3   2   3 251356. 6979.66   1
   2  -5   3 295828. 6716.70   1
   2  -5   3 322527. 7722.28   2
  -5   3   3 287752. 7091.48   1
  -5   2   3 228729. 6405.29   1
  -3  -2  -3 346247. 7869.74   1
  -2  -3  -3 242843. 6697.91   1
   5  -2  -1 117163. 4434.41   1
  -2  -3  -1 145533. 4927.77   2
   3  -5   1 157028. 4992.43   1
   2   3   1 132149. 4527.93   1
  -2  -3  -1 154254. 4877.62   1
  -5   3   1 132771. 4725.20   1
   2  -5   1 148244. 4676.06   1
   3   2   1 116097. 4312.24   1
  -3   5  -1 149843. 4936.51   1
  -5   2   1 147652. 4947.75   1
   3  -5   1 155677. 5236.34   2
   2  -5   1 139982. 4896.70   2
  -3  -2  -1 147693. 4810.19   1
  -3  -2  -1 149273. 4906.72   2
  -2   5  -1 141159. 4693.85   1
   5  -3  -1 138394. 4835.79   1
   3   2   0 48860.7 2668.26   1
   5  -2   0 59982.3 3039.26   1
  -5   3   0 50306.2 2958.77   1
  -3  -2   0 52147.7 2779.30   2
   3  -5   0 52311.6 2943.42   2
   2  -5   0 50422.1 2789.85   1
   2  -5   0 55062.3 3051.03   2
  -3   5   0 50847.6 2823.75   1
  -3  -2   0 41703.9 2411.88   1
   2   3   0 47665.5 2604.90   1
  -2  -3   0 54195.0 2725.65   1
  -5   2   0 44494.9 2664.61   1
   5  -3   0 48687.9 2824.85   1
  -2   5   0 52281.1 2883.15   1
   3  -5   0 56385.3 2992.57   1
  -2  -3   0 48029.2 2725.31   2
   5  -3   1 308946. 7465.85   1
  -2  -3   1 365571. 7832.24   2
   5  -2   1 413909. 8572.27   1
   3  -5  -1 326335. 7668.10   2
   2  -5  -1 333246. 7556.28   1
  -2   5   1 312708. 7469.26   1
  -2  -3   1 344469. 7040.17   1
   3   2  -1 400309. 7724.61   1
   2  -5  -1 325101. 7793.92   2
   2   3  -1 323125. 6927.96   1
  -3   5   1 320074. 7618.36   1
   3  -5  -1 335292. 7678.24   1
  -5   3  -1 268655. 7235.63   1
  -3   5   3 583665. 10952.1   1
  -3   5   4 111144. 4477.69   1
  -3  -2   4 100622. 3227.58   1
  -5   3  -4 122272. 4772.63   1
  -2  -3   4 107438. 3862.89   2
   3   2  -4 118176. 3541.60   1
   3  -5  -4 101616. 4319.90   1
   2   3  -4 111382. 3204.02   1
  -5   2  -4 104318. 4392.04   1
   5  -2   4 97872.2 4277.28   1
   5  -3   4 133096. 4890.63   1
  -2   5   4 98251.5 4210.26   1
   2  -5  -4 114173. 4559.60   1
   2  -5  -4 90718.8 4137.86   2
  -3  -2   4 129528. 3973.15   2
   3  -5  -4 107480. 4277.92   2
  -2  -3   4 105091. 3127.80   1
  -3   5   7 475745. 10386.8   1
  -5   3  -7 465758. 10479.3   1
   5  -3   8 74591.8 3987.65   1
   2  -5  -8 76978.0 4108.49   1
   3  -5  -8 78093.7 3846.64   2
  -3   5   8 75750.1 4003.25   1
  -2   5   8 80712.5 4129.08   1
  -5   3  -8 71357.9 3906.11   1
  -2  -3   8 90056.0 3535.99   2
  -5   2  -8 65817.5 3737.24   1
   5  -2   8 76880.3 4059.74   1
   3  -5  -8 73552.3 3924.41   1
   2  -5  -8 80699.9 4061.53   2
   2  -5  -9 108914. 4952.76   1
   5  -2   9 89075.8 4448.54   1
   2  -5  -9 96447.5 4599.14   2
   3  -5  -9 95014.6 4341.37   2
  -5   3  -9 103501. 4646.80   1
  -2   5   9 103444. 4732.18   1
  -5   2  -9 94959.9 4609.83   1
   5  -3   9 103386. 4766.28   1
   3  -5  -9 93274.5 4613.83   1
  -3   5   9 97336.7 4672.35   1
   2  -5 -10 515725. 11493.3   2
  -2   5  10 505266. 11362.1   1
   5  -2  10 565776. 12037.6   1
   3  -5 -10 439401. 10859.1   1
  -3   5  10 617769. 12309.8   1
  -5   3 -10 504403. 11242.8   1
   3  -5 -10 476288. 10610.4   2
   2  -5 -10 572032. 12319.4   1
  -5   2 -10 465568. 11118.3   1
   5  -2  11 39214.7 3131.14   1
   2  -5 -11 46361.6 3350.25   2
   2  -5 -11 33144.1 2901.05   1
   5  -3  11 41480.0 3087.46   1
  -5   2 -11 45997.8 3326.54   1
  -5   3 -11 37887.3 3006.44   1
   3  -5 -11 46452.4 3371.88   1
  -2   5  11 41997.0 3192.67   1
   3  -5 -11 46681.6 3159.81   2
  -3   5  11 42135.5 3114.17   1
  -2   5  12 57798.7 3780.07   1
  -3   5  12 61781.7 4010.22   1
  -5   3 -12 77115.4 4391.76   1
  -5   2 -12 66317.9 4181.67   1
   5  -2  12 66288.6 4064.77   1
   3  -5 -12 65244.3 4074.21   1
   2  -5 -12 71235.5 4342.33   1
   5  -3  12 72582.7 4216.24   1
   2  -5 -12 73473.0 4445.56   2
  -2   5  13 165746. 6634.20   1
   5  -2  13 141192. 6156.93   1
  -5   3 -13 166582. 6693.43   1
   3  -5 -13 132103. 6064.35   1
  -3   5  13 155677. 6488.15   1
   2  -5 -13 120490. 5919.42   1
  -5   2 -13 151812. 6512.10   1
   2  -5 -13 130342. 6028.69   2
   5  -3  13 143831. 6137.89   1
  -5   3 -14 199277. 7615.54   1
   2  -5 -14 242319. 8623.35   1
   5  -2  14 205535. 7789.62   1
  -2   5  14 215335. 7864.91   1
  -3   5  14 251621. 8580.14   1
   5  -3  14 232372. 8034.60   1
   3  -5 -14 207309. 7833.42   1
  -5   2 -14 191644. 7563.62   1
   3  -5 -15 161355. 6992.29   1
   5  -2  15 132221. 6397.96   1
  -2   5  15 144367. 6579.29   1
  -3   5  15 144270. 6637.04   1
  -5   2 -15 115017. 5998.92   1
  -5   3 -15 121470. 6086.48   1
   2  -5 -15 109054. 5917.25   1
  -3   5  16 13605.5 2058.97   1
  -2   5  16 10791.8 1756.11   1
  -5   2 -16 11125.1 1905.08   1
   3  -5 -16 9917.39 1731.58   1
   2  -5 -16 10996.8 1902.62   1
   2  -5 -17 42758.3 3850.19   1
  -4  -1 -19 681.387 688.084   2
  -1  -4 -18 3980.22 1224.77   1
   1   4  18 3815.88 1182.34   1
  -4  -1 -18 2934.13 1093.81   1
  -4  -1 -18 3211.61 1065.29   2
   4   1  18 3601.16 1119.46   1
  -1  -4 -17 2559.76 952.568   1
   4   1  17 1481.41 823.525   1
  -4  -1 -17 2074.29 978.560   2
  -4  -1 -17 819.269 576.449   1
   1   4  17 2227.82 754.862   1
   4   1  16 156836. 7132.72   1
  -4  -1 -16 160434. 7326.90   1
  -1  -4 -16 169564. 7646.89   2
  -4  -1 -16 162358. 7761.85   2
  -1  -4 -16 157630. 7179.45   1
   1   4  16 139843. 6780.83   1
   1   4  15 2320.13 783.951   1
   4   1  15 1521.52 810.633   1
  -1  -4 -15 1054.00 621.991   1
  -4  -1 -15 2474.29 1078.28   2
  -1  -4 -15 682.223 497.081   2
  -4  -1 -15 942.228 629.766   1
  -1  -4 -14 5250.63 1394.59   2
  -4  -1 -14 6957.50 1590.30   2
  -4  -1 -14 5027.46 1286.03   1
   1   4  14 3790.20 1038.07   1
   4   1  14 7307.82 1435.33   1
  -1  -4 -14 5782.76 1350.20   1
  -4  -1 -13 202.004 432.890   1
  -4  -1 -13-139.068 413.913   2
   5  -4 -13 112.972 293.396   1
  -1  -4 -13 104.447 303.548   1
   1   4  13 325.411 599.246   1
   4   1  13 731.049 575.162   1
  -1  -4 -13-709.992 644.039   2
  -1  -4 -11 1141.02 737.628   2
  -4  -1 -11 1829.08 763.219   2
   4  -5  11 1639.08 548.385   1
   5  -4 -11 1579.88 504.259   1
  -1  -4 -11 2726.49 917.625   1
  -4   5 -11 1531.04 611.549   1
   4   1  11 1691.62 560.259   1
   1   4  11 2285.06 884.497   1
  -5   4  11 1215.30 597.060   1
  -4  -1 -11 1776.63 958.980   1
  -1  -4 -10 11012.3 1600.60   1
   5  -4 -10 10467.3 1545.20   1
   1  -5  10 8807.65 1478.15   2
  -1  -4 -10 10016.5 1554.52   2
   4   1  10 10391.8 1611.02   1
  -4   5 -10 11067.5 1495.62   1
  -4  -1 -10 10072.5 1647.02   1
  -4  -1 -10 11389.0 1852.66   2
   1   4  10 9648.88 1497.43   1
  -5   4  10 10752.3 1541.57   1
   4  -5  10 8135.94 1224.58   1
  -4   5  -9 14380.4 1627.10   1
  -5   4   9 18426.1 1935.78   1
   1  -5   9 13456.5 1752.46   2
   4   1   9 11591.7 1683.74   1
   4  -5   9 13426.3 1517.40   1
  -4  -1  -9 12882.7 1711.17   1
   5  -4  -9 16163.7 1887.97   1
   5  -1  -9 15122.1 1459.75   1
   1   4   9 12232.5 1605.66   1
  -4  -1  -9 15386.4 2051.37   2
  -1  -4  -9 12792.0 1782.73   1
  -1  -4  -9 12490.1 1784.90   2
   1  -5   8 453645. 10294.3   2
  -1  -4  -8 509848. 11066.3   1
  -1  -4  -8 488277. 10958.4   2
   4   1   8 401393. 9926.35   1
   1   4   8 416893. 9935.16   1
  -5   1   8 337796. 7760.81   1
  -5   4   8 408699. 9459.59   1
  -4  -1  -8 472153. 11388.0   2
   5  -4  -8 387961. 9626.48   1
  -4  -1  -8 408089. 10044.0   1
   1   4   7 6254.43 1184.96   1
   1  -5   7 7475.98 881.801   1
   5  -4  -7 6181.94 886.367   2
  -1  -4  -7 6477.97 1235.26   1
   5  -4  -7 6416.86 1197.36   1
   5  -1  -7 7503.53 1032.21   1
  -1   5  -7 7896.34 941.681   1
   1  -5   7 7301.52 1195.27   2
  -5   4   7 10985.5 1394.98   1
  -5   1   7 9691.51 1151.78   1
   4   1   7 7025.41 1258.05   1
  -1  -4  -7 7703.50 1294.39   2
  -4  -1  -7 6473.97 1246.30   1
  -4  -1  -7 6333.07 1282.99   2
   4  -5   7 8406.26 1231.36   1
  -4   5  -7 9418.17 1307.44   1
  -1  -4  -6 38145.5 2845.80   2
  -4  -1  -6 42220.0 3115.14   2
   5  -1  -6 30660.9 2155.16   1
  -5   1   6 47831.3 2637.57   1
   4  -5   6 34541.0 2445.31   1
   5  -4  -6 46129.3 2375.61   2
   1   4   6 40526.3 2819.20   1
   1  -5   6 36783.2 2019.72   1
   1  -5   6 40895.5 2826.17   2
  -4   5  -6 44671.4 2864.79   1
  -1   5  -6 38582.7 2100.87   1
  -4  -1  -6 45612.3 2990.31   1
  -5   4   6 38443.7 2700.71   1
   4   1   6 40386.3 2813.29   1
   4  -5   6 47778.1 3187.29   2
  -1  -4  -6 42240.6 2959.71   1
  -1   5  -5 68814.7 2902.66   1
   1  -5   5 53778.7 2554.42   1
  -1  -4  -5 59734.5 3370.81   1
  -4  -1  -5 54620.0 3456.27   2
  -5   1   5 29071.6 1526.69   2
   4  -5   5 49172.8 2854.65   1
   4   1   5 50846.1 3073.54   1
  -1  -4  -5 58692.6 3372.93   2
  -5   4   5 62462.8 3356.95   1
   1  -5   5 46197.7 2916.26   2
  -4  -1  -5 55135.0 3272.36   1
  -5   1   5 87374.9 3599.89   1
   5  -4  -5 47238.3 2946.08   1
   1   4   5 47352.1 3031.78   1
   5  -1  -5 67953.5 3178.23   1
   4  -5   5 54717.6 3477.96   2
   5  -4  -5 42797.4 2477.49   2
  -4   5  -5 53713.9 3131.93   1
  -1   5  -3 5823.83 869.282   1
   1  -5   3 5724.62 870.555   1
   5  -4  -3 5523.59 1021.20   1
   5  -4  -3 3632.17 751.633   2
   5  -1  -3 4882.66 832.287   1
  -4  -1  -3 5974.50 1120.18   1
   1   4   3 5599.31 973.021   1
   4   1   3 5881.43 1046.02   1
  -4   5  -3 6616.01 1006.79   1
   4  -5   3 5494.20 1080.94   2
   1  -5   3 5627.33 1006.46   2
  -5   1   3 8485.13 1106.89   1
  -4  -1  -3 6193.23 1143.48   2
  -5   4   3 5956.44 1077.99   1
  -1  -4  -3 6457.94 1067.07   2
   4  -5   3 6421.88 977.652   1
  -1  -4  -3 5919.59 1005.58   1
  -4  -1  -2 70708.7 3525.71   1
   5  -1  -2 83518.5 3592.53   1
   1  -5   2 84645.6 3445.65   1
  -5   4   2 70989.4 3575.25   1
   4   1   2 66178.3 3428.11   1
  -1  -4  -2 85744.2 3809.45   1
  -5   1   2 86893.4 3692.10   1
   4  -5   2 86868.3 4067.47   2
  -4  -1  -2 91336.2 4089.78   2
   5  -4  -2 101048. 4195.14   1
   1   4   2 80451.0 3667.78   1
   5  -4  -2 88699.0 3720.36   2
   4  -5   2 98275.0 3979.07   1
  -1   5  -2 85539.5 3486.47   1
  -1  -4  -2 97668.3 4242.54   2
  -4   5  -2 81535.2 3710.00   1
   1  -5   2 83176.6 3841.72   2
   5  -4  -1 138.443 305.240   1
   5  -1  -1-65.8156 363.387   1
  -5   1   1 125.342 321.399   1
  -5   4   1 435.361 554.222   1
   4   1   1 177.102 307.718   1
   1   4   1 208.806 289.468   1
  -4   5  -1 518.525 498.982   1
   4  -5   1 1130.15 477.442   1
   5  -4  -1 122.013 305.991   2
  -1  -4  -1 430.565 343.668   1
  -4  -1  -1-75.0601 336.431   2
  -1  -4  -1 9.54825 243.585   2
   1  -5   1 584.707 526.427   2
  -1   5  -1 479.908 358.507   1
   1  -5   1 319.991 342.776   1
  -4  -1  -1 711.527 355.762   1
   4  -5   1 201.167 336.625   2
   1   4  -1 24216.1 1844.28   1
   4  -5  -1 24921.1 2136.18   1
  -1   5   1 24405.6 2001.72   1
   1  -5  -1 23886.9 2082.07   2
   1  -5  -1 19104.3 1819.75   1
  -4  -1   1 30341.4 2044.91   1
   5  -4   1 27223.2 2185.57   1
   4   1  -1 25385.6 1921.94   1
  -1  -4   1 27001.6 1889.88   1
   5  -1   1 18504.3 1791.75   1
  -5   1  -1 24835.5 2045.52   1
  -1  -4   1 21765.7 1873.38   2
  -4   5   1 26818.0 2124.43   1
  -4  -1   1 25371.1 1853.76   2
  -5   4  -1 24367.0 2065.17   1
   4  -5  -1 25445.9 2071.24   2
   1  -5  -2 225575. 6394.38   1
  -1   5   2 192216. 5840.44   1
   1  -5  -2 219579. 6413.78   2
  -4  -1   2 157671. 4814.74   1
   4  -5  -2 215612. 6080.91   2
  -1  -4   2 187586. 5114.10   1
   4  -5  -2 203824. 6201.27   1
   4   1  -2 187967. 5326.78   1
   1   4  -2 208247. 5347.70   1
  -5   1  -2 223630. 6401.04   1
   5  -4   2 210040. 6152.46   1
   5  -1   2 211745. 6201.45   1
  -5   4  -2 206810. 6301.32   1
  -1  -4   2 222584. 6112.18   2
  -4   5   2 188922. 5889.30   1
  -4  -1   2 213185. 5364.37   2
  -1  -4   3 13335.4 1258.96   1
   4  -5  -3 15349.1 1654.13   1
   5  -4   3 16586.1 1714.97   1
  -4  -1   3 17838.4 1440.48   2
   4   1  -3 19737.3 1601.61   1
   1  -5  -3 15503.5 1705.59   1
   4  -5  -3 16377.5 1592.14   2
  -1  -4   3 11781.4 1370.24   2
  -4   5   3 14489.8 1565.12   1
  -1   5   3 13186.8 1467.03   1
   5  -1   3 15004.7 1667.47   1
  -4  -1   3 18629.6 1545.59   1
  -5   4  -3 16727.0 1775.03   1
  -5   1  -3 13857.3 1562.91   1
   1  -5  -3 19160.2 1847.57   2
   1   4  -3 16173.9 1348.89   1
  -4  -1   5 12900.5 1098.89   2
  -1   5   5 11631.7 1503.51   1
   1  -5  -5 10928.7 1495.16   2
   1  -5  -5 9495.92 1429.65   1
   5  -4   5 12024.7 1502.32   1
  -1  -4   5 10734.4 957.802   1
  -5   4  -5 12676.3 1539.74   1
   4  -5  -5 8832.43 1267.61   2
   1   4  -5 10404.8 967.862   1
   4  -5  -5 10388.3 1395.47   1
  -4  -1   5 13931.1 1200.60   1
  -4   5   5 11583.9 1526.24   1
  -5   1  -5 9929.32 1362.09   1
  -1  -4   5 13449.0 1456.21   2
   5  -1   5 12879.2 1599.35   1
   4   1  -5 9702.58 1033.10   1
  -4   5   6 44826.9 2907.07   1
   5  -1   6 49460.1 3099.08   1
   1  -5  -6 41741.8 2874.43   1
  -1   5   6 47467.1 3020.34   1
   5  -4   6 41804.9 2816.09   1
  -1  -4   6 37188.2 1579.28   1
   1  -5  -6 33008.8 2641.14   2
   4  -5  -6 38104.6 2494.32   2
  -4  -1   6 45214.0 2102.59   1
   4  -5  -6 42853.2 2931.97   1
  -1  -4   6 42470.0 2602.27   2
   4   1  -6 44647.6 2146.58   1
   1   4  -6 47648.5 1818.30   1
  -5   4  -6 38255.3 2777.81   1
  -5   1  -6 43238.2 2949.19   1
  -4  -1   6 37938.1 1778.84   2
   4  -5  -7 42056.4 2929.90   1
  -1  -4   7 53652.5 3034.54   2
   4   1  -7 59132.4 2328.15   1
  -4   5   7 44670.7 3045.39   1
   5  -1   7 53739.2 3302.72   1
   1  -5  -7 50219.0 3316.23   1
  -5   1  -7 49399.5 3175.39   1
   1  -5  -7 50290.8 3305.80   2
  -1   5   7 54794.9 3406.69   1
   4  -5  -7 47109.0 2826.80   2
  -5   4  -7 47889.8 3083.03   1
   5  -4   7 48084.5 3067.44   1
  -5   1  -8 509937. 11162.1   1
  -4   5   8 371431. 9568.81   1
   5  -1   8 400109. 10023.2   1
  -1   5   8 478767. 10661.2   1
   4  -5  -8 486633. 10628.0   1
   5  -4   8 485178. 10321.3   1
   1  -5  -8 453603. 10528.3   1
   1  -5  -8 474989. 10893.8   2
  -1  -4   9 4781.68 953.446   2
   1  -5  -9 5267.39 1136.68   2
   5  -4   9 6264.24 1126.16   1
  -4   5   9 4686.57 1015.84   1
  -5   4  -9 5310.35 1081.74   1
   1  -5  -9 5531.02 1205.89   1
   4  -5  -9 3910.07 922.563   1
  -5   1  -9 4818.04 1014.78   1
   5  -1   9 5335.20 1207.07   1
  -1   5   9 4109.64 943.961   1
   4  -5  -9 6151.35 1061.56   2
   1  -5 -10 18419.5 2100.71   2
   5  -1  10 16639.6 2027.46   1
  -1  -4  10 17409.3 1882.66   2
  -5   4 -10 18813.0 2000.42   1
   5  -4  10 13631.0 1758.39   1
   4  -5 -10 17220.6 1768.28   2
   4  -5 -10 14629.7 1845.50   1
  -4   5  10 14336.7 1862.57   1
   1  -5 -10 15980.0 1983.93   1
  -5   1 -10 14913.8 1910.38   1
  -1   5  10 13210.1 1736.37   1
  -1   5  11 5452.66 1166.03   1
   5  -4  11 6791.30 1333.59   1
   4  -5 -11 6430.75 1265.58   1
  -5   4 -11 6321.36 1238.01   1
  -4   5  11 5614.82 1153.88   1
  -5   1 -11 4466.17 1136.43   1
   1  -5 -11 6006.09 1336.62   2
   5  -1  11 5593.62 1223.36   1
   1  -5 -11 5880.08 1206.34   1
  -5   4 -13 112.282 330.115   1
  -1   5  13 58.7672 381.140   1
   5  -1  13-381.648 300.465   1
   1  -5 -13 430.882 450.296   1
  -4   5  13 146.034 366.503   1
   5  -4  13-95.4507 289.347   1
   1  -5 -13 477.015 445.234   2
  -5   1 -13 108.900 413.937   1
   4  -5 -13-583.037 460.876   1
  -1   5  14 16876.1 2151.02   1
   1  -5 -14 14941.3 2132.78   1
   5  -1  14 15700.1 2149.81   1
  -4   5  14 20938.7 2411.93   1
  -5   1 -14 17487.5 2232.87   1
   1  -5 -14 12243.2 2083.94   2
   4  -5 -14 13896.8 2003.33   1
   4  -5 -15 760.711 552.383   1
   5  -1  15 1144.65 493.862   1
   1  -5 -15 1809.72 913.655   1
  -4   5  15 1393.62 721.383   1
  -5   1 -15 990.856 677.270   1
  -1   5  15 1159.55 613.434   1
  -1   5  16 275988. 9579.24   1
   1  -5 -16 269059. 9606.72   1
   5  -1  16 257506. 9278.89   1
  -1   5  17 1024.10 760.850   1
  -5   1 -17 1466.42 693.553   1
   1  -5 -17 920.369 663.756   1
   1  -5 -18 13794.6 2294.40   1
  -5   1 -18 6256.71 1661.47   2
  -5   1 -19 829.661 585.512   2
  -5   5   0 329567. 8189.15   1
   0  -5   0 337656. 7895.70   1
   5   0   0 314965. 7874.77   1
   5  -5   0 357038. 8443.21   2
  -5   0   0 386775. 8363.50   1
   0   5   0 317683. 7623.91   1
   5  -5   0 349673. 8299.85   1
   0  -5   0 358048. 8562.57   2
  -5   0   0 287820. 7658.16   2
   5   0   3 582149. 11471.8   1
   0  -5  -3 600593. 11815.3   2
   5   0  -4 21800.6 1794.18   1
   5  -5  -4 22757.1 1947.80   2
   0  -5  -4 25736.5 2297.29   2
  -5   5  -4 24487.4 2234.93   1
   0   5   4 22508.6 2109.51   1
   5  -5  -4 20336.0 2027.76   1
   0  -5   4 20991.2 1659.91   1
   5   0   4 22874.1 2098.13   1
   5  -5   4 23971.0 2117.76   1
  -5   0   4 18332.3 1677.06   1
   0   5  -4 22141.5 1660.81   1
  -5   5   4 20947.8 2023.83   1
   0  -5   4 28412.2 2234.55   2
  -5   0  -4 23615.4 2189.84   1
  -5   0   4 25705.7 1655.06   2
   0  -5  -4 22560.0 2097.34   1
   0  -5   5 33958.7 2430.34   2
   0   5  -5 37748.9 2130.60   1
   0   5   5 35193.8 2606.90   1
   5  -5  -5 20582.4 2210.45   1
  -5   5   5 31085.3 2467.68   1
  -5   0   5 50420.8 2689.69   1
  -5   0  -5 33759.7 2620.56   1
  -5   5  -5 37289.3 2694.28   1
   0  -5  -5 33590.3 2603.56   1
   5   0   5 27786.6 2353.76   1
   5   0  -5 32057.9 2149.94   1
   5  -5  -5 37497.4 2454.95   2
   0  -5  -5 29264.5 2547.96   2
   0  -5   5 31226.6 1912.79   1
  -5   0   5 31097.4 1678.34   2
   5  -5   5 34258.5 2576.64   1
   5   0  -6 2935.17 643.201   1
   5  -5   6 1855.09 715.649   1
  -5   5   6 2461.72 703.548   1
   5   0   6 3663.89 957.233   1
   5  -5  -6 3294.57 783.569   1
   0  -5   6 3380.29 777.758   2
   0   5  -6 3191.21 584.555   1
   0   5   6 2679.05 766.137   1
   0  -5  -6 2864.72 772.418   2
  -5   0  -6 2694.90 838.521   1
   0  -5  -6 1411.31 602.341   1
  -5   5  -6 3108.46 844.620   1
   5  -5  -6 2836.41 730.470   2
  -5   0   6 2345.39 569.843   1
   0  -5   6 2631.37 513.137   1
  -5   5  -7 1352.61 585.644   1
   0  -5   7 1761.53 645.901   2
   0   5   7 1621.41 610.242   1
   5   0   7 1268.07 649.796   1
   5  -5  -7 2134.96 768.119   1
   5  -5   7 1759.98 586.204   1
  -5   5   7 2950.93 750.812   1
   0  -5  -7 1670.34 678.090   1
   0  -5  -7 1108.20 509.118   2
   5   0  -7 1960.71 508.511   1
   5  -5  -7 1751.32 480.210   2
  -5   0  -7 2154.19 776.038   1
  -5   0   7 2418.75 581.796   1
   0  -5  -8 5828.15 1151.46   1
   5  -5  -8 7033.60 1269.87   1
  -5   0  -8 7014.42 1309.43   1
   0  -5  -8 4746.17 1072.70   2
   5   0   8 5972.18 1238.51   1
   0  -5   8 6223.16 1190.30   2
  -5   5   8 4256.23 950.231   1
   5  -5   8 6173.21 1125.51   1
   0   5   8 5846.97 1220.34   1
  -5   5  -8 4967.60 1085.43   1
   5  -5  -8 7627.45 1101.90   2
  -5   5  -9 160219. 5960.13   1
   0  -5  -9 151535. 6204.40   2
  -5   5   9 178566. 6409.55   1
   0  -5  -9 149233. 6150.61   1
   0   5   9 172002. 6452.18   1
   5   0   9 193926. 6835.36   1
   5  -5  -9 133677. 5803.89   1
   0  -5   9 166763. 6226.72   2
   5  -5   9 128368. 5339.49   1
  -5   0  -9 150558. 6196.71   1
   5   0  10 798433. 15483.7   1
   0   5  10 728692. 14741.1   1
  -5   0 -11 408916. 10972.7   1
   0  -5 -11 431000. 11190.0   1
   5   0  11 446505. 11295.8   1
  -5   5 -11 498843. 11460.0   1
   0   5  11 512600. 11810.8   1
   0  -5 -11 435104. 11340.5   2
   5  -5  11 440343. 10634.8   1
  -5   5  11 346571. 9974.94   1
   5  -5 -11 401584. 10684.1   1
   0  -5  11 374949. 10176.4   2
   5  -5  12 168886. 6513.25   1
   5  -5 -12 178094. 7034.51   1
  -5   0 -12 153259. 6578.97   1
  -5   5  12 158984. 6608.22   1
   5   0  12 136980. 6343.42   1
   0   5  12 163746. 6666.25   1
   0  -5 -12 190177. 7323.99   1
   0  -5 -12 146521. 6567.48   2
  -5   5 -12 152115. 6206.77   1
   0  -5 -13 244695. 8664.37   1
  -5   5  13 225407. 8000.79   1
  -5   0 -13 253825. 8825.57   1
   0   5  13 268895. 8891.05   1
   0  -5 -13 254318. 8924.01   2
   5   0  13 273207. 9046.26   1
   5  -5 -13 249688. 8610.42   1
  -5   0 -14 499844. 12778.9   1
  -5   0 -14 391598. 12217.4   2
   5   0  14 498221. 12696.4   1
   5  -5 -14 541064. 13260.9   1
   0   5  14 406343. 11449.4   1
   0  -5 -14 519467. 13296.0   2
   0  -5 -14 500431. 12921.8   1
  -5   0 -15 48414.5 4192.45   2
   0  -5 -15 58742.5 4656.10   2
   0   5  15 48505.3 3801.80   1
  -5   0 -15 60290.1 4389.29   1
   5   0  15 57547.5 4288.10   1
   0  -5 -15 48096.2 3953.60   1
   5   0  16 5051.58 1266.75   1
   0  -5 -16 6038.67 1452.80   1
  -5   0 -16 4124.77 1381.95   2
  -5   0 -16 6489.40 1452.03   1
   0   5  16 4423.72 1178.62   1
   0  -5 -17 10657.5 1932.24   1
  -5   0 -17 14661.7 2266.34   1
   0   5  17 10198.6 1784.03   1
  -5   0 -17 12833.5 2314.49   2
   5   0  17 11255.3 1916.03   1
   0  -5 -18 14156.3 2191.36   1
  -5   0 -18 7548.66 1804.70   2
  -5   0 -18 13294.0 2151.53   1
   0   5  18 14914.4 2311.67   1
  -5   0 -19 6274.04 1604.94   2
  -3  -3 -19-332.640 502.589   1
  -3  -3 -18 4300.32 1287.98   2
   3   3  18 6840.76 1543.52   1
  -3  -3 -18 7382.42 1588.97   1
  -3  -3 -17-155.243 419.066   1
  -3  -3 -17 204.909 476.436   2
   3   3  17-68.6510 443.258   1
  -3  -3 -16 381828. 11670.8   1
  -3  -3 -16 346249. 11381.2   2
   3   3  16 365810. 11187.4   1
  -3  -3 -15-88.8245 363.691   2
  -3  -3 -15 265.230 358.528   1
   3   3  15 429.605 363.007   1
  -3  -3 -14 265400. 9433.25   2
   3   3  14 253204. 8980.19   1
   3   3  13-446.098 611.457   1
  -3  -3 -13 522.259 574.797   1
  -3  -3 -13 208.244 628.145   2
  -3  -3 -12 309481. 9749.87   1
   3   3  12 351967. 10173.7   1
   3   3  11 102.135 437.072   1
  -3  -3 -11 224.893 412.115   1
  -3  -3 -11 872.291 553.980   2
  -3  -3 -10 782879. 15396.2   2
   3   3  10 628089. 13731.6   1
  -6   3   9 270.196 326.481   1
   3  -6   9-228.885 473.149   2
   3   3   9 549.313 505.574   1
   6  -3  -9 376.499 429.481   1
  -3  -3  -9 38.7109 447.913   1
  -3  -3  -9 442.997 339.678   2
  -3  -3  -7 192.291 375.079   2
   3   3   7 35.4533 465.595   1
  -3   6  -7-217.372 279.344   1
   6  -3  -7 75.2712 273.972   1
  -3  -3  -7 477.712 617.440   1
   3  -6   7 183.443 412.457   2
  -6   3   7 126.101 223.254   1
   6  -3  -6 123462. 5058.90   1
   3   3   6 164686. 6089.69   1
  -6   3   6 130682. 5143.50   1
  -3  -3  -6 128923. 5547.08   2
  -3   6  -6 135388. 4933.71   1
   3  -6   6 154722. 5158.89   1
   3  -6   6 171570. 6244.29   2
  -3  -3  -6 147786. 5774.57   1
  -3   6  -5 1116.00 547.373   1
  -3  -3  -5-8.90541 320.435   2
   3   3   5-477.347 430.259   1
   3  -6   5 535.248 311.326   1
  -3  -3  -5-21.4533 383.774   1
   3  -6   5 1092.38 584.092   2
  -6   3   5 272.893 419.837   1
   6  -3  -5 10.5332 276.571   1
  -3  -3  -3 97.7834 335.838   1
  -3   6  -3 262.536 321.609   1
  -6   3   3 446.425 257.657   1
   6  -3  -3 1068.45 618.365   1
   3  -6   3 146.981 368.071   2
  -3  -3  -3 13.7803 362.292   2
   3   3   3-195.477 464.701   1
  -3   6  -2 385450. 8784.09   1
   3  -6   2 387793. 8827.65   1
  -3  -3  -2 381220. 9015.51   2
  -3  -3  -1-108.480 450.219   2
   3   3   1 36.2919 256.568   1
  -6   3   1 57.3055 484.628   1
  -3  -3  -1 63.6600 224.917   1
  -3   6  -1 470.618 535.550   1
   3  -6   1-121.224 501.842   2
  -6   3   0 229491. 6928.25   1
   3  -6   0 246567. 6790.91   1
   3  -6   0 225264. 6764.87   2
  -3  -3   0 227030. 6507.56   2
  -3   6   0 231449. 6743.14   1
   3   3   0 226008. 6451.80   1
   3  -6  -1 228.877 365.220   1
   3  -6  -1 381.846 369.118   2
  -3  -3   1-247.597 402.539   1
  -3   6   1-102.001 294.129   1
  -3  -3   1 2.32025 317.850   2
   3   3  -1 399.759 439.020   1
   6  -3   1 267.825 372.477   1
  -6   3  -1 413.907 499.891   1
   3  -6  -2 477546. 9966.53   1
  -3   6   2 491429. 10256.4   1
  -3  -3   3-254.059 291.172   2
   3  -6  -3-164.837 465.992   1
   3  -6  -3 15.4650 329.776   2
   3   3  -3-7.07571 241.023   1
  -6   3  -3 1204.94 594.671   1
  -3   6   3-10.7156 309.039   1
  -3  -3   3 113.861 377.868   1
   6  -3   3-31.2485 355.874   1
  -6   3  -5 37.9559 312.773   1
   6  -3   5-162.709 457.301   1
  -3   6   5 320.559 401.356   1
   3  -6  -5-103.608 322.738   1
   3   3  -5 125.130 146.574   1
  -3  -3   5 334.147 288.062   1
  -3  -3   5 131.444 303.189   2
   3  -6  -6 122525. 5331.14   1
  -3  -3   6 145911. 4798.93   2
  -3   6   6 134157. 5555.29   1
  -6   3  -6 158130. 5937.63   1
   3  -6  -6 145483. 5633.49   2
   6  -3   6 143136. 5622.41   1
  -3  -3   7 139.300 245.310   2
   6  -3   7 153.755 311.622   1
  -3   6   7 983.540 566.675   1
   3  -6  -7-344.516 363.224   1
  -6   3  -7 29.3692 302.695   1
  -6   3  -9-119.825 378.759   1
   3  -6  -9 156.263 541.055   2
  -3   6   9-205.660 252.326   1
   6  -3   9 424.040 540.718   1
   3  -6  -9 551.865 670.194   1
  -3   6  10 521104. 12082.9   1
   3  -6 -10 565383. 12681.2   1
  -6   3 -10 517993. 12135.4   1
   3  -6 -10 538243. 12183.7   2
   6  -3  10 557615. 12419.1   1
  -3   6  11-257.203 423.804   1
   3  -6 -11 329.353 269.233   2
   3  -6 -11-323.783 653.794   1
  -6   3 -11 41.6389 309.684   1
   6  -3  11-375.810 608.737   1
   6  -3  12 425997. 11338.9   1
  -3   6  12 429798. 11313.6   1
   3  -6 -12 420332. 10983.9   2
  -6   3 -12 390587. 10967.9   1
   3  -6 -12 409006. 11143.8   1
  -3   6  13-200.698 455.601   1
   3  -6 -13-124.142 611.069   1
  -6   3 -13 359.534 331.807   1
   6  -3  13-36.8491 291.045   1
   3  -6 -14 172927. 7454.59   1
  -6   3 -14 159479. 7137.60   1
   6  -3  14 161859. 7113.78   1
   6  -3  15-269.066 436.299   1
  -6   3 -15-3.27248 257.050   1
  -3   6  15 503.891 569.461   1
   3  -6 -15-546.851 592.375   1
  -3   6  16 221676. 8774.85   1
   3  -6 -16 272417. 9680.29   1
   3  -6 -17 11.9448 324.875   1
  -4  -2 -19 78643.0 5529.49   1
  -2  -4 -19 77715.5 5448.79   1
  -4  -2 -18 82057.9 5598.73   2
  -2  -4 -18 93653.4 5838.53   1
   2   4  18 89678.4 5761.41   1
   4   2  18 91069.4 5756.59   1
  -2  -4 -17 20845.9 2639.64   1
  -4  -2 -17 14900.5 2237.12   2
   2   4  17 14754.7 2281.68   1
  -4  -2 -17 18860.8 2598.26   1
   4   2  17 15078.7 2281.45   1
  -2  -4 -17 16546.4 2526.97   2
  -2  -4 -16 69591.9 5000.04   2
  -2  -4 -16 65876.4 4726.00   1
   2   4  16 68291.2 4731.37   1
   4   2  16 74244.8 4956.39   1
  -4  -2 -16 77334.5 5180.61   1
  -4  -2 -16 64844.6 4779.51   2
  -2  -4 -15 22796.9 2733.11   1
  -4  -2 -15 23872.6 2834.43   2
   2   4  15 24248.7 2654.69   1
  -2  -4 -15 22276.3 2770.05   2
  -4  -2 -15 20820.0 2526.66   1
   4   2  15 28023.5 2877.74   1
   2   4  14 275895. 9134.31   1
   4   2  14 237672. 8767.17   1
  -2  -4 -14 234173. 8750.64   1
  -4  -2 -14 263520. 9148.51   1
  -2  -4 -14 261478. 9384.12   2
  -2  -4 -13 73638.0 4850.92   2
   4   2  13 73176.0 4639.05   1
  -2  -4 -13 60277.5 4272.06   1
  -4  -2 -13 72949.6 4647.77   1
   2   4  13 63455.1 4277.22   1
  -4  -2 -13 75394.5 4852.07   2
  -4  -2 -12 41459.1 3572.45   2
  -2  -4 -12 42020.4 3499.07   2
   4   2  12 39365.4 3340.46   1
  -4  -2 -12 41420.3 3418.90   1
   2   4  12 41177.8 3336.72   1
   6  -4 -12 36997.7 3085.95   1
  -2  -4 -12 31063.9 2959.86   1
  -4  -2 -11 145686. 6632.61   2
  -2  -4 -11 134943. 6330.66   2
  -4  -2 -11 140443. 6188.16   1
  -2  -4 -11 145297. 6363.25   1
   2   4  11 117537. 5555.67   1
   4   2  11 115018. 5657.39   1
   6  -4 -11 147485. 6081.14   1
   2  -6  10 416787. 11018.9   2
  -4  -2 -10 341688. 10225.7   2
  -2  -4 -10 409783. 10890.8   2
   4   2  10 341575. 9811.04   1
   2   4  10 402992. 10461.4   1
  -4  -2 -10 402512. 10631.3   1
  -4   6 -10 408829. 9628.33   1
   6  -4 -10 443764. 10748.5   1
  -6   4  10 397966. 10094.5   1
  -2  -4 -10 315148. 9683.39   1
  -2  -4  -9 377075. 10281.5   2
   2  -6   9 277181. 9136.12   2
   6  -2  -9 253819. 7580.98   1
  -6   4   9 430846. 10049.4   1
   4  -6   9 363449. 8778.34   1
  -6   2   9 338021. 8579.89   1
   2   4   9 316079. 9250.88   1
   6  -4  -9 417087. 10013.4   1
   4   2   9 374172. 9984.28   1
  -4   6  -9 394068. 9433.25   1
  -2  -4  -9 340811. 9825.02   1
  -4  -2  -9 314768. 9296.71   1
  -4  -2  -9 520511. 12095.1   2
   2  -6   8 21685.8 2261.39   2
   6  -2  -8 28359.9 2320.22   1
   4   2   8 21185.5 2283.23   1
  -2  -4  -8 22098.8 2375.14   1
  -4  -2  -8 24018.5 2435.05   1
  -4  -2  -8 30939.1 2762.06   2
  -6   2   8 27322.7 2266.78   1
  -4   6  -8 25710.2 2305.58   1
   4  -6   8 29552.9 2377.13   1
   6  -4  -8 25896.5 2313.13   1
   2   4   8 22621.9 2285.70   1
  -2  -4  -8 22517.8 2429.47   2
   4  -6   8 20949.3 2317.42   2
  -6   4   8 25500.6 2362.05   1
   6  -4  -7 325818. 8581.28   1
  -4  -2  -7 367982. 9810.39   2
  -2   6  -7 291839. 7042.87   1
   4  -6   7 328072. 8129.88   1
   4  -6   7 346864. 9484.45   2
   2   4   7 325416. 8844.41   1
   6  -2  -7 350368. 8350.98   1
   2  -6   7 273436. 6774.45   1
  -6   4   7 260268. 7790.05   1
  -2  -4  -7 273498. 8392.85   1
   4   2   7 286261. 8442.93   1
  -4  -2  -7 298056. 8633.52   1
   2  -6   7 253994. 8014.44   2
  -6   2   7 365658. 8652.25   1
  -4   6  -7 273494. 7794.85   1
  -2  -4  -7 314844. 8896.98   2
   6  -2  -6 489671. 10278.5   1
   4  -6   5 256060. 7107.62   1
  -2  -4  -5 204745. 7024.59   2
   2  -6   5 258965. 7632.30   2
  -6   2   5 202054. 6407.67   1
   6  -2  -5 228351. 6676.67   1
  -4  -2  -5 255733. 7558.68   1
   6  -4  -5 282371. 7633.27   1
   4   2   5 244894. 7481.27   1
  -2  -4  -5 209867. 7061.80   1
  -4   6  -5 232342. 6919.47   1
  -6   4   5 269482. 7544.10   1
   2   4   5 257207. 7504.59   1
   4  -6   5 295461. 8435.64   2
  -4  -2  -5 238624. 7563.00   2
  -2   6  -5 218824. 6127.95   1
   2  -6   5 213070. 6056.64   1
   4  -6   4 691135. 13324.0   2
   6  -4  -4 623515. 12099.0   1
  -4  -2  -3 438523. 9900.19   1
   2  -6   3 469636. 9516.94   1
   6  -4  -3 453020. 10075.7   1
  -2  -4  -3 434630. 9945.32   1
   2   4   3 452817. 9966.37   1
   2  -6   3 394187. 9556.85   2
   6  -2  -3 433409. 9720.55   1
   4   2   3 441505. 10077.6   1
  -4  -2  -3 431365. 9961.59   2
  -6   4   3 521810. 10618.9   1
   4  -6   3 480500. 10666.1   2
  -2  -4  -3 513563. 10837.5   2
  -4   6  -3 452249. 9841.82   1
  -6   2   1 124954. 4890.48   1
   4  -6   1 81581.9 4097.08   2
   2  -6   1 92344.1 4025.54   1
  -2   6  -1 87940.1 3940.11   1
  -2  -4  -1 88343.2 4081.86   1
   4   2   1 83658.8 3953.40   1
  -4   6  -1 87992.5 4053.28   1
  -4  -2  -1 72607.4 3607.24   2
  -4  -2  -1 88595.1 3990.10   1
   6  -4  -1 96529.7 4412.00   1
   2   4   1 70860.6 3613.18   1
   2  -6   1 71799.2 3876.95   2
  -2  -4  -1 82449.9 4026.24   2
   4  -6   1 82644.9 4056.93   1
  -6   4   1 85407.1 4160.51   1
   6  -2  -1 61501.7 3413.84   1
   4  -6   0 2836.48 704.179   1
  -4  -2   0 2392.92 636.927   2
  -2   6   0 3664.80 785.565   1
  -2  -4   0 3366.98 786.791   1
   2   4   0 2673.91 725.202   1
   6  -2   0 3423.87 843.352   1
   2  -6   0 3113.78 763.953   1
  -6   4   0 3712.26 946.629   1
  -2  -4   0 2957.40 749.538   2
   4   2   0 2840.14 777.426   1
  -4  -2   0 3691.98 792.666   1
   2  -6   0 2751.59 797.177   2
   6  -4   0 2376.06 733.154   1
   4  -6   0 3905.10 995.914   2
  -4   6   0 2397.18 665.893   1
  -6   2   0 2281.41 678.513   1
   4  -6  -1 38615.7 2759.53   1
  -6   2  -1 45400.8 2979.59   1
   2  -6  -1 32801.7 2508.31   1
  -2  -4   1 48006.4 2914.00   2
  -2   6   1 38358.3 2703.47   1
  -2  -4   1 39197.7 2497.37   1
  -4  -2   1 41592.4 2613.03   1
  -4   6   1 39136.6 2724.22   1
   4  -6  -1 36666.7 2701.53   2
   2   4  -1 38388.2 2440.37   1
  -4  -2   1 37559.5 2465.09   2
   6  -2   1 35224.8 2599.95   1
  -6   4  -1 44354.4 3038.60   1
   2  -6  -1 34232.7 2656.67   2
   6  -4   1 32518.9 2580.92   1
   4   2  -1 40659.8 2585.98   1
   4  -6  -4 1088.61 513.883   1
   2  -6  -4 1829.94 786.101   2
  -4  -2   4 1625.25 561.222   2
  -2  -4   4 1252.13 584.837   2
  -6   2  -4 1166.75 558.333   1
  -2  -4   4 1606.53 485.183   1
  -4   6   4 1663.35 649.009   1
   6  -2   4 1350.11 702.707   1
   6  -4   4 1977.38 695.670   1
  -4  -2   4 1346.37 501.472   1
  -2   6   4 738.706 495.365   1
   2  -6  -4 904.987 446.623   1
  -6   4  -4 868.896 509.909   1
   4  -6  -4 1434.95 531.453   2
   2   4  -4 1248.81 418.820   1
  -6   2  -5 746227. 14092.9   1
  -4   6   7 68471.4 3867.82   1
   2  -6  -7 66876.1 3967.49   2
  -2   6   7 76538.4 4151.51   1
   6  -2   7 74810.3 4089.56   1
   4  -6  -7 78467.7 4043.90   2
  -6   2  -7 59444.0 3704.77   1
  -6   4  -7 67033.8 3923.26   1
  -2  -4   7 65472.3 3402.88   2
   2  -6  -7 72286.2 4172.36   1
   4  -6  -7 65165.1 3838.16   1
   6  -2   8 242984. 7676.53   1
  -4   6   8 253331. 7857.23   1
   4  -6  -8 265228. 7785.73   2
   2  -6  -8 274662. 8353.84   1
  -2   6   8 293755. 8389.02   1
   2  -6  -8 247509. 7849.68   2
  -6   2  -8 250203. 7889.97   1
   6  -4   8 251362. 7748.60   1
  -6   4  -8 247120. 7829.53   1
  -2  -4   8 217522. 6644.73   2
   4  -6  -8 239931. 7743.88   1
   6  -2   9 73071.2 4185.37   1
  -4   6   9 78268.9 4398.61   1
   6  -4   9 81554.5 4436.52   1
   4  -6  -9 74411.1 4314.59   1
   4  -6  -9 75134.8 4071.12   2
   2  -6  -9 79178.2 4448.42   1
  -2   6   9 76880.9 4323.82   1
   2  -6  -9 67115.6 4179.01   2
  -6   2  -9 62672.4 4049.28   1
  -6   4  -9 72942.8 4251.01   1
   2  -6 -10 470713. 11738.8   1
  -4   6  10 446000. 11241.7   1
  -2   6  10 453297. 11312.9   1
   2  -6 -10 545823. 12460.2   2
  -6   4 -10 477026. 11459.1   1
  -6   2 -10 545476. 12511.3   1
   6  -2  10 492762. 11971.8   1
   6  -4  10 511740. 11948.0   1
   6  -2  11 163992. 6724.72   1
   2  -6 -11 151940. 6451.15   1
   6  -4  11 146406. 6257.55   1
   4  -6 -11 139591. 6237.39   1
  -2   6  11 147808. 6316.45   1
   2  -6 -11 160673. 6704.46   2
  -4   6  11 152209. 6392.33   1
  -6   2 -11 159328. 6626.45   1
   4  -6 -12 31786.3 3034.77   1
   6  -4  12 45614.8 3515.52   1
   6  -2  12 36525.1 3211.16   1
  -2   6  12 35582.9 3114.29   1
  -6   2 -12 46373.8 3652.21   1
  -4   6  12 55038.7 3932.97   1
  -6   4 -12 46032.6 3509.56   1
   2  -6 -12 44013.1 3493.17   2
   2  -6 -12 43967.5 3605.21   1
   6  -4  13 80198.1 4871.25   1
  -6   2 -13 78822.8 4875.75   1
  -2   6  13 78700.0 4795.96   1
   4  -6 -13 72699.2 4727.98   1
  -4   6  13 78077.6 4805.92   1
   2  -6 -13 70044.0 4587.01   1
   6  -2  13 80469.5 4856.02   1
   2  -6 -13 77914.7 4881.01   2
  -6   4 -13 83548.5 4877.51   1
  -6   2 -14 194945. 7891.50   1
   4  -6 -14 226159. 8337.82   1
   2  -6 -14 208770. 8224.31   1
  -2   6  14 148227. 6799.90   1
  -4   6  14 168615. 7241.41   1
   6  -2  14 204648. 7993.28   1
   6  -4  14 176692. 7416.33   1
  -6   4 -14 193484. 7844.98   1
  -4   6  15 74574.8 4968.56   1
   4  -6 -15 60819.3 4478.11   1
   2  -6 -15 78072.1 5013.84   1
   6  -2  15 66495.3 4798.13   1
  -6   2 -15 66126.7 4712.75   1
   4  -6 -16 1222.45 637.829   1
   6  -2  16 829.199 361.031   1
   2  -6 -16 495.749 526.376   1
  -6   2 -16 1556.18 847.468   1
  -2   6  16 820.514 558.646   1
  -2   6  17 42870.5 3877.69   1
   2  -6 -17 59079.1 4524.44   1
   2  -6 -18 114879. 6528.40   1
  -1  -5 -19 7803.58 1841.96   1
  -5  -1 -19 5535.47 1580.47   2
  -5  -1 -18 79378.7 5498.69   1
   5   1  18 71700.5 5130.61   1
  -1  -5 -18 83434.3 5461.09   1
  -5  -1 -18 69593.5 5180.55   2
   1   5  18 62029.2 4734.55   1
  -5  -1 -17 17464.5 2630.18   2
   5   1  17 15132.1 2298.37   1
  -1  -5 -17 19055.1 2578.38   1
  -1  -5 -17 16626.0 2601.01   2
  -5  -1 -17 19220.3 2549.16   1
   1   5  17 15673.9 2343.03   1
  -1  -5 -16 5570.63 1524.47   2
  -5  -1 -16 8685.61 1833.07   2
   5   1  16 5701.92 1434.41   1
  -1  -5 -16 7046.73 1610.20   1
  -5  -1 -16 6484.01 1480.64   1
   1   5  16 5152.34 1336.49   1
  -5  -1 -15 89363.4 5453.74   1
   1   5  15 75692.9 4949.97   1
   5   1  15 94282.9 5570.54   1
  -1  -5 -15 104340. 6014.26   2
  -1  -5 -15 88330.6 5364.33   1
  -1  -5 -14 269856. 9336.63   1
   1   5  14 234468. 8600.73   1
  -5  -1 -14 247292. 9507.40   2
  -1  -5 -14 224509. 8831.26   2
   5   1  14 205950. 8238.20   1
  -5  -1 -14 233172. 8675.32   1
  -5  -1 -13 147020. 6793.53   1
  -1  -5 -13 161915. 7074.12   1
   1   5  13 147723. 6658.05   1
   5   1  13 164924. 7061.83   1
  -1  -5 -13 150835. 7097.41   2
   6  -5 -13 138287. 6609.75   1
  -5  -1 -12 77059.9 4755.58   1
  -5  -1 -12 88081.4 5316.07   2
   6  -5 -12 77716.7 4744.95   1
  -6   5  12 53655.4 3888.77   1
  -1  -5 -12 63404.8 4368.98   1
  -1  -5 -12 79560.5 4884.64   2
   1   5  12 71646.9 4496.87   1
   5   1  12 78624.1 4785.02   1
  -1  -5 -11 102048. 5396.35   1
  -5  -1 -11 82452.0 4776.77   1
  -6   5  11 88517.8 4844.88   1
   1  -6  11 83649.7 4858.60   2
  -5  -1 -11 104912. 5848.13   2
   1   5  11 71378.1 4433.09   1
   5   1  11 82118.4 4824.27   1
  -5   6 -11 90864.7 4792.29   1
  -1  -5 -11 87318.6 5029.89   2
   1  -6  10 625617. 14120.5   2
  -6   5  10 689137. 14178.6   1
  -5  -1 -10 644346. 15187.4   2
  -1  -5 -10 619012. 14019.9   1
   5   1  10 797461. 15513.6   1
  -5  -1 -10 785045. 15445.4   1
   1   5  10 731840. 14646.8   1
  -5   6 -10 749836. 14354.5   1
  -1  -5 -10 705475. 14877.5   2
  -5   6  -9 77325.9 4258.86   1
  -1  -5  -9 62687.6 4087.13   2
  -5  -1  -9 71291.7 4319.19   1
   1   5   9 74496.9 4349.25   1
   5  -6   9 70336.9 3960.74   1
  -5  -1  -9 73748.1 4708.52   2
   5   1   9 59992.5 3998.91   1
   1  -6   9 77815.1 4439.13   2
   6  -5  -9 69345.9 4244.21   1
  -1  -5  -9 64693.7 4132.91   1
   5   1   8 84565.3 4547.79   1
   5  -6   8 81035.3 4189.84   1
   1   5   8 74122.4 4227.23   1
  -5  -1  -8 91627.8 5149.20   2
   6  -5  -8 84419.4 4599.79   1
  -1  -5  -8 63094.6 4044.37   1
  -1  -5  -8 75736.1 4425.70   2
  -5  -1  -8 84085.9 4529.77   1
   6  -1  -8 64007.0 3424.80   1
  -5   6  -8 83923.2 4410.56   1
  -6   5   8 44530.7 3262.57   1
   1  -6   8 104670. 5140.97   2
   5   1   7 241275. 7857.06   1
  -1  -5  -7 312032. 8750.68   1
  -5  -1  -7 256830. 8598.39   2
  -5   6  -7 314677. 8671.40   1
   6  -5  -7 290078. 7201.53   2
  -5  -1  -7 304074. 8736.27   1
   1   5   7 291776. 8413.06   1
   5  -6   7 257252. 7638.14   1
  -6   1   7 208981. 6507.83   1
   6  -1  -7 232435. 6868.57   1
   6  -5  -7 315186. 8832.08   1
   1  -6   7 329390. 8842.84   2
  -6   5   7 348128. 8878.09   1
  -1  -5  -7 258657. 8222.41   2
  -1   6  -6 106932. 4018.53   1
   5  -6   6 82133.8 4608.62   2
  -6   5   6 87673.9 4388.91   1
   5  -6   6 76786.9 4024.41   1
   6  -1  -6 93510.6 4208.83   1
  -5   6  -6 71511.7 4074.77   1
   6  -5  -6 88158.3 4016.57   2
   1   5   6 83438.5 4258.95   1
  -6   1   6 107354. 4398.37   1
  -1  -5  -6 86777.4 4546.20   2
   6  -5  -6 75453.3 4143.02   1
  -5  -1  -6 103437. 5162.39   2
  -1  -5  -6 80092.9 4326.66   1
   5   1   6 77486.4 4260.49   1
   1  -6   6 77058.8 3395.04   1
  -5  -1  -6 80879.4 4378.73   1
   1  -6   6 75161.1 4172.46   2
  -5  -1  -5 390639. 10215.8   2
  -6   5   5 348064. 9074.19   1
   1  -6   5 338089. 8956.01   2
  -5  -1  -5 379733. 9711.79   1
   6  -1  -5 326675. 8293.70   1
  -1  -5  -5 372379. 9463.47   1
   5  -6   5 445691. 10722.6   2
  -6   1   5 388053. 8758.96   1
   1   5   5 349540. 9141.95   1
   6  -5  -5 404504. 9803.15   1
   5  -6   5 381609. 9234.75   1
   6  -5  -5 387090. 8853.68   2
  -5   6  -5 373775. 9411.62   1
  -1  -5  -5 392819. 9962.27   2
   5   1   5 362177. 9444.00   1
   6  -1  -4 2390.63 713.273   1
   1  -6   4 2268.40 658.673   1
  -5  -1  -4 1994.94 654.823   2
   1   5   4 1492.02 732.519   1
   6  -5  -4 2193.64 617.412   2
   5  -6   4 2021.64 640.014   2
  -6   5   4 2844.75 925.479   1
   6  -5  -4 6382.27 1059.39   1
  -1   6  -4 2830.86 706.624   1
  -1  -5  -4 1724.13 699.969   2
   1  -6   4 2748.64 891.864   2
  -5  -1  -4 2617.25 904.442   1
   5  -6   4 2507.05 768.983   1
  -6   1   4 1865.75 620.778   1
  -5   6  -4 3113.44 807.484   1
  -6   1   4 1671.54 514.039   2
  -1  -5  -4 2786.37 799.762   1
   5   1   4 2643.56 742.627   1
  -5  -1  -3 55605.1 3549.46   2
  -5  -1  -3 57673.9 3457.99   1
   6  -5  -3 50292.2 3220.57   1
  -1  -5  -3 47949.9 3166.43   1
   1  -6   3 53419.0 2957.24   1
  -1   6  -3 49376.7 2908.21   1
   5  -6   3 52284.8 3479.08   2
   1   5   3 47232.0 3098.07   1
   6  -5  -3 56819.8 3215.00   2
   1  -6   3 55274.6 3447.31   2
   5   1   3 50266.5 3198.04   1
   6  -1  -3 42350.6 2836.14   1
  -6   5   3 61282.7 3611.22   1
  -6   1   3 50025.6 3012.32   1
  -5   6  -3 54471.5 3343.35   1
  -6   1   3 37087.6 2519.86   2
  -1  -5  -3 56593.3 3456.71   2
   5  -6   3 50185.9 3105.78   1
   5  -6   1 252000. 7668.45   2
   5   1   1 330137. 8321.44   1
  -5  -1  -1 268306. 7414.19   2
  -5   6  -1 237365. 7156.34   1
  -6   5   1 245559. 7247.13   1
   6  -5  -1 301387. 8061.44   2
  -1  -5  -1 294070. 7631.88   1
  -1   6  -1 258979. 7074.69   1
   5  -6   1 261620. 7352.21   1
   1   5   1 237493. 6914.22   1
  -5  -1  -1 221357. 6825.34   1
   6  -1  -1 236058. 7014.68   1
  -6   1   1 203989. 6539.11   1
  -1  -5  -1 263409. 7638.18   2
   6  -5  -1 234898. 7110.32   1
   1  -6   1 235608. 7299.25   2
   1  -6   1 283366. 7308.95   1
   5   1   0 403480. 9470.97   1
   1  -6   0 469667. 9882.99   1
   5  -6   0 459601. 10337.2   2
  -1  -5   0 424150. 9563.83   1
  -1  -5   0 435183. 9902.19   2
   1  -6   0 457570. 10249.2   2
  -6   1   0 382215. 9210.10   1
   6  -5   0 516741. 10705.1   1
   5  -6   0 488888. 10506.1   1
  -5  -1   0 389319. 8971.28   2
  -5   6   0 435631. 9929.32   1
  -1   6   2 703331. 12806.1   1
  -6   1  -2 574116. 11853.0   1
   5  -6  -3 261985. 7607.31   2
   5  -6  -3 276126. 7985.38   1
   1  -6  -3 265302. 7861.36   2
   1  -6  -3 279452. 7935.58   1
   6  -5   3 265791. 7734.12   1
  -5  -1   3 289326. 6915.08   2
  -1   6   3 292512. 8093.59   1
  -1  -5   3 279303. 6921.85   1
   1   5  -3 281514. 6894.68   1
   6  -1   3 294917. 8210.69   1
  -5   6   3 273205. 7813.23   1
  -1  -5   3 249202. 7298.11   2
  -6   5  -3 288550. 8207.66   1
  -6   1  -3 300070. 8087.11   1
  -5  -1   3 282617. 7156.11   1
  -6   5  -4 30131.1 2577.62   1
   1  -6  -4 28027.1 2478.63   1
   6  -5   4 34462.1 2611.35   1
   5   1  -4 33167.0 2259.15   1
   1   5  -4 29666.9 2028.98   1
  -5   6   4 22787.9 2148.02   1
  -5  -1   4 22240.8 1781.29   2
  -1   6   4 27905.8 2427.00   1
   5  -6  -4 26817.4 2399.36   1
   6  -1   4 27350.5 2431.03   1
  -5  -1   4 32005.9 2203.64   1
  -6   1  -4 24433.6 2267.27   1
  -1  -5   4 24781.8 1863.67   1
  -1  -5   4 33105.1 2574.94   2
   5  -6  -4 27204.2 2341.17   2
   1  -6  -4 24322.8 2351.32   2
   5   1  -5 4234.51 767.807   1
  -6   5  -5 4549.83 1054.58   1
   6  -5   5 4038.34 944.423   1
   1  -6  -5 3882.53 986.489   1
  -5  -1   5 6157.20 892.738   2
  -1  -5   5 3659.58 670.062   1
   1   5  -5 4444.42 765.472   1
  -5   6   5 3200.32 912.160   1
  -6   1  -5 3305.17 828.641   1
  -5  -1   5 2757.31 663.711   1
   6  -1   5 4749.85 1123.91   1
  -1   6   5 3563.18 924.628   1
   5  -6  -5 4686.48 983.293   2
   5  -6  -5 4243.46 954.066   1
  -1  -5   5 4047.65 914.888   2
   1  -6  -5 3785.40 947.133   2
   1  -6  -6 364363. 9511.38   1
   5  -6  -6 355572. 9474.19   1
  -5   6   6 413697. 9934.51   1
   5   1  -6 366316. 7831.81   1
  -6   5  -6 315517. 8962.45   1
   6  -5   6 319751. 8642.76   1
  -1  -5   6 300656. 8137.11   2
  -1   6   6 323054. 8855.91   1
   6  -1   6 301027. 8625.84   1
  -6   1  -6 328095. 8950.81   1
   5  -6  -6 336925. 8519.95   2
   1  -6  -6 344081. 9312.49   2
  -5   6   7 161515. 6142.51   1
   1  -6  -7 139708. 5929.85   1
   6  -1   7 126531. 5533.74   1
  -1   6   7 138499. 5782.39   1
  -6   5  -7 145968. 5850.76   1
  -1  -5   7 150355. 5549.39   2
  -6   1  -7 128407. 5626.23   1
   5  -6  -7 139481. 5402.41   2
   1  -6  -7 144924. 6021.59   2
   5  -6  -7 130644. 5671.67   1
   6  -5   7 142644. 5706.61   1
   1  -6  -8 48716.6 3614.32   2
   6  -1   8 52204.6 3600.05   1
   5  -6  -8 49243.1 3447.65   1
   6  -5   8 51190.2 3426.47   1
  -6   5  -8 46515.1 3375.79   1
   1  -6  -8 47175.2 3519.15   1
  -1  -5   8 53071.8 3353.68   2
  -1   6   8 50469.6 3494.94   1
  -6   1  -8 52568.4 3571.64   1
  -5   6   8 49812.6 3421.36   1
   5  -6  -8 51244.1 3241.00   2
  -6   1  -9 442165. 11375.0   1
   5  -6  -9 409672. 10717.4   1
   1  -6  -9 423912. 11152.1   1
  -1   6   9 454205. 11155.6   1
  -1  -5   9 488474. 11001.9   2
   6  -5   9 449455. 10886.2   1
  -5   6   9 541264. 12156.7   1
  -6   5  -9 453734. 11135.8   1
   6  -1   9 460805. 11465.2   1
   5  -6  -9 510256. 10815.9   2
   1  -6  -9 434525. 11377.0   2
   1  -6 -10 521293. 12863.8   2
   1  -6 -10 586449. 13302.1   1
   6  -1  10 600120. 13247.5   1
   5  -6 -10 552809. 12789.8   1
  -6   1 -10 580958. 13172.7   1
  -1   6  10 557310. 12615.4   1
  -5   6  10 491249. 12073.6   1
   6  -5  10 568795. 12620.3   1
  -6   1 -11 167146. 6969.63   1
   6  -1  11 174874. 7029.67   1
   1  -6 -11 177971. 7361.35   2
  -5   6  11 157396. 6710.14   1
   1  -6 -11 161550. 6803.33   1
   6  -5  11 184306. 7095.65   1
  -6   5 -11 179870. 7021.57   1
   5  -6 -11 162764. 6765.95   1
  -1   6  11 155378. 6594.10   1
   6  -1  12 37203.9 3273.74   1
   1  -6 -12 45637.5 3743.02   1
   6  -5  12 41997.2 3436.43   1
  -6   1 -12 40352.0 3486.46   1
   5  -6 -12 37716.1 3278.91   1
  -6   5 -12 38001.1 3260.72   1
  -5   6  12 40280.7 3410.58   1
   1  -6 -12 44284.6 3709.70   2
   6  -1  13 69860.3 4620.76   1
   1  -6 -13 86124.8 5182.60   1
   6  -5  13 67098.5 4374.07   1
   5  -6 -13 59479.5 4245.09   1
  -1   6  13 75456.5 4707.26   1
  -6   5 -13 75882.7 4688.63   1
  -6   1 -13 75668.2 4796.73   1
  -5   6  13 50578.7 3935.94   1
   1  -6 -13 70346.9 4782.50   2
  -1   6  14 358937. 10752.7   1
  -5   6  14 222657. 8613.35   1
   5  -6 -14 348599. 10587.2   1
   1  -6 -14 291059. 9884.40   1
  -6   1 -14 322122. 10241.5   1
   6  -1  14 277359. 9632.50   1
   1  -6 -14 275095. 10419.8   2
   1  -6 -15 54674.8 4281.88   1
  -6   1 -15 52099.9 4180.76   1
   5  -6 -15 63245.6 4591.12   1
  -1   6  15 69243.6 4704.22   1
   6  -1  15 54208.9 4307.27   1
   1  -6 -16 34695.4 3459.15   1
  -1   6  16 36101.4 3422.98   1
  -6   1 -16 25356.4 2958.00   1
   6  -1  16 36046.6 3436.82   1
   6  -1  17 45823.6 4058.60   1
  -6   1 -17 43698.1 4116.08   2
   1  -6 -17 40782.5 3774.83   1
  -1   6  17 43814.5 3921.37   1
  -6   1 -17 52760.3 4390.87   1
  -1   6  18 49509.5 4249.14   1
   1  -6 -18 43801.6 4041.48   1
  -6   1 -19 4044.25 1554.89   2
   0  -6   1 6593.61 1265.10   2
   6  -6   1 6959.31 1315.34   2
   0  -6  -1 6713.05 1255.55   2
   0  -6  -1 7191.06 1203.36   1
  -6   0   1 6377.65 1156.83   2
  -6   0  -1 5241.79 1209.66   2
   6   0   1 6107.48 1089.11   1
  -6   6   1 5197.78 1047.79   1
   6  -6   1 6404.34 1200.48   1
   0   6   1 6190.63 1106.68   1
  -6   0  -1 6098.24 1078.56   1
   6   0  -1 7401.26 1245.79   1
   6  -6  -1 5865.99 1205.95   1
   6  -6  -1 6771.41 1183.41   2
   0  -6   1 5447.41 1065.70   1
  -6   6  -1 6611.99 1195.54   1
   0   6  -1 6796.80 1177.84   1
  -6   0   1 3988.73 858.452   1
   6  -6   2 1540.02 877.114   2
   6  -6   2 2565.22 780.372   1
   0  -6  -2 1161.70 496.195   2
  -6   0   2 1716.78 589.742   2
   6   0   2 1530.46 649.303   1
  -6   6  -2 2003.31 733.074   1
  -6   6   2 1823.60 742.735   1
   6   0  -2 1991.64 660.782   1
   0   6  -2 1466.49 641.930   1
   0  -6   2 823.825 395.387   1
   0  -6   2 3163.44 928.447   2
   0  -6  -2 1471.20 622.529   1
  -6   0  -2 1195.63 672.370   2
   6  -6  -2 1831.52 786.294   1
   6  -6  -2 1143.12 604.060   2
  -6   0  -2 1198.44 722.380   1
   0   6   2 1502.00 673.693   1
  -6   0   2 1698.30 586.264   1
  -6   6   3 18368.3 2031.25   1
  -6   0   3 20243.5 1775.48   2
   0   6   3 16883.9 1920.05   1
  -6   6  -3 19165.0 2009.60   1
   0  -6   3 18547.9 1781.01   1
   0  -6  -3 16340.4 1898.25   1
   6   0   3 13384.7 1719.50   1
   0   6  -3 16180.3 1654.64   1
   0  -6  -3 18400.8 2048.11   2
   6   0  -3 16657.0 1827.64   1
   6  -6   3 17109.4 1918.64   1
   6  -6  -3 14002.5 1875.83   1
  -6   0   3 15129.1 1688.01   1
   6  -6   3 15993.3 2060.44   2
   0  -6   3 15186.0 1887.71   2
   6  -6  -3 20455.9 2061.29   2
  -6   0  -3 19493.1 2110.36   1
  -6   6   4 570836. 11981.6   1
   0  -6   4 554874. 10338.7   1
   6  -6  -4 536042. 11819.6   1
   6  -6   4 431807. 10637.8   1
   0   6   4 493228. 11178.7   1
   0  -6  -4 513764. 11691.4   1
  -6   6  -4 500158. 11484.0   1
   6   0   4 480383. 11216.0   1
   0  -6   4 533244. 11387.7   2
   0  -6  -4 523495. 11738.5   2
   0  -6   5 3451.14 711.830   1
  -6   0  -5 5066.34 1101.08   1
   6   0  -5 5179.96 959.988   1
   6  -6   5 3674.92 940.234   1
   0  -6  -5 3146.46 829.051   1
   6  -6  -5 5294.21 1123.42   2
   0  -6   5 5276.12 1104.72   2
   0   6  -5 4919.99 897.517   1
  -6   6   5 4949.97 1052.99   1
   0  -6  -5 4231.41 1045.73   2
  -6   0   5 7980.68 1195.72   1
   6  -6  -5 4232.80 1061.07   1
   0   6   5 3616.93 897.833   1
   6   0   5 4590.25 1103.11   1
  -6   6  -5 3810.13 837.186   1
   0   6   6 14922.9 1795.57   1
   6  -6  -6 17496.0 1856.67   2
  -6   6   6 15847.1 1941.08   1
   6   0   6 16696.2 2011.59   1
   0  -6  -6 17269.8 2082.84   1
  -6   0  -6 15890.2 2019.02   1
  -6   0   6 14082.4 1572.30   1
   6   0  -6 18720.6 1858.72   1
   6  -6   6 18155.8 2017.64   1
  -6   6  -6 16304.1 1963.45   1
   0  -6   6 13494.3 1831.64   2
   0  -6  -6 14830.7 1915.67   2
   6  -6  -6 11959.9 1821.17   1
   6  -6  -7 7626.21 1501.77   1
   0   6   7 6970.71 1328.33   1
  -6   6   7 8764.67 1448.64   1
   6  -6   7 7153.30 1320.00   1
   6  -6  -7 8230.42 1348.95   2
   0  -6  -7 8158.98 1435.99   1
  -6   6  -7 8663.68 1495.64   1
   0  -6   7 11426.1 1625.86   2
  -6   0  -7 7112.53 1456.53   1
   6   0   7 7812.68 1440.58   1
   0  -6  -7 8032.31 1508.59   2
   0  -6  -8 801467. 16050.9   2
   6   0   8 817617. 15863.1   1
  -6   0  -8 843028. 16281.4   1
   0  -6  -8 852691. 16254.0   1
   6  -6  -9 6161.22 1245.84   1
   6  -6   9 4717.97 1113.99   1
  -6   6   9 4750.92 1125.07   1
   0  -6  -9 4949.73 1153.58   1
   0  -6   9 6183.58 1339.84   2
   6   0   9 4046.68 1029.39   1
  -6   0  -9 4914.38 1203.65   1
  -6   6  -9 5944.42 1269.63   1
   0   6   9 5290.35 1235.93   1
   0  -6  -9 5946.01 1380.07   2
   0  -6 -10 1244.38 645.313   2
   0  -6  10 1439.60 695.881   2
   0   6  10 1167.90 642.260   1
   6  -6 -10 1494.16 680.369   1
  -6   6 -10 2125.79 782.176   1
   6  -6  10 1847.50 704.631   1
  -6   6  10 2364.82 734.386   1
   0  -6 -10 1486.79 699.208   1
   6   0  10 2168.49 832.663   1
  -6   0 -10 2700.30 906.008   1
  -6   6  11 2172.88 896.659   1
   0  -6 -11 1247.48 663.332   1
   6  -6  11 1387.17 758.655   1
   6   0  11 1372.21 593.748   1
  -6   0 -11 1512.96 831.009   1
   0   6  11 1481.36 652.427   1
   6  -6 -11 1167.57 543.417   1
   0  -6 -11 2536.58 1032.79   2
  -6   6 -11 2012.13 811.652   1
   0  -6 -12 708292. 16024.6   2
   6  -6 -12 686798. 15467.6   1
   0  -6 -12 708316. 15640.2   1
  -6   0 -12 839363. 17815.6   2
   0   6  12 796523. 16100.5   1
  -6   0 -12 626059. 14851.7   1
   6   0  12 579690. 14414.9   1
  -6   6  12 797700. 16129.6   1
   0  -6 -13-113.487 468.394   2
  -6   6  13 9.25092 262.997   1
   0  -6 -13-75.4268 431.176   1
   6   0  13 186.774 401.412   1
   6  -6 -13 571.709 508.358   1
  -6   0 -13 505.971 648.159   1
  -6   0 -13 713.317 853.550   2
   0   6  13 224.795 499.085   1
   0  -6 -14 826.033 335.914   2
   6   0  14 1091.06 787.514   1
   6  -6 -14 696.675 557.524   1
   0   6  14 1874.56 766.579   1
  -6   0 -14-120.439 546.317   1
  -6   0 -14 497.361 560.283   2
   0  -6 -14 802.426 541.505   1
  -6   0 -15 1083.90 760.154   1
  -6   0 -15 142.348 609.118   2
   0   6  15 277.546 485.191   1
   0  -6 -15 437.789 679.436   2
   6   0  15 634.234 491.974   1
   0  -6 -15-124.890 457.194   1
   0  -6 -16 216299. 9450.36   2
  -6   0 -16 222727. 9339.72   2
   0  -6 -16 214765. 8922.67   1
   6   0  16 210929. 8685.44   1
   0   6  16 185892. 8067.95   1
  -6   0 -16 228874. 9091.83   1
  -6   0 -17 571.557 546.608   2
  -6   0 -17 1109.93 537.833   1
   6   0  17 987.765 664.020   1
   0  -6 -17 1851.78 973.315   1
   0   6  17 2106.22 945.471   1
   6   0  18 650.817 601.641   1
   0  -6 -18 31.0025 432.433   1
  -6   0 -18 170.070 254.621   1
   0   6  18 452.325 643.853   1
  -4  -3 -18 153758. 7804.58   2
  -4  -3 -18 146211. 7397.10   1
   3   4  18 163628. 7864.02   1
   4   3  18 146969. 7385.37   1
  -3  -4 -18 151212. 7811.96   2
   3   4  17 76086.4 5171.05   1
  -3  -4 -17 88425.6 5548.19   1
  -3  -4 -17 67456.9 5107.98   2
   4   3  17 82742.9 5303.56   1
  -4  -3 -17 71598.6 5224.24   2
  -4  -3 -17 83457.8 5529.63   1
   4   3  16 68837.2 4777.54   1
  -3  -4 -16 85545.8 5454.28   1
  -4  -3 -16 85544.5 5548.22   1
  -3  -4 -16 78641.9 5400.66   2
   3   4  16 96852.2 5637.81   1
  -4  -3 -16 69295.3 5060.52   2
  -4  -3 -15 7531.78 1705.98   1
  -3  -4 -15 7294.06 1595.57   1
  -3  -4 -15 6613.74 1643.49   2
  -4  -3 -15 9904.47 1901.81   2
   3   4  15 7459.33 1541.60   1
   4   3  15 9056.14 1716.15   1
  -3  -4 -14 216891. 8728.79   2
  -4  -3 -14 236478. 9124.07   2
  -3  -4 -14 248357. 9140.00   1
  -4  -3 -14 250427. 9127.62   1
   3   4  14 210604. 8273.59   1
   4   3  14 234849. 8789.79   1
  -3  -4 -13 9656.89 1805.46   1
   4   3  13 11316.1 1878.29   1
  -4  -3 -13 12015.9 1858.35   1
   3   4  13 11155.1 1899.57   1
  -3  -4 -13 10352.0 1885.36   2
  -4  -3 -13 11673.8 2009.86   2
  -4  -3 -12 16816.5 2249.20   1
  -3  -4 -12 15073.8 2095.07   1
   4   3  12 16687.1 2207.64   1
   3   4  12 17178.9 2193.27   1
  -3  -4 -12 14188.9 2317.46   2
  -4  -3 -12 13674.9 2019.01   2
   3   4  11 142511. 6349.85   1
   4   3  11 164199. 7020.01   1
  -3  -4 -11 177781. 7411.10   2
  -4  -3 -11 187371. 7640.98   2
  -4  -3 -11 166636. 6982.50   1
  -3  -4 -11 157652. 6962.70   1
  -3  -4 -10 91882.4 5177.57   1
   3   4  10 93498.9 5146.07   1
   4   3  10 105273. 5453.13   1
   7  -4 -10 86830.5 4874.27   1
  -4  -3 -10 93597.3 5226.53   2
   3  -7  10 102978. 5577.11   2
  -3  -4 -10 106217. 5644.23   2
  -4  -3 -10 105255. 5482.23   1
   3   4   9 362657. 10053.9   1
  -4  -3  -9 337331. 9977.72   2
   3  -7   9 325248. 9920.89   2
   4  -7   9 300247. 9706.73   2
  -3  -4  -9 343101. 10055.5   1
  -4  -3  -9 290578. 9270.34   1
   7  -3  -9 338357. 9419.34   1
  -3  -4  -9 367287. 10515.7   2
  -7   4   9 302094. 8996.67   1
   4   3   9 319771. 9562.69   1
   7  -4  -9 278143. 8725.47   1
   3   4   8 2674.59 817.213   1
  -3  -4  -8 4999.02 1214.94   2
  -7   3   8 5179.49 1088.67   1
   4   3   8 4924.66 1132.20   1
  -4   7  -8 3962.18 974.669   1
   4  -7   8 3339.01 811.757   1
  -4  -3  -8 3947.22 1062.90   2
  -3  -4  -8 3539.92 1023.15   1
   7  -3  -8 6431.02 1267.99   1
  -4  -3  -8 4467.93 1254.97   1
   4  -7   8 5451.73 1318.26   2
  -7   4   8 6105.82 1199.75   1
   7  -4  -8 3891.73 1046.49   1
   3  -7   8 3865.37 1227.52   2
  -3  -4  -7 291999. 9054.75   2
   4   3   7 268025. 8611.52   1
   4  -7   7 372092. 9115.61   1
   3  -7   7 405740. 10438.9   2
  -7   3   7 359185. 9395.73   1
  -4   7  -7 313145. 8754.34   1
  -3  -4  -7 293811. 9016.73   1
  -4  -3  -7 299794. 9011.56   1
   3  -7   7 302055. 7990.67   1
  -3   7  -7 307403. 8182.10   1
  -7   4   7 358924. 9493.47   1
   3   4   7 298805. 8986.45   1
   7  -3  -7 318646. 8887.17   1
  -4  -3  -7 293139. 9130.60   2
   4  -7   7 244090. 8474.12   2
   7  -4  -7 299321. 8769.33   1
  -3  -4  -5 219850. 7410.22   2
  -3   7  -5 274674. 7582.90   1
  -4  -3  -5 220256. 7433.34   1
   4   3   5 215649. 7329.26   1
  -3  -4  -5 199414. 7075.45   1
   4  -7   5 207780. 6651.54   1
   3  -7   5 220474. 6676.93   1
  -4  -3  -5 192296. 7054.98   2
   7  -4  -5 165158. 6352.42   1
   4  -7   5 220401. 7513.88   2
   3   4   5 213768. 7364.14   1
  -7   3   5 135276. 5787.54   1
   3  -7   5 215841. 7475.01   2
   7  -3  -5 241518. 7404.99   1
  -7   4   5 293674. 8289.51   1
  -4   7  -5 251228. 7387.76   1
   4   3   4 563875. 12089.5   1
   4  -7   4 507472. 11890.6   2
  -3   7  -4 506910. 10968.3   1
  -4  -3  -4 510958. 11541.3   1
   4  -7   4 544485. 11250.6   1
  -3  -4  -4 508371. 11537.5   1
   3   4   4 553322. 12028.4   1
   3  -7   4 570936. 12331.1   2
   7  -3  -4 554304. 11726.8   1
  -7   3   4 567521. 12054.3   1
  -3  -4  -4 534535. 11893.5   2
  -3   7  -3 96869.5 4410.05   1
   7  -3  -3 77987.7 4216.17   1
   3   4   3 84535.7 4382.29   1
  -3  -4  -3 96812.4 4620.97   1
  -4  -3  -3 94979.4 4621.09   1
   3  -7   3 91165.2 4407.84   1
   7  -4  -3 95536.2 4680.38   1
   4   3   3 81007.2 4260.41   1
  -7   3   3 80069.0 4231.78   1
  -3  -4  -3 94031.0 4606.16   2
   3  -7   3 90024.7 4674.73   2
  -4   7  -3 91599.0 4418.30   1
   4  -7   3 97871.4 4524.41   1
  -4  -3  -3 88091.8 4547.05   2
  -7   4   3 117294. 5122.22   1
   4  -7   3 109130. 5146.89   2
  -3  -4  -2 592793. 11926.0   1
   3   4   2 567569. 11780.4   1
  -3   7  -2 565646. 11561.0   1
  -4  -3  -2 446064. 10676.3   1
   7  -4  -2 614979. 12417.8   1
  -7   4   2 514315. 11630.4   1
   3  -7   2 545805. 11475.0   1
   4   3   2 534875. 11573.5   1
   7  -3  -2 663123. 12687.0   1
  -3  -4  -2 464811. 10953.5   2
  -4  -3  -1 81810.5 4182.83   2
   7  -3  -1 68216.8 3888.37   1
   4  -7   1 103328. 4754.59   1
   3  -7   1 93924.9 4410.93   1
  -3   7  -1 91112.5 4406.60   1
  -4   7  -1 92578.1 4419.72   1
   7  -4  -1 88635.1 4430.37   1
   3  -7   1 96150.7 4670.62   2
  -3  -4  -1 74305.7 4117.29   2
  -3  -4  -1 108170. 4754.32   1
   4   3   1 97405.6 4560.72   1
   3   4   1 87334.3 4318.24   1
   4  -7   1 96165.2 4760.61   2
  -7   4   1 99505.9 4798.42   1
  -7   3   1 81700.6 4292.25   1
  -4  -3  -1 117341. 4966.81   1
   3  -7   0 21483.6 2240.50   2
   3   4   0 22998.6 2151.80   1
  -4   7   0 22403.6 2238.28   1
   3  -7   0 23715.5 2205.48   1
  -3   7   0 24199.8 2272.64   1
  -3  -4   0 22132.2 2114.59   1
  -7   4   0 23330.9 2351.36   1
   4  -7   0 22302.2 2161.04   1
  -4  -3   0 24949.6 2237.31   2
   4   3   0 23657.6 2175.92   1
   7  -4   0 24506.4 2292.01   1
   4  -7   0 21218.4 2189.01   2
  -7   3   0 30584.9 2621.30   1
  -3  -4   0 26278.8 2319.65   2
   7  -3   0 25190.4 2295.49   1
  -4  -3   0 27936.6 2288.39   1
  -7   4  -1 205979. 6964.64   1
   3   4  -1 156262. 5556.22   1
   4   3  -1 143603. 5444.93   1
   7  -4   1 139313. 5726.21   1
   7  -3   1 142488. 5694.98   1
  -3   7   1 148084. 5859.54   1
  -7   3  -1 120647. 5263.85   1
  -3  -4   1 174619. 5909.94   1
  -4  -3   1 185558. 6044.05   1
   3  -7  -1 154969. 5955.54   2
  -4   7   1 148398. 5811.96   1
   4  -7  -1 150412. 5803.13   1
   4  -7  -1 151008. 5904.31   2
   3  -7  -1 146121. 5605.37   1
  -3  -4   1 129458. 5351.96   2
  -4  -3   1 171462. 5886.36   2
   7  -4   2 274730. 8208.91   1
   4  -7  -2 280171. 8081.28   1
  -3   7   2 275377. 8057.11   1
  -7   3  -2 240968. 7618.32   1
  -7   4  -2 264240. 8157.33   1
   3  -7  -2 281640. 8213.12   2
   4   3  -2 286320. 7539.79   1
  -3  -4   2 300235. 7986.84   2
  -3  -4   2 337195. 8069.77   1
  -4  -3   2 196991. 6354.66   1
  -4  -3   2 263146. 7392.06   2
   3   4  -2 276318. 7331.92   1
  -4   7   2 258719. 7948.87   1
   4  -7  -2 271288. 7994.93   2
   7  -3   2 306776. 8499.53   1
   3  -7  -2 292282. 8067.74   1
   3  -7  -3 373810. 9645.73   2
  -7   4  -3 400457. 10078.0   1
   4  -7  -3 371310. 9461.57   1
   3  -7  -3 307761. 8767.24   1
  -3   7   3 360647. 9441.35   1
  -3  -4   3 371876. 8387.40   1
  -4   7   3 358862. 9485.17   1
   7  -3   3 349949. 9420.31   1
  -3  -4   3 337129. 8649.92   2
   4  -7  -3 353236. 9293.30   2
   7  -4   3 406895. 10019.0   1
  -4  -3   3 400752. 9171.23   2
  -7   3  -3 430127. 10134.5   1
  -4  -3   3 433221. 9033.12   1
  -4  -3   4 12081.9 1535.61   2
   4  -7  -4 12744.5 1663.99   1
   3  -7  -4 13804.8 1797.97   1
  -3   7   4 15682.6 1892.65   1
  -3  -4   4 13343.2 1446.96   1
  -4   7   4 15958.5 1895.32   1
  -4  -3   4 15588.5 1545.66   1
   3  -7  -4 13327.0 1790.06   2
  -7   4  -4 14907.4 1903.97   1
   4  -7  -4 13443.9 1801.66   2
   3   4  -4 14872.0 1495.24   1
  -7   3  -4 12042.1 1599.33   1
   7  -3   4 11221.6 1606.48   1
   7  -4   4 13546.5 1761.42   1
   4   3  -4 16322.9 1665.20   1
  -3  -4   4 9658.32 1430.58   2
   3  -7  -5 647488. 13426.2   2
   4  -7  -5 656084. 13190.1   2
  -3   7   5 655273. 13403.5   1
   4  -7  -7 221103. 7662.55   1
  -4   7   7 273226. 8380.46   1
   3  -7  -7 253547. 8167.51   1
  -3   7   7 244781. 8014.55   1
   7  -3   7 219956. 7732.74   1
  -7   3  -7 274034. 8538.31   1
  -7   4  -7 270565. 8440.80   1
   7  -4   7 253043. 8011.34   1
  -3  -4   7 261897. 7413.38   2
   4  -7  -7 231434. 7747.83   2
   3  -7  -7 245312. 8043.31   2
  -4   7   8 315259. 9316.19   1
   4  -7  -8 358923. 9856.64   1
   7  -4   8 378770. 10172.5   1
  -3   7   8 335454. 9561.56   1
   7  -3   8 313516. 9428.12   1
   4  -7  -8 381032. 10123.4   2
  -7   3  -8 344678. 9677.50   1
  -7   4  -8 342317. 9780.81   1
   3  -7  -8 350633. 9974.05   2
   3  -7  -8 332909. 9630.19   1
   3  -7  -9 6649.89 1396.80   2
   4  -7  -9 5588.61 1274.56   1
  -7   4  -9 6612.49 1348.95   1
  -7   3  -9 5292.74 1190.74   1
   3  -7  -9 5497.60 1265.19   1
   7  -4   9 5733.87 1222.84   1
  -3   7   9 4011.45 1023.77   1
   4  -7  -9 6197.88 1236.22   2
   7  -3   9 5173.72 1216.67   1
  -4   7   9 8074.20 1455.32   1
   7  -3  10 441168. 11233.2   1
   4  -7 -10 322105. 9896.50   1
   3  -7 -10 376658. 10637.9   1
  -3   7  10 379921. 10514.8   1
   4  -7 -10 430721. 11015.9   2
   7  -4  10 373462. 10463.4   1
  -7   3 -10 401276. 10841.0   1
  -7   4 -10 409599. 10792.5   1
   3  -7 -10 405310. 11054.1   2
   3  -7 -11 31308.6 3073.04   1
   4  -7 -11 33996.5 3103.26   1
   7  -3  11 35463.2 3145.15   1
  -4   7  11 38986.0 3357.73   1
  -3   7  11 39122.9 3380.86   1
   7  -4  11 39436.8 3334.64   1
   3  -7 -11 34297.1 3132.33   2
  -7   3 -11 31278.8 3026.64   1
  -7   4 -11 31886.6 2983.04   1
   4  -7 -11 34670.3 3083.58   2
   7  -3  12 16878.6 2227.40   1
   3  -7 -12 16172.5 2151.00   2
   4  -7 -12 13139.1 2008.68   1
   3  -7 -12 15783.3 2181.26   1
  -4   7  12 14873.8 2103.43   1
   7  -4  12 15979.5 2155.90   1
  -3   7  12 14890.2 2132.85   1
  -7   3 -12 18054.8 2346.36   1
  -7   4 -12 15912.0 2169.24   1
  -7   3 -13 137133. 6699.68   1
   4  -7 -13 161895. 7217.01   1
   7  -4  13 164232. 7340.16   1
   3  -7 -13 171009. 7281.27   1
  -4   7  13 169196. 7273.14   1
  -3   7  13 153925. 6994.25   1
  -7   4 -13 143935. 6755.39   1
   7  -3  13 168420. 7308.32   1
   7  -3  14 63760.5 4537.95   1
   3  -7 -14 53480.7 4182.57   1
  -4   7  14 56536.1 4333.12   1
  -3   7  14 69425.1 4770.89   1
  -7   3 -14 62100.8 4492.81   1
  -7   4 -14 64437.1 4607.52   1
   7  -4  14 62260.8 4519.66   1
   7  -3  15 93179.4 5670.51   1
   7  -4  15 90668.2 5581.94   1
   3  -7 -15 82720.5 5246.74   1
  -4   7  15 68639.1 4858.22   1
   4  -7 -15 103422. 5903.63   1
  -3   7  15 85307.8 5392.36   1
  -7   3 -15 85930.1 5484.60   1
  -7   4 -15 104938. 6011.35   1
   4  -7 -16 709.704 595.053   1
   3  -7 -16 1.17361 282.587   1
  -4   7  16 1207.86 732.687   1
   7  -3  16 85.4061 497.578   1
  -3   7  16 326.438 597.449   1
  -7   3 -16 106.914 287.874   1
   3  -7 -17 39224.1 3794.34   1
  -3   7  17 45688.0 4037.20   1
   4  -7 -17 43897.9 4025.81   1
   3  -7 -18 197756. 8777.72   1
  -5  -2 -18-458.411 569.755   1
  -5  -2 -18 597.249 508.965   2
   2   5  18-299.891 541.576   1
  -2  -5 -18-207.716 402.813   1
   5   2  18-340.908 611.278   1
  -2  -5 -17 5321.43 1485.55   2
   5   2  17 5462.93 1382.68   1
  -2  -5 -17 7198.69 1527.82   1
  -5  -2 -17 6762.18 1572.65   2
  -5  -2 -17 6712.22 1569.33   1
   2   5  17 4318.76 1234.92   1
   5   2  16 359705. 11433.5   1
  -2  -5 -16 333034. 11060.5   1
  -5  -2 -16 327143. 10951.1   1
  -5  -2 -16 308306. 10813.6   2
   2   5  16 338424. 10992.9   1
  -2  -5 -16 321517. 11206.8   2
  -2  -5 -15 1959.21 830.475   2
  -5  -2 -15 2129.55 1081.81   2
  -2  -5 -15 1424.92 708.341   1
  -5  -2 -15 3010.67 949.446   1
   5   2  15 2418.79 942.630   1
   2   5  15 2541.88 913.803   1
  -2  -5 -14 3293.63 1163.02   2
   5   2  14 4159.72 1246.49   1
  -2  -5 -14 2363.68 995.265   1
  -5  -2 -14 1528.67 676.570   1
  -5  -2 -14 1936.82 800.885   2
   2   5  14 3468.83 1087.79   1
   2   5  13 238.877 409.981   1
  -2  -5 -13 566.147 622.928   2
   5   2  13 252.290 558.473   1
  -2  -5 -13 437.553 427.161   1
  -5  -2 -13 796.580 701.595   1
  -5  -2 -13 1429.33 779.672   2
  -2  -5 -12 230566. 8729.94   2
  -5  -2 -12 237112. 8781.67   2
  -2  -5 -12 217980. 8262.08   1
  -5  -2 -12 194471. 7875.69   1
   2   5  12 226016. 8243.68   1
   5   2  12 256018. 8944.03   1
   7  -5 -11 1394.06 661.859   1
  -7   5  11 862.689 615.671   1
   2   5  11 1033.05 691.987   1
   5   2  11 889.519 547.849   1
  -5  -2 -11 373.610 281.631   1
  -2  -5 -11 955.859 609.288   1
  -2  -5 -11 234.844 389.051   2
  -5  -2 -11 454.943 593.986   2
   2  -7  11 1168.35 699.924   2
  -7   5  10 30927.2 2910.97   1
  -5  -2 -10 31277.8 3072.51   2
   7  -5 -10 25020.0 2625.20   1
  -2  -5 -10 28999.8 2913.54   1
  -5  -2 -10 33181.6 3045.67   1
   2  -7  10 31611.3 3093.55   2
   2   5  10 24283.9 2598.85   1
   5   2  10 30662.7 2968.43   1
  -2  -5 -10 28948.7 2891.59   2
   2   5   9 7973.09 1392.72   1
  -7   5   9 8425.10 1423.92   1
  -2  -5  -9 9699.12 1540.20   2
   5   2   9 9188.29 1510.95   1
  -2  -5  -9 8479.14 1554.08   1
  -5   7  -9 8943.66 1511.24   1
   5  -7   9 8552.51 1423.71   1
  -5  -2  -9 8666.09 1526.31   1
   2  -7   9 8653.97 1617.25   2
   7  -5  -9 8050.29 1456.72   1
  -5  -2  -9 8159.45 1569.98   2
  -2  -5  -7 2225.48 820.994   2
   2   5   7 1965.35 715.072   1
  -5   7  -7 2995.68 911.149   1
  -7   2   7 2045.03 724.576   1
  -7   5   7 2858.33 906.934   1
  -5  -2  -7 2780.70 819.366   2
   7  -5  -7 1727.92 671.053   1
   5  -7   7 1990.17 753.896   1
   5   2   7 2095.73 804.105   1
  -2  -5  -7 1936.80 804.605   1
  -5  -2  -7 1989.33 690.291   1
   7  -2  -7 2617.05 732.163   1
   5  -7   7 2525.95 676.593   2
   2  -7   7 2040.82 838.968   2
   5  -7   6 25190.7 2627.26   2
   7  -5  -6 29639.9 2651.35   1
   7  -2  -6 26729.4 2389.95   1
  -2   7  -6 31730.9 2462.56   1
  -5  -2  -6 32304.7 2874.71   1
  -2  -5  -6 30093.8 2728.38   1
   5  -7   6 33079.0 2710.05   1
  -5  -2  -6 38506.1 3230.74   2
   2   5   6 28633.5 2647.18   1
   2  -7   6 29420.1 2330.19   1
   2  -7   6 33174.5 2896.82   2
  -7   5   6 35872.2 2869.72   1
   5   2   6 28543.7 2770.33   1
  -7   2   6 38617.0 2905.54   1
  -5   7  -6 33755.4 2809.48   1
  -2  -5  -6 26298.3 2638.60   2
  -5  -2  -5 21857.1 2368.31   2
  -2   7  -5 32521.5 2511.06   1
  -2  -5  -5 31520.1 2730.20   2
   5  -7   5 30979.9 2596.24   1
  -5   7  -5 38112.0 2995.99   1
  -5  -2  -5 24055.6 2464.30   1
   2  -7   5 24524.2 2496.70   2
   2   5   5 27624.7 2541.96   1
  -7   5   5 31503.6 2744.45   1
   5  -7   5 32515.4 2994.76   2
  -7   2   5 37786.1 2809.70   1
  -2  -5  -5 31505.4 2780.71   1
   7  -2  -5 22584.1 2219.32   1
   7  -5  -5 30439.1 2678.59   1
   5   2   5 34319.6 3005.84   1
  -7   2   3 1984.54 678.492   1
   5  -7   3 3805.37 912.956   1
  -5  -2  -3 3283.00 945.296   2
  -5   7  -3 2985.71 845.069   1
   2  -7   3 3293.72 894.022   1
  -2   7  -3 3586.05 799.884   1
   7  -5  -3 3008.10 853.672   1
  -2  -5  -3 2467.66 880.244   1
   5   2   3 2176.59 720.240   1
  -2  -5  -3 2953.97 953.325   2
  -5  -2  -3 1776.94 596.318   1
  -7   5   3 3072.79 940.774   1
   5  -7   3 2739.71 971.217   2
   7  -2  -3 1414.99 636.361   1
   2   5   3 3353.77 966.813   1
   2  -7   3 3380.18 956.641   2
  -5  -2  -2 1327.78 636.035   2
   7  -2  -2 1691.84 654.489   1
  -5   7  -2 1225.23 519.031   1
   2  -7   2 1392.35 561.799   1
   5  -7   2 1696.93 640.994   1
   2   5   2 1019.64 437.439   1
  -2  -5  -2 2133.12 688.627   1
   5   2   2 1463.92 569.912   1
  -5  -2  -2 1386.95 688.573   1
   2  -7   2 1694.33 792.802   2
   5  -7   2 1108.09 638.199   2
   7  -5  -2 1570.26 676.791   1
  -7   5   2 1143.67 621.544   1
  -2   7  -2 1466.96 579.743   1
  -7   2   2 1671.64 650.548   1
  -2  -5  -2 914.871 493.070   2
   7  -2  -1 1521.27 552.167   1
   2   5   1-55.7501 281.246   1
  -2  -5  -1-116.533 471.134   2
  -7   5   1-252.286 416.651   1
   5  -7   1 801.703 540.432   1
  -5   7  -1 159.214 312.843   1
   7  -5  -1-24.7348 408.469   1
  -2  -5  -1 80.6858 263.638   1
  -2   7  -1 6.39152 295.426   1
   2  -7   1 47.3686 466.614   2
   5   2   1 1010.05 684.138   1
  -5  -2  -1 202.014 355.573   1
   5  -7   1 663.010 572.178   2
  -5  -2  -1 23.9610 429.693   2
  -7   2   1-25.2656 296.249   1
   2  -7   1-41.8409 319.509   1
  -5  -2   1 3169.49 796.231   2
  -7   5  -1 2191.21 737.738   1
   5  -7  -1 1733.46 567.255   1
  -2  -5   1 1075.72 381.542   2
   2  -7  -1 1534.76 519.433   1
  -5   7   1 1821.57 641.370   1
  -2  -5   1 2208.58 687.863   1
   7  -5   1 1766.06 760.840   1
   5  -7  -1 1798.70 758.975   2
  -2   7   1 2279.42 698.308   1
   5   2  -1 1896.19 603.305   1
  -5  -2   1 2485.36 729.313   1
   7  -2   1 2006.93 698.311   1
  -7   2  -1 2381.35 813.585   1
   2  -7  -1 1517.40 544.643   2
   2   5  -1 1860.42 607.906   1
  -5  -2   2 904.383 381.379   2
  -7   5  -2 1548.30 597.525   1
   5  -7  -2 1245.56 568.748   1
   5  -7  -2 1112.50 605.991   2
   2  -7  -2 988.532 486.804   1
   7  -5   2 1017.02 582.298   1
  -5   7   2 1479.34 737.669   1
  -2  -5   2 1711.65 655.814   1
   2   5  -2 1491.06 557.148   1
  -2   7   2 1146.08 605.918   1
   5   2  -2 1006.23 508.859   1
   7  -2   2 822.168 569.719   1
  -5  -2   2 531.155 323.371   1
   2  -7  -2 1556.92 697.888   2
  -7   2  -2 476.963 397.614   1
  -2  -5   2 946.576 648.523   2
   5   2  -3 8892.73 1280.69   1
  -5  -2   3 8562.82 1218.06   2
   7  -5   3 7314.78 1347.64   1
  -2  -5   3 7462.69 1174.27   1
  -7   5  -3 8038.70 1442.08   1
   2  -7  -3 8206.11 1408.22   1
  -5   7   3 7764.49 1388.42   1
  -5  -2   3 9170.55 1290.71   1
   7  -2   3 7858.17 1381.72   1
  -2  -5   3 9218.02 1402.48   2
  -2   7   3 6442.26 1226.19   1
   5  -7  -3 8019.45 1398.06   1
   2  -7  -3 6998.53 1359.25   2
   5  -7  -3 6178.15 1334.82   2
  -7   2  -3 5954.09 1218.38   1
   2   5  -3 6746.67 1091.48   1
   7  -5   4 793862. 14844.5   1
   2  -7  -4 783100. 14913.2   1
  -5   7   5 12066.7 1703.49   1
   5  -7  -5 10600.4 1633.88   1
   2  -7  -5 11509.9 1694.12   1
  -7   5  -5 11405.7 1640.33   1
  -2   7   5 12594.5 1759.55   1
   7  -2   5 15654.7 1935.84   1
   7  -5   5 11593.3 1587.69   1
  -7   2  -5 15274.0 1870.56   1
  -5  -2   5 10975.6 1334.82   2
   5   2  -5 12180.0 1453.46   1
   5  -7  -5 8087.20 1529.60   2
   2  -7  -5 11126.9 1689.51   2
  -2  -5   5 9496.70 1524.20   2
  -7   5  -6 1621.09 675.676   1
   7  -5   6 2631.74 909.563   1
   5  -7  -6 2526.23 874.101   1
   7  -2   6 2266.39 817.802   1
   2  -7  -6 1803.41 622.936   1
  -5   7   6 1519.52 600.568   1
   5  -7  -6 1386.28 653.458   2
  -2   7   6 1192.01 540.928   1
  -7   2  -6 741.714 563.469   1
   2  -7  -6 1400.40 640.865   2
  -2  -5   6 1758.43 635.959   2
   2  -7  -7 22202.5 2447.76   2
   2  -7  -7 20630.8 2396.78   1
  -5   7   7 22941.0 2337.97   1
   5  -7  -7 20679.9 2331.99   1
  -2   7   7 22402.2 2349.93   1
   5  -7  -7 22762.6 2306.75   2
  -2  -5   7 20637.1 2067.58   2
  -7   2  -7 23226.6 2354.15   1
   7  -5   7 25180.4 2491.65   1
  -7   5  -7 24755.2 2472.04   1
   7  -2   7 23815.9 2424.86   1
   5  -7  -9 8288.00 1454.06   1
  -7   5  -9 8543.02 1533.86   1
  -7   2  -9 6183.25 1311.92   1
  -2   7   9 6612.71 1334.45   1
   2  -7  -9 5768.91 1223.76   1
  -5   7   9 6176.45 1324.83   1
   2  -7  -9 7464.07 1486.63   2
   7  -5   9 6262.42 1263.89   1
   5  -7  -9 7228.48 1341.54   2
   7  -2   9 6683.21 1377.40   1
  -5   7  10 13265.1 1902.71   1
   7  -2  10 12345.2 1918.31   1
   2  -7 -10 13651.7 2027.36   1
   5  -7 -10 11119.7 1786.23   1
  -2   7  10 13228.3 1943.67   1
   7  -5  10 14337.1 2013.07   1
  -7   2 -10 12041.4 1879.81   1
  -7   5 -10 10792.7 1768.03   1
   2  -7 -10 13331.7 2013.67   2
   7  -5  11 2740.16 951.487   1
   7  -2  11 2582.70 878.207   1
   5  -7 -11 2003.33 811.915   1
   2  -7 -11 2328.97 859.290   1
  -5   7  11 2139.99 857.093   1
  -7   2 -11 2297.93 907.341   1
  -2   7  11 1317.26 730.485   1
   2  -7 -11 870.494 749.571   2
  -7   5 -11 2355.11 960.917   1
   7  -2  12 240055. 8681.20   1
   2  -7 -12 258273. 9237.66   2
  -2   7  12 326444. 10022.4   1
   7  -5  12 235435. 8641.16   1
  -7   2 -12 210121. 8364.85   1
  -7   5 -12 195020. 7824.70   1
   5  -7 -12 299327. 9633.02   1
  -5   7  12 261950. 9069.14   1
   2  -7 -12 235300. 8698.34   1
   2  -7 -13 572.400 646.053   1
  -5   7  13-386.499 582.357   1
  -2   7  13 519.138 414.514   1
   7  -2  13 163.258 298.106   1
  -7   2 -13 168.627 315.220   1
   7  -5  13-275.910 424.945   1
   2  -7 -13-94.6693 508.418   2
   5  -7 -13 795.534 649.581   1
  -7   5 -13 450.472 341.870   1
   5  -7 -14 404.389 480.177   1
   2  -7 -14 1183.17 806.486   1
  -5   7  14 331.718 371.675   1
   7  -2  14 241.835 405.445   1
  -2   7  14 921.138 560.407   1
  -7   2 -14 922.573 460.308   1
  -7   5 -14-142.274 389.323   1
   5  -7 -15 1812.72 839.400   1
   2  -7 -15 2160.59 884.932   1
  -5   7  15 2999.70 1065.35   1
   7  -2  15 3129.46 1060.92   1
  -2   7  15 2817.77 1017.67   1
  -7   2 -15 2974.08 1067.44   1
  -2   7  16 271084. 9852.84   1
   7  -2  16 291414. 10465.7   1
   5  -7 -16 288387. 10409.0   1
  -7   2 -16 278940. 10094.4   1
   2  -7 -17 1310.17 717.052   1
   7  -2  17 977.661 599.648   1
  -7   2 -17 781.815 699.071   1
  -2   7  17 1056.39 604.405   1
   2  -7 -18 2796.62 1020.10   1
  -2   7  18 3301.21 1167.80   1
  -6  -1 -17 74037.4 5348.27   2
  -1  -6 -17 86519.5 5607.70   1
  -6  -1 -17 79206.7 5479.67   1
   1   6  17 81093.8 5400.91   1
   6   1  17 103989. 6188.14   1
  -1  -6 -17 95913.1 6323.06   2
  -6  -1 -16 2770.58 1199.72   2
   6   1  16 1538.67 788.947   1
  -1  -6 -16 2223.80 1039.07   1
  -6  -1 -16 2202.88 737.355   1
   1   6  16 1599.68 784.802   1
  -1  -6 -16 1307.37 790.247   2
  -1  -6 -15 71944.6 5287.12   2
  -6  -1 -15 87024.2 5677.31   2
  -1  -6 -15 74502.5 5102.71   1
   6   1  15 91441.3 5603.78   1
  -6  -1 -15 69591.6 4855.65   1
   1   6  15 94802.2 5552.69   1
  -1  -6 -14 143334. 7237.05   2
  -6  -1 -14 148135. 7351.54   2
   1   6  14 145078. 6894.91   1
   6   1  14 138607. 6842.08   1
  -1  -6 -14 154055. 7239.01   1
  -6  -1 -14 139684. 6910.16   1
  -6  -1 -13 31294.2 3270.18   2
  -1  -6 -13 24068.6 2905.63   2
   6   1  13 29401.7 2951.50   1
  -1  -6 -13 26659.0 2929.08   1
  -6  -1 -13 26586.6 2928.20   1
   1   6  13 28719.0 2938.66   1
   7  -6 -13 26723.6 2885.95   1
  -6  -1 -12 38917.8 3570.90   2
  -1  -6 -12 33169.1 3350.12   2
  -7   6  12 29447.7 2977.61   1
  -1  -6 -12 33325.1 3223.56   1
  -6  -1 -12 38598.4 3459.64   1
   6   1  12 33850.6 3184.87   1
   1   6  12 30441.2 3050.00   1
   7  -6 -12 39410.9 3512.19   1
  -6  -1 -11 35932.7 3548.47   2
   7  -6 -11 34241.7 3185.97   1
  -1  -6 -11 26253.1 2850.77   1
  -6  -1 -11 34377.5 3211.79   1
   1   6  11 33452.7 3065.97   1
   6   1  11 29716.4 3025.67   1
   1  -7  11 33201.6 3227.54   2
  -7   6  11 38200.8 3347.63   1
  -1  -6 -11 30742.1 3159.40   2
  -6  -1 -10 307485. 10072.4   2
   6  -7  10 239755. 8251.26   1
   1  -7  10 277240. 9365.99   2
  -1  -6 -10 271064. 9231.14   2
  -1  -6 -10 238829. 8706.50   1
  -7   6  10 411088. 10799.7   1
  -6   7 -10 283209. 9110.07   1
  -6  -1 -10 279365. 9271.23   1
   1   6  10 241174. 8582.41   1
   7  -6 -10 355942. 10384.6   1
   6   1  10 213862. 8248.26   1
  -1  -6  -9 98026.3 5217.83   1
   6   1   9 105774. 5469.20   1
  -6  -1  -9 111708. 5689.18   1
   1   6   9 113945. 5554.15   1
   1  -7   9 110913. 5710.65   2
  -1  -6  -9 98185.5 5457.77   2
   7  -6  -9 94153.7 5143.22   1
   6  -7   9 99570.8 5145.42   1
  -6   7  -9 118955. 5710.79   1
  -6  -1  -9 120370. 6184.33   2
  -7   6   9 106347. 5379.63   1
   6   1   8 199392. 7529.04   1
   6  -7   8 204148. 7263.19   1
  -6   7  -8 225329. 7898.04   1
   1  -7   8 178285. 7162.33   2
  -1  -6  -8 194958. 7423.22   1
  -7   6   8 118342. 5735.80   1
  -6  -1  -8 195238. 7435.16   1
  -6  -1  -8 219306. 8333.53   2
   1   6   8 191503. 7307.48   1
   7  -6  -8 148484. 6470.44   1
  -1  -6  -8 201517. 7756.27   2
  -7   6   7 207154. 7408.24   1
   6   1   7 169611. 6895.97   1
   7  -1  -7 200280. 6755.16   1
  -6  -1  -7 242039. 8582.93   2
   1  -7   7 166473. 6829.19   2
   6  -7   7 229245. 7614.26   1
  -1  -6  -7 160849. 6806.37   1
  -6  -1  -7 210308. 7638.14   1
   1   6   7 201543. 7387.77   1
   7  -6  -7 184534. 7101.62   1
  -6   7  -7 207241. 7527.81   1
  -1  -6  -7 198277. 7601.65   2
  -7   6   5 252262. 8070.23   1
   6   1   5 231666. 7849.71   1
  -1   7  -5 264375. 7325.66   1
   6  -7   5 248559. 8434.69   2
   6  -7   5 237928. 7784.39   1
  -1  -6  -5 222085. 7658.71   1
   7  -6  -5 196663. 7154.43   1
  -6   7  -5 235316. 7964.30   1
  -6  -1  -5 235099. 7854.58   1
   1   6   5 223508. 7641.42   1
   7  -1  -5 223709. 7284.65   1
  -7   1   5 207273. 6896.86   1
   7  -6  -5 295269. 8173.56   2
   1  -7   5 225706. 7587.39   2
   1  -7   5 226884. 6830.31   1
  -6  -1  -5 229600. 8158.83   2
  -1  -6  -5 253042. 8292.08   2
  -6  -1  -4 20339.8 2257.78   2
   1  -7   4 14003.2 1846.11   2
   6   1   4 11719.2 1773.38   1
  -1   7  -4 19253.5 1951.59   1
  -1  -6  -4 16491.6 2054.28   1
   7  -6  -4 12750.5 1817.79   1
   6  -7   4 17504.2 2188.68   2
   1   6   4 16060.0 1963.19   1
  -6  -1  -4 14871.7 1990.12   1
   7  -1  -4 13748.4 1741.76   1
   6  -7   4 15983.8 1966.23   1
  -7   1   4 19020.7 2040.92   1
   7  -6  -4 16300.0 1970.57   2
  -6   7  -4 13990.8 1906.51   1
   1  -7   4 17337.1 1800.38   1
  -1  -6  -4 21575.4 2286.74   2
  -7   6   4 14655.7 1976.35   1
   7  -6  -3 610927. 12754.1   1
   6  -7   3 557236. 12930.7   2
   1  -7   3 586687. 12591.6   2
  -1  -6  -3 574296. 12438.3   1
   6   1   3 518497. 11960.5   1
   1   6   3 561712. 12256.6   1
  -6  -1  -3 639503. 13188.0   1
  -7   6   3 537606. 12226.4   1
   6  -7   3 554620. 12157.8   1
  -1  -6  -3 514076. 12349.2   2
  -6   7  -3 566762. 12623.5   1
  -1   7  -2 273001. 7885.41   1
   7  -6  -2 292429. 8598.48   1
   6  -7   2 286156. 8351.69   1
  -6  -1  -2 321159. 8911.25   2
  -7   1   2 341295. 8678.85   2
  -7   6   2 293851. 8540.66   1
   6   1   2 256163. 8149.35   1
   1  -7   2 295561. 8079.26   1
   7  -6  -2 313133. 8778.70   2
  -1  -6  -2 279518. 8376.98   1
   1   6   2 246167. 7940.99   1
  -6  -1  -2 353979. 9289.45   1
   7  -1  -2 270334. 8071.87   1
  -7   1   2 288886. 8305.17   1
  -6   7  -2 276197. 8319.61   1
   1  -7   2 300786. 8663.74   2
  -1  -6  -2 267794. 8331.71   2
   6  -7   2 257126. 8570.09   2
   6   1   1 503142. 11604.0   1
   1  -7   1 550598. 12201.2   2
  -1  -6  -1 477529. 11163.3   1
   1  -7   1 570675. 11620.5   1
   6  -7   1 574272. 12689.9   2
  -1   7  -1 482129. 11037.5   1
   7  -1  -1 508036. 11542.0   1
   6  -7   1 554663. 12039.8   1
   7  -6  -1 511376. 11853.2   1
  -1  -6  -1 556539. 12125.2   2
  -7   6   1 518577. 11950.9   1
   6   1   0 44988.9 3282.02   1
  -6   7   0 58430.3 3745.32   1
   7  -6   0 54334.7 3598.41   1
  -1  -6   0 60977.5 3627.64   1
  -1   7   0 61144.8 3645.45   1
  -7   6   0 65226.1 3983.27   1
   6  -7   0 53709.1 3562.66   1
   1   6   0 55866.3 3471.18   1
   7  -1   0 56032.9 3577.01   1
  -6  -1   0 69547.1 3912.11   1
  -7   1   0 53516.4 3488.38   1
  -1  -6   0 49360.3 3388.74   2
   1  -7   0 53133.5 3415.76   1
   1  -7   0 47440.0 3417.65   2
  -6  -1   0 59039.6 3534.28   2
   6  -7   0 51435.3 3686.27   2
   1  -7  -1 18562.9 2075.03   2
  -6  -1   1 17091.3 1868.57   2
  -1  -6   1 16145.3 1971.70   2
   1  -7  -1 19192.5 2027.29   1
  -1  -6   1 18973.2 1992.86   1
  -1   7   1 17044.0 1967.17   1
   1   6  -1 16225.2 1849.91   1
   7  -1   1 16791.5 2061.61   1
  -6   7   1 19735.5 2179.05   1
  -6  -1   1 12410.8 1661.99   1
   6   1  -1 15910.5 1855.80   1
   7  -6   1 18192.0 2104.21   1
  -7   1  -1 18519.5 2040.52   1
   6  -7  -1 16836.1 2055.10   1
   6  -7  -1 20012.3 2171.62   2
  -7   6  -1 17764.9 2092.09   1
   6  -7  -3 2079.09 763.375   2
  -7   6  -3 2011.69 774.459   1
  -1   7   3 2219.04 733.216   1
   6  -7  -3 733.859 520.271   1
   7  -1   3 993.621 412.908   1
  -6  -1   3 916.633 496.470   2
  -6   7   3 750.295 478.273   1
  -1  -6   3 1337.12 693.335   2
  -1  -6   3 1766.59 616.494   1
   1  -7  -3 1006.04 534.163   1
   7  -6   3 1126.89 491.929   1
  -7   1  -3 1712.73 615.770   1
  -6  -1   3 1590.78 581.587   1
   1  -7  -3 3125.77 1037.93   2
   1   6  -3 1215.54 545.846   1
   6   1  -3 1813.62 708.905   1
  -6   7   4 215708. 7508.62   1
   6  -7  -4 236992. 7911.79   1
   6   1  -4 278607. 7826.82   1
  -1  -6   4 246384. 6824.15   1
   7  -6   4 265863. 8044.35   1
   1  -7  -4 236451. 7855.81   1
   1   6  -4 237234. 6806.79   1
   7  -1   4 251204. 8102.30   1
  -1   7   4 234992. 7783.76   1
  -6  -1   4 221913. 6920.05   1
  -7   1  -4 257354. 8034.26   1
   6  -7  -4 242308. 7849.05   2
  -7   6  -4 245435. 8155.71   1
  -1  -6   4 218107. 7389.93   2
   1  -7  -4 246575. 8073.18   2
   7  -6   5 287455. 8624.14   1
   6  -7  -5 269143. 8620.06   1
   6   1  -5 194212. 6661.03   1
   7  -1   5 255776. 8197.58   1
  -7   6  -5 293839. 8835.29   1
  -7   1  -5 255304. 8215.76   1
   1  -7  -5 250665. 8262.31   2
  -1   7   5 273341. 8444.66   1
   1  -7  -5 254013. 8300.24   1
   6  -7  -5 220578. 7489.17   2
  -1  -6   5 280615. 8274.22   2
  -6   7   5 278724. 8550.10   1
  -6  -1   5 297335. 7866.61   1
   7  -6   6 582625. 12894.4   1
  -6   7   6 589331. 12903.6   1
   6  -7  -6 535941. 12806.7   1
   1  -7  -6 608888. 13447.9   1
  -1   7   6 579849. 13032.2   1
   1  -7  -6 578382. 13147.5   2
  -7   1  -6 559531. 12734.4   1
  -7   6  -6 614286. 13578.4   1
   6  -7  -6 550486. 12445.5   2
  -6   7   7 506316. 12052.0   1
   7  -1   7 521967. 12282.6   1
   1  -7  -7 520522. 12508.1   1
  -1   7   7 439324. 11389.1   1
  -7   1  -7 510990. 12209.3   1
   6  -7  -7 543540. 12787.8   1
   6  -7  -7 521434. 12035.3   2
  -1  -6   7 537382. 11970.0   2
  -7   6  -7 499263. 12133.5   1
   1  -7  -7 520366. 12523.7   2
   7  -6   7 462431. 11498.7   1
   1  -7  -8 205.237 500.515   2
   6  -7  -8 106.243 347.663   1
   1  -7  -8 367.720 409.928   1
  -6   7   8 942.957 707.681   1
  -7   1  -8 228.365 466.433   1
  -1   7   8 461.500 457.683   1
  -1  -6   8 1199.32 803.059   2
   6  -7  -8-287.886 353.138   2
   7  -1   8 7.49165 343.063   1
   7  -6   8 487.887 448.565   1
  -7   6  -8 107.143 318.662   1
  -6   7   9 185634. 7302.35   1
   7  -1   9 207327. 7873.37   1
   1  -7  -9 200739. 7745.95   1
  -1  -6   9 220459. 7720.57   2
  -1   7   9 197913. 7501.08   1
   1  -7  -9 215430. 8086.41   2
  -7   1  -9 224366. 8200.61   1
  -7   6  -9 198007. 7463.95   1
   7  -6   9 195251. 7356.20   1
  -6   7  10 316734. 9746.88   1
   6  -7 -10 283069. 9511.72   1
  -1   7  10 301477. 9464.12   1
   7  -1  10 322765. 9867.91   1
   1  -7 -10 262614. 9145.87   1
  -7   1 -10 281934. 9391.23   1
   7  -6  10 340790. 10010.5   1
  -7   6 -10 296712. 9532.73   1
   1  -7 -10 351192. 10534.7   2
   7  -1  11 101918. 5504.39   1
  -6   7  11 97163.0 5442.17   1
   6  -7 -11 115505. 5906.88   1
  -1   7  11 85368.1 5153.78   1
  -7   1 -11 98412.2 5418.74   1
   7  -6  11 94330.9 5266.23   1
  -7   6 -11 96184.6 5411.56   1
   1  -7 -11 96653.5 5580.92   2
   1  -7 -11 84521.2 5175.57   1
   7  -1  12 17204.8 2308.97   1
  -6   7  12 15406.2 2247.64   1
   6  -7 -12 20584.7 2534.37   1
   1  -7 -12 20546.1 2544.36   1
  -1   7  12 18185.9 2397.87   1
   7  -6  12 19952.0 2462.86   1
   1  -7 -12 19705.9 2526.35   2
  -7   1 -12 18947.8 2455.36   1
  -7   6 -12 20519.0 2507.32   1
   7  -1  13 65369.5 4597.30   1
   6  -7 -13 74559.0 4926.20   1
   1  -7 -13 60776.3 4481.18   1
  -1   7  13 58629.3 4271.64   1
  -7   1 -13 62696.3 4511.92   1
  -6   7  13 46960.7 3964.79   1
  -7   6 -13 62608.8 4411.99   1
   1  -7 -13 56466.9 4579.54   2
   6  -7 -14 124036. 6581.19   1
   1  -7 -14 132979. 6706.27   1
  -1   7  14 96728.6 5693.54   1
  -7   1 -14 124691. 6518.56   1
   7  -1  14 115427. 6264.95   1
  -6   7  14 104462. 5967.43   1
   1  -7 -14 127826. 6734.29   2
  -7   1 -15 22949.2 2914.22   2
   6  -7 -15 24334.4 2989.01   1
   1  -7 -15 27626.1 3049.42   1
  -1   7  15 32811.7 3342.26   1
  -7   1 -15 28834.8 3100.40   1
   1  -7 -15 25934.9 3112.70   2
   7  -1  15 26018.9 3052.31   1
   1  -7 -16 46462.5 4066.83   1
  -7   1 -16 43364.0 4181.45   2
  -1   7  16 36968.4 3574.32   1
   7  -1  16 48806.9 4125.45   1
  -7   1 -16 40372.9 3785.64   1
  -7   1 -17 8218.81 1971.89   2
   1  -7 -17 12218.9 2172.47   1
  -1   7  17 11324.9 2059.02   1
   7  -1  17 9480.42 1858.39   1
  -7   1 -17 9549.29 1896.59   1
   0  -7   0 3004.49 1034.15   2
   7   0   0 2447.79 835.635   1
   0  -7   0 1815.21 683.534   1
   7  -7   0 3435.16 997.442   1
  -7   0   0 3109.26 890.751   2
   7  -7   0 2442.46 985.614   2
  -7   0   0 2432.27 836.688   1
   0   7   0 2337.17 748.089   1
  -7   7   0 2641.31 834.740   1
   0  -7  -1 1755.10 738.624   2
   7   0   1 663.843 520.860   1
  -7   0   1 842.838 468.882   2
  -7   0  -1 707.533 389.037   2
   7  -7   1 1012.49 648.472   1
  -7   7  -1-347.496 461.710   1
   7   0  -1 1121.89 586.975   1
   0  -7   1 1449.76 603.270   1
   0  -7  -1 1134.37 641.624   1
  -7   7   1 1069.10 646.253   1
   7  -7  -1 2663.10 804.742   1
   0   7  -1 1135.11 603.099   1
   7  -7  -1 1011.07 672.536   2
   0   7   1 1358.08 623.329   1
  -7   0   1 1156.32 648.084   1
   7  -7   1 1221.63 629.801   2
  -7   0  -1 1066.12 579.913   1
   0  -7   1 802.252 511.378   2
  -7   0  -2 426164. 11004.5   2
   0  -7   2 414169. 9995.69   1
   7  -7  -2 339897. 9697.99   1
   0  -7  -2 404947. 10537.8   1
   7   0   2 400752. 10406.5   1
   0   7  -2 385669. 9653.69   1
   7   0  -2 439839. 10673.7   1
   0  -7   2 367627. 10136.6   2
  -7   0  -2 444608. 10957.2   1
  -7   0   2 387474. 9916.08   1
   7  -7  -2 450839. 11131.8   2
   0   7   2 374153. 10143.2   1
   7  -7   2 375036. 10179.8   1
   7  -7   2 433261. 11363.0   2
   0  -7  -2 386464. 10305.2   2
  -7   7  -2 417561. 10728.3   1
  -7   7   2 363263. 10175.3   1
  -7   7   3 545499. 12466.3   1
  -7   0  -3 577646. 13099.9   2
   0  -7   3 548578. 11395.1   1
   0  -7  -3 494008. 11960.9   1
   7   0   3 550360. 12580.3   1
   7   0  -3 511150. 11794.1   1
   7  -7  -3 529404. 12125.5   1
  -7   0  -3 573411. 12625.5   1
   0   7   3 478572. 11639.5   1
  -7   7  -3 514113. 12262.3   1
   7  -7   3 473436. 11616.9   1
   0  -7   3 492855. 11823.7   2
   0   7  -3 508538. 11223.5   1
   0  -7  -3 485421. 11962.8   2
   0  -7   4 187454. 7048.23   2
   7  -7  -4 206023. 7422.56   2
  -7   0  -4 194809. 7544.62   2
   7   0   4 154985. 6660.19   1
   0   7  -4 220107. 6934.29   1
   0  -7  -4 210434. 7609.02   1
  -7   7   4 214302. 7488.02   1
   7   0  -4 178254. 6690.42   1
   7  -7   4 196321. 7158.58   1
   0   7   4 177360. 6930.69   1
  -7   0  -4 209754. 7596.84   1
   7  -7  -4 183331. 7135.38   1
   0  -7  -4 200301. 7436.58   2
  -7   7  -4 221357. 7799.28   1
  -7   7   5 367240. 10177.2   1
  -7   0  -5 380624. 10925.4   2
   0  -7  -5 365686. 10269.0   2
   0  -7   5 332520. 9578.41   2
   7  -7   5 316834. 9332.88   1
   7   0  -5 311016. 8933.31   1
   0   7   5 363645. 10016.8   1
  -7   0  -5 340051. 9808.52   1
   7  -7  -5 331868. 9715.63   1
  -7   0   5 410298. 9696.89   1
   7  -7  -5 433276. 10604.9   2
   7   0   5 296640. 9397.71   1
   0  -7  -5 338561. 9962.41   1
  -7   7  -5 363468. 10260.5   1
   7   0   6 562808. 13188.3   1
  -7   7   6 476599. 11857.3   1
  -7   0  -6 587385. 13984.6   2
   7  -7   6 525599. 12668.3   1
  -7   7  -6 602645. 13676.3   1
   0  -7  -6 558824. 12986.6   1
   0  -7  -6 518075. 12793.3   2
   0   7   6 554959. 12797.7   1
  -7   0  -6 553722. 12977.4   1
   7  -7  -6 562482. 12516.5   2
   0  -7   6 624568. 13441.7   2
   7  -7  -6 517823. 12665.1   1
  -7   7   7 89196.1 4939.98   1
   7  -7   7 107218. 5339.13   1
   7   0   7 100716. 5343.76   1
   0   7   7 95122.3 5086.05   1
  -7   0  -7 85668.8 5221.15   2
  -7   0  -7 102197. 5477.31   1
   7  -7  -7 102454. 5431.95   1
   0  -7  -7 91150.3 5113.24   1
   0  -7   7 102968. 5310.02   2
  -7   7  -7 95084.2 5245.18   1
   0  -7  -7 84324.9 5016.31   2
  -7   7   8 29900.4 2880.32   1
   0  -7   8 30045.9 2922.55   2
   7   0   8 32353.6 3065.11   1
  -7   0  -8 33779.9 3336.82   2
   7  -7  -8 36545.0 3246.37   1
   0  -7  -8 31599.0 3052.26   1
   0   7   8 36327.3 3170.17   1
  -7   0  -8 34816.2 3182.97   1
  -7   7  -8 37792.8 3281.24   1
   0  -7  -8 35087.7 3186.91   2
   7  -7   8 29343.2 2836.42   1
  -7   0  -9 212294. 8437.18   2
   7  -7  -9 151325. 6928.96   1
   0  -7  -9 162867. 7025.46   1
  -7   7   9 205067. 7744.10   1
   0   7   9 175420. 7090.04   1
  -7   0  -9 144190. 6644.60   1
   7   0   9 148398. 6687.02   1
   0  -7   9 146076. 6682.50   2
  -7   7  -9 156340. 6813.31   1
   7  -7   9 151460. 6616.91   1
   0  -7  -9 153359. 6959.76   2
   7  -7  10 296096. 9433.36   1
   7   0  10 262956. 9091.91   1
  -7   7  10 238748. 8670.87   1
  -7   0 -10 292816. 10288.6   2
   0  -7 -10 255951. 9015.93   1
   0   7  10 285943. 9320.28   1
  -7   0 -10 218028. 8419.69   1
  -7   7 -10 259143. 8853.59   1
   0  -7 -10 262211. 9390.84   2
   0  -7  10 220185. 8537.89   2
  -7   7  11 62551.7 4446.00   1
   0  -7 -11 58061.0 4207.08   1
   0  -7 -11 44728.8 3921.59   2
   7   0  11 42244.8 3644.32   1
   0   7  11 45989.1 3709.96   1
  -7   0 -11 51535.1 4039.51   1
   7  -7  11 51478.6 3965.49   1
  -7   7 -11 58240.6 4297.54   1
  -7   0 -11 51253.4 4123.89   2
  -7   7  12 16796.0 2347.21   1
  -7   0 -12 10806.6 2042.97   2
   0  -7 -12 9745.14 1804.37   1
   0   7  12 11740.3 1945.12   1
  -7   0 -12 10384.9 1821.54   1
   0  -7 -12 12345.4 2129.80   2
   7   0  12 13351.5 2090.32   1
  -7   7  13 25166.9 2897.57   1
  -7   0 -13 20517.2 2862.37   2
   0  -7 -13 19746.8 2604.67   1
   0   7  13 26355.9 2909.64   1
  -7   0 -13 26938.9 2935.09   1
   0  -7 -13 19426.4 2679.12   2
   7   0  13 19621.0 2609.63   1
  -7   0 -14 158474. 7810.59   2
   0   7  14 164182. 7404.22   1
   0  -7 -14 170475. 7721.88   1
   7   0  14 144480. 7062.51   1
   0  -7 -14 151999. 7533.10   2
  -7   0 -14 138153. 6920.97   1
  -7   0 -15 51679.9 4442.16   2
   0  -7 -15 64141.9 4717.76   1
   0   7  15 49425.6 4106.83   1
  -7   0 -15 50186.5 4217.86   1
   0  -7 -15 39752.2 3920.95   2
   7   0  15 57893.8 4511.69   1
   0  -7 -16 12774.9 2343.97   2
   0   7  16 18530.0 2572.93   1
  -7   0 -16 15188.0 2405.67   1
   0  -7 -16 19185.9 2635.82   1
   7   0  16 15447.7 2406.42   1
  -7   0 -16 15116.4 2518.87   2
  -7   0 -17 37418.5 3623.37   1
   7   0  17 34215.4 3615.72   1
  -4  -4 -17 411.812 546.871   2
  -4  -4 -16 343368. 11585.3   2
  -4  -4 -16 317199. 10804.2   1
   4   4  15-58.2525 449.583   1
  -4  -4 -15-58.7964 706.728   2
  -4  -4 -15 1088.75 755.570   1
   4   4  14 205.062 611.414   1
  -4  -4 -14 485.850 572.620   2
  -4  -4 -14 251.313 509.399   1
   4   4  13 107.370 400.280   1
  -4  -4 -13 1054.63 758.398   2
  -4  -4 -13-286.689 418.947   1
  -4  -4 -12 439476. 12332.6   1
   4   4  12 442076. 12041.3   1
  -4  -4 -12 419126. 12251.2   2
  -4  -4 -11 478.830 614.907   2
   4   4  11 595.581 715.786   1
  -4  -4 -11-102.983 530.436   1
   4   4  10 5966.18 1383.72   1
  -4  -4 -10 6749.67 1514.85   2
  -4  -4 -10 7090.96 1536.68   1
   4  -8  10 4947.90 1266.62   2
  -4  -4  -9 924.364 674.559   2
  -8   4   9-16.3510 267.602   1
   4   4   9-697.519 693.068   1
  -4  -4  -9 878.666 620.149   1
   8  -4  -9-274.008 297.559   1
   4  -8   9-177.743 573.674   2
  -4  -4  -8 478039. 12693.4   2
  -4  -4  -8 475504. 12332.0   1
   4   4   8 486957. 12389.4   1
   4  -8   8 522301. 13355.0   2
  -8   4   8 513577. 12604.8   1
  -8   4   7-36.0250 444.844   1
  -4   8  -7 29.6544 349.259   1
   4  -8   7 217.617 526.097   2
   4  -8   7-20.0245 314.694   1
   8  -4  -7 479.149 394.742   1
  -4  -4  -7 96.4145 422.216   1
  -4  -4  -7 428.386 378.119   2
   4   4   7 297.492 519.533   1
  -4   8  -6 373.340 334.226   1
  -4  -4  -6 900.388 691.468   2
   8  -4  -6 343.198 304.128   1
  -8   4   6 398.888 478.333   1
   4   4   6 463.955 602.196   1
   4  -8   6-95.8134 382.793   1
  -4  -4  -6-404.602 382.287   1
   4  -8   6-37.5950 396.389   2
  -4  -4  -5 308.177 362.877   2
  -4   8  -5 386.127 449.274   1
   4   4   5-327.537 304.959   1
   8  -4  -5 68.4100 426.056   1
  -8   4   5 436.356 441.927   1
  -4  -4  -5 104.849 314.373   1
   4  -8   5 32.9019 456.613   2
   4  -8   5-168.618 240.444   1
  -4  -4  -4 814405. 15646.5   1
   4  -8   4 810805. 16160.0   2
  -8   4   3-145.197 390.499   1
  -4  -4  -3 212.154 364.229   2
   8  -4  -3 89.5350 307.067   1
   4   4   3-206.783 266.657   1
  -4   8  -3 191.487 419.408   1
  -4  -4  -3-293.440 409.281   1
   4  -8   3-192.912 253.590   1
   4  -8   3-0.89880 377.186   2
  -4   8  -2 48711.1 3424.92   1
   8  -4  -2 46780.5 3434.27   1
   4  -8   2 61460.3 3859.50   1
   4  -8   2 53118.4 3781.82   2
  -4  -4  -2 49585.6 3449.69   1
   4   4   2 49572.8 3457.37   1
  -8   4   2 40117.6 3251.92   1
  -4  -4  -2 54488.4 3705.60   2
  -8   4   1-163.513 376.862   1
   8  -4  -1 792.030 601.018   1
  -4  -4  -1-233.119 343.617   2
   4  -8   1-143.398 375.730   1
   4   4   1 370.193 347.487   1
  -4   8  -1 171.441 339.186   1
  -4  -4  -1 723.130 618.849   1
   4  -8   1-875.983 473.514   2
  -8   4  -1-155.488 454.451   1
   4  -8  -1 362.003 384.863   2
   4   4  -1 393.699 485.615   1
   4  -8  -1 81.1776 320.577   1
  -4   8   1 505.263 643.825   1
   8  -4   1 465.243 324.855   1
  -4  -4   1 17.1468 239.938   1
  -4   8   2 209115. 7358.28   1
   4  -8  -2 213298. 7366.85   1
  -4  -4   2 208939. 6800.10   1
  -4  -4   2 195738. 6999.06   2
   4  -8  -2 206594. 7404.43   2
   8  -4   2 207538. 7334.77   1
   4   4  -2 220653. 7029.63   1
  -4  -4   3 945.917 431.995   2
   8  -4   3 412.359 354.950   1
   4   4  -3 24.4497 231.554   1
   4  -8  -3-344.900 352.272   1
  -4   8   3-691.414 669.989   1
  -4  -4   3 193.710 349.169   1
   4  -8  -3 1034.20 679.918   2
  -8   4  -3 42.8487 419.308   1
   4  -8  -4 641693. 13701.8   1
  -4   8   4 726670. 14524.7   1
   8  -4   4 566600. 12948.1   1
   4  -8  -4 682394. 14117.2   2
  -8   4  -4 592240. 13084.4   1
  -4  -4   5 12.1545 381.541   2
   4  -8  -5-29.7424 455.281   1
  -4   8   5 742.290 574.616   1
  -8   4  -5-46.2690 337.411   1
   4  -8  -5 84.8312 372.994   2
   8  -4   5 657.979 530.090   1
   4  -8  -6 38461.3 3161.05   1
  -4   8   6 34710.2 3030.53   1
   8  -4   6 39724.5 3255.71   1
  -8   4  -6 36431.6 3208.24   1
   4  -8  -6 37558.8 3242.68   2
  -4   8   7 125.731 432.124   1
   8  -4   7-77.4693 339.372   1
   4  -8  -7-45.6159 397.115   1
  -8   4  -7 110.589 407.670   1
   4  -8  -7 63.8183 265.675   2
   4  -8  -8 703033. 15347.6   2
   4  -8  -8 695667. 14871.7   1
   8  -4   8 664348. 14699.2   1
  -8   4  -8 674131. 14736.2   1
   4  -8  -9-6.93601 356.150   1
   8  -4   9 74.3278 514.992   1
  -4   8   9-137.104 519.896   1
  -8   4  -9-492.945 615.802   1
   4  -8  -9 823.147 486.884   2
  -8   4 -10 1498.89 698.329   1
   8  -4  10 2350.01 715.100   1
   4  -8 -10 1962.40 887.731   1
  -4   8  10 1790.63 838.767   1
   4  -8 -10 2200.79 797.954   2
   4  -8 -11 83.7466 408.754   2
   8  -4  11 43.9172 480.246   1
   4  -8 -11 630.038 712.733   1
  -4   8  11 482.811 484.716   1
  -8   4 -11-609.265 647.498   1
   4  -8 -12 337535. 10648.0   1
  -4   8  12 319014. 10440.2   1
   4  -8 -13-532.155 625.337   1
  -4   8  13 422.083 617.268   1
  -8   4 -13 1000.78 789.930   1
   8  -4  13-293.656 462.853   1
   8  -4  14 9833.72 1892.24   1
  -4   8  14 14941.0 2247.83   1
   4  -8 -14 12619.3 2023.93   1
  -8   4 -14 11348.2 1947.76   1
   4  -8 -15 94.7522 326.157   1
  -4   8  15 553.757 627.986   1
  -8   4 -15-62.6082 301.802   1
   8  -4  15 153.858 415.040   1
  -4   8  16 260818. 9940.30   1
  -8   4 -16 277944. 10326.3   1
   4  -8 -17 352.515 282.397   1
  -4   8  17 11.8457 361.993   1
  -3  -5 -17 18084.2 2649.01   2
  -3  -5 -16 11225.8 2099.32   2
  -3  -5 -16 14013.4 2249.62   1
   3   5  16 14861.7 2195.96   1
  -5  -3 -16 11543.9 2070.87   1
   5   3  16 12569.7 2041.77   1
  -5  -3 -16 14810.1 2317.23   2
  -3  -5 -15 197676. 8764.44   2
  -5  -3 -15 218648. 8994.48   2
  -3  -5 -15 218659. 8767.23   1
  -5  -3 -15 196772. 8416.43   1
   3   5  15 192224. 8067.43   1
   5   3  15 202173. 8377.71   1
  -3  -5 -14 127403. 6547.84   1
  -5  -3 -14 138251. 6957.43   1
   3   5  14 158588. 7187.46   1
  -3  -5 -14 148652. 7337.73   2
  -5  -3 -14 137382. 6990.98   2
   5   3  14 144984. 7007.46   1
  -5  -3 -13 61434.5 4512.10   2
  -3  -5 -13 67423.9 4719.63   1
  -5  -3 -13 69735.4 4829.98   1
   5   3  13 58322.5 4288.35   1
   3   5  13 61454.0 4345.55   1
  -3  -5 -13 61094.3 4724.17   2
  -5  -3 -12 6069.91 1426.29   2
   5   3  12 5543.85 1418.75   1
   3   5  12 3822.69 1054.68   1
  -3  -5 -12 5330.49 1394.43   2
  -3  -5 -12 4441.21 1244.16   1
  -5  -3 -12 7572.84 1480.95   1
   3   5  11 1627.51 765.739   1
  -3  -5 -11 1505.73 826.799   2
  -5  -3 -11 2366.88 927.343   2
   3  -8  11 1406.24 824.598   2
   5   3  11 1741.92 947.348   1
  -3  -5 -11 2200.60 885.510   1
  -5  -3 -11 1775.45 841.967   1
  -3  -5 -10 376738. 11150.6   2
  -5  -3 -10 313225. 10307.1   2
   8  -5 -10 268541. 9463.17   1
   5   3  10 409335. 11330.7   1
  -3  -5 -10 347228. 10629.6   1
  -5  -3 -10 338038. 10297.2   1
  -8   5  10 233913. 8734.32   1
   3   5  10 366157. 10537.8   1
   3  -8  10 324997. 10517.1   2
  -5  -3  -9 80019.6 4943.81   2
  -3  -5  -9 68615.7 4586.54   2
  -3  -5  -9 70757.7 4688.19   1
  -5  -3  -9 68844.6 4431.59   1
   3   5   9 65642.7 4352.90   1
   5  -8   9 66741.7 4598.98   2
   3  -8   9 68229.0 4635.53   2
   8  -5  -9 88488.4 5058.92   1
   5   3   9 71363.3 4551.01   1
  -8   5   9 70137.5 4482.32   1
  -5  -3  -8 112247. 5743.05   2
  -8   3   8 147608. 6288.82   1
   8  -3  -8 145879. 6307.83   1
  -5   8  -8 139755. 6227.47   1
   3  -8   8 121216. 6064.72   2
   5  -8   8 109828. 5342.72   1
  -3  -5  -8 123782. 6072.45   1
  -5  -3  -8 119254. 5952.55   1
   8  -5  -8 145752. 6438.68   1
  -8   5   8 152484. 6504.89   1
  -3  -5  -8 113746. 5827.37   2
   3   5   8 127314. 6054.00   1
   5   3   8 135983. 6353.90   1
   5  -8   8 116427. 5975.30   2
  -8   3   7 382339. 10237.3   1
  -5  -3  -7 267672. 9063.91   2
   8  -3  -7 219909. 7870.54   1
   5  -8   7 325179. 10004.9   2
  -3  -5  -7 258828. 8820.01   1
  -5  -3  -7 239866. 8535.03   1
   5  -8   7 276345. 8583.82   1
  -8   5   7 386497. 10423.8   1
  -5   8  -7 301455. 9165.12   1
   3   5   7 296590. 9082.47   1
   8  -5  -7 245447. 8461.69   1
   3  -8   7 264335. 9068.79   2
   5   3   7 264650. 8790.01   1
  -3  -5  -7 250326. 8831.10   2
  -5  -3  -6 259294. 8739.25   2
   8  -3  -6 306207. 9074.67   1
   3  -8   6 286833. 8190.06   1
  -3  -5  -6 292728. 9219.84   1
   5  -8   6 274361. 9161.28   2
  -5  -3  -6 253428. 8640.14   1
   5   3   6 255861. 8637.86   1
  -8   5   6 292740. 8942.48   1
  -8   3   6 257102. 8394.94   1
  -3   8  -6 263015. 8186.07   1
  -3  -5  -6 235655. 8453.53   2
   8  -5  -6 297782. 9153.62   1
   3   5   6 263479. 8580.01   1
   5  -8   6 293364. 8848.02   1
   3  -8   6 256535. 8704.84   2
  -5   8  -6 291421. 8916.64   1
  -3   8  -5 318297. 8891.79   1
   5  -8   5 412187. 10272.5   1
   5  -8   5 351187. 10178.3   2
  -5  -3  -5 395343. 10530.6   1
  -8   5   5 317717. 9539.66   1
   8  -5  -5 318296. 9473.96   1
  -3  -5  -5 323279. 9695.72   1
   3   5   5 354998. 9976.05   1
  -5   8  -5 386312. 10097.3   1
  -8   3   5 269672. 8768.20   1
   3  -8   5 380901. 10556.0   2
  -5  -3  -5 358385. 10236.8   2
   8  -3  -5 294774. 9018.78   1
   5   3   5 374196. 10332.8   1
   3  -8   5 325013. 8995.36   1
  -3  -5  -5 322495. 9654.66   2
  -5  -3  -4 16995.5 2130.79   2
  -3   8  -4 18397.7 2060.85   1
   8  -3  -4 15606.5 1965.49   1
   3  -8   4 14218.7 2000.83   2
   5  -8   4 18417.0 2070.72   1
  -8   3   4 22518.0 2393.75   1
  -5   8  -4 19815.7 2252.20   1
  -5  -3  -4 18678.3 2200.41   1
   8  -5  -4 15899.6 2061.38   1
   3   5   4 16387.4 2068.18   1
   5  -8   4 19645.3 2338.88   2
   5   3   4 18883.3 2240.34   1
  -8   5   4 19854.3 2295.18   1
  -3  -5  -4 16029.3 2090.94   1
  -3  -5  -4 14389.0 1958.52   2
  -5   8  -3 109009. 5253.48   1
  -3   8  -3 118695. 5331.15   1
   3  -8   3 104078. 5127.17   1
  -3  -5  -3 94864.7 5086.91   1
   5  -8   3 121795. 5435.47   1
   5   3   3 117801. 5531.93   1
   8  -5  -3 116675. 5472.83   1
  -5  -3  -3 128641. 5735.28   1
  -5  -3  -3 130040. 5829.96   2
   3   5   3 116826. 5433.99   1
   5  -8   3 122209. 5827.50   2
  -8   3   3 138030. 5861.95   1
   3  -8   3 128843. 5908.71   2
  -8   5   3 91764.7 5023.22   1
  -3  -5  -3 125316. 5765.09   2
  -8   5   2 700606. 14678.4   1
   5   3   2 725981. 14577.9   1
  -5  -3  -1 35561.7 2946.92   2
  -5   8  -1 36829.3 2922.97   1
   3  -8   1 33386.6 2854.24   1
   5  -8   1 32287.8 2886.91   1
  -3   8  -1 31617.0 2783.50   1
  -8   5   1 38910.9 3216.66   1
   8  -5  -1 39250.4 3132.04   1
  -3  -5  -1 31685.8 2816.29   1
  -5  -3  -1 50922.4 3470.82   1
  -3  -5  -1 39473.7 3138.21   2
   3   5   1 35042.8 2823.14   1
  -8   3   1 45299.1 3399.71   1
   5  -8   1 38972.1 3180.84   2
   3  -8   1 36266.7 3086.80   2
   8  -3  -1 32964.6 2825.66   1
   5   3   1 39535.7 3143.24   1
  -8   5   0 16994.4 2096.77   1
   8  -3   0 11678.3 1656.30   1
   5  -8   0 13596.6 1865.38   1
   8  -5   0 11008.0 1670.20   1
  -3  -5   0 13744.5 1801.42   1
  -5  -3   0 12813.6 1718.31   1
  -5   8   0 12930.2 1794.80   1
   3   5   0 9461.47 1495.72   1
  -3   8   0 11383.3 1647.79   1
  -8   3   0 12243.6 1748.67   1
   3  -8   0 11528.7 1659.01   1
   5  -8   0 11375.9 1776.86   2
   5   3   0 13673.6 1850.59   1
  -3  -5   0 13344.9 1754.80   2
   3  -8   0 11376.0 1747.10   2
  -5  -3   0 12526.8 1760.53   2
  -5   8   1 364863. 9912.84   1
   5  -8  -1 414166. 10630.8   1
   8  -5   1 383127. 10186.3   1
   3  -8  -1 403789. 10185.4   1
  -8   5  -1 331216. 9750.97   1
  -3   8   1 362522. 9976.77   1
  -3  -5   1 394690. 9774.05   1
  -5  -3   1 360358. 9453.17   1
   3   5  -1 353381. 9220.71   1
   5   3  -1 327033. 9167.34   1
   3  -8  -1 355699. 9889.65   2
   8  -3   1 337155. 9625.39   1
   5  -8  -1 371104. 10210.0   2
  -3  -5   1 354309. 9652.19   2
  -8   3  -1 435543. 10710.8   1
  -5  -3   1 391445. 9804.14   2
   5   3  -2 342804. 9037.65   1
  -8   5  -2 385162. 10383.4   1
   8  -5   2 307243. 9162.05   1
  -5   8   2 309116. 9075.66   1
  -5  -3   2 343924. 9067.74   2
   5  -8  -2 290533. 8999.47   1
   3  -8  -2 295311. 8893.19   1
  -3   8   2 310000. 9112.99   1
  -3  -5   2 323603. 8650.53   1
  -5  -3   2 345314. 9001.31   1
   3   5  -2 308819. 8340.19   1
   3  -8  -2 360479. 9878.92   2
  -8   3  -2 325122. 9364.34   1
   8  -3   2 300551. 8999.32   1
  -3  -5   2 279380. 8615.63   2
   5  -8  -2 331482. 9512.16   2
  -5   8   3 305562. 9144.70   1
   5  -8  -3 324297. 9531.30   1
   3  -8  -3 301760. 9091.55   1
   3  -8  -3 308273. 9327.77   2
  -3   8   3 328683. 9477.32   1
   5   3  -3 335931. 8816.31   1
  -3  -5   3 326015. 8451.57   1
  -5  -3   3 369531. 9119.20   1
   5  -8  -3 319571. 9396.51   2
   8  -5   3 332632. 9468.00   1
   3   5  -3 354343. 8796.36   1
   8  -3   3 316171. 9364.23   1
  -8   3  -3 303584. 9164.89   1
  -3  -5   3 349904. 9415.82   2
  -5  -3   3 312456. 8764.85   2
  -8   5  -3 337274. 9688.36   1
   5  -8  -4 108721. 5390.92   1
  -5   8   4 98183.9 5161.33   1
   3  -8  -4 97605.7 5006.03   1
  -3   8   4 100358. 5126.91   1
  -5  -3   4 104006. 4743.43   2
  -8   5  -4 108784. 5352.67   1
   8  -3   4 93853.7 5056.42   1
  -8   3  -4 93403.9 4944.36   1
   5  -8  -4 103704. 5291.99   2
   3  -8  -4 105597. 5349.91   2
  -3  -5   4 94633.2 4817.39   2
   8  -5   4 98290.1 5009.01   1
   5  -8  -5 4432.16 1085.61   1
   3  -8  -5 3555.26 1018.33   1
  -5   8   5 3567.17 1051.21   1
   8  -3   5 4964.72 1164.71   1
  -3   8   5 4445.20 1150.74   1
  -8   3  -5 4299.25 1075.83   1
   8  -5   5 4008.09 1045.74   1
   5  -8  -5 3981.08 1105.48   2
   3  -8  -5 4144.41 1117.11   2
  -3  -5   5 2783.61 828.176   2
  -8   5  -5 5303.77 1256.19   1
  -8   5  -6 582921. 13412.8   1
  -5   8   6 624241. 13870.4   1
   5  -8  -6 599981. 13569.5   1
   3  -8  -6 600448. 13597.0   1
  -3   8   6 659639. 14153.3   1
   8  -3   6 686683. 14519.5   1
   8  -5   6 685404. 14311.2   1
   3  -8  -6 625744. 14047.1   2
  -5   8   7 144804. 6417.89   1
   5  -8  -7 130631. 6093.11   1
  -3   8   7 132267. 6180.93   1
   3  -8  -7 122251. 5969.29   2
   8  -3   7 133005. 6178.60   1
  -8   3  -7 142972. 6292.05   1
   8  -5   7 122957. 5840.21   1
  -8   5  -7 129149. 6095.94   1
   3  -8  -7 125071. 5974.07   1
   5  -8  -7 130831. 6116.14   2
   5  -8  -8 53600.9 3825.72   1
   3  -8  -8 55375.9 3941.14   1
  -3   8   8 54672.6 3960.02   1
   8  -3   8 59579.6 4105.76   1
  -8   3  -8 54982.3 3934.28   1
   8  -5   8 62935.2 4123.85   1
  -8   5  -8 58830.8 4141.59   1
   5  -8  -8 55928.9 3988.67   2
   3  -8  -8 59963.4 4186.45   2
  -5   8   8 53472.7 3878.20   1
   5  -8  -9 424639. 11437.3   1
   3  -8  -9 405238. 11287.1   1
  -5   8   9 427972. 11590.0   1
  -3   8   9 384438. 10919.6   1
   8  -5   9 425937. 11487.4   1
  -8   3  -9 392307. 11082.3   1
   8  -3   9 408522. 11189.2   1
   5  -8  -9 411804. 11332.3   2
   3  -8  -9 408624. 11423.5   2
   3  -8 -10 215615. 8223.51   1
   5  -8 -10 207654. 7978.66   1
  -5   8  10 209299. 8180.21   1
   8  -3  10 194574. 7743.81   1
  -3   8  10 202017. 7979.54   1
   8  -5  10 203435. 8073.79   1
  -8   3 -10 238939. 8536.81   1
  -8   5 -10 196812. 7967.96   1
   5  -8 -10 239423. 8439.75   2
   3  -8 -10 223575. 8461.74   2
   5  -8 -11 40866.3 3547.00   1
  -5   8  11 34940.8 3256.23   1
   3  -8 -11 40627.5 3586.89   1
   8  -3  11 40413.4 3516.40   1
  -3   8  11 35603.3 3325.85   1
   8  -5  11 37829.2 3462.36   1
  -8   3 -11 40172.4 3482.47   1
  -8   5 -11 35953.1 3311.06   1
   3  -8 -11 41306.3 3695.00   2
   3  -8 -12 1286.30 868.679   2
  -8   5 -12 1203.88 703.184   1
  -8   3 -12 1315.72 677.689   1
   8  -5  12 1110.58 546.989   1
   5  -8 -12 800.448 528.249   1
   3  -8 -12 1320.18 744.072   1
  -5   8  12 1351.46 701.044   1
  -3   8  12 1434.67 641.692   1
   8  -3  12 1806.94 801.658   1
   8  -5  13 7455.57 1581.13   1
   5  -8 -13 6851.05 1461.64   1
   3  -8 -13 4976.37 1181.94   1
  -8   5 -13 6484.92 1481.88   1
  -5   8  13 8115.55 1629.24   1
  -3   8  13 6264.03 1445.67   1
   8  -3  13 5481.52 1361.74   1
  -8   3 -13 6679.40 1493.43   1
   8  -3  14 180912. 7930.55   1
   5  -8 -14 201157. 8211.40   1
  -5   8  14 160911. 7605.60   1
   8  -5  14 185361. 8235.61   1
   3  -8 -14 161183. 7473.60   1
  -3   8  14 231667. 8862.42   1
  -8   3 -14 195386. 8278.88   1
  -8   5 -14 163659. 7636.05   1
   8  -3  15 94193.8 5818.25   1
   5  -8 -15 97077.1 5897.10   1
   3  -8 -15 91009.7 5602.53   1
  -3   8  15 87484.4 5589.56   1
  -8   3 -15 92185.0 5692.64   1
  -8   5 -15 87139.5 5625.15   1
   8  -3  16 70728.4 5194.80   1
  -5   8  16 68402.3 5068.85   1
   5  -8 -16 59677.7 4658.35   1
   3  -8 -16 69568.5 5010.34   1
  -3   8  16 78767.6 5318.23   1
  -8   3 -16 67227.6 4930.24   1
   3  -8 -17 44403.8 4083.88   1
  -3   8  17 81638.7 5546.12   1
  -2  -6 -17 57009.4 4814.00   2
  -2  -6 -16 1051.37 528.009   2
  -6  -2 -16 1432.17 850.080   2
   6   2  16 749.170 466.851   1
  -2  -6 -16 1115.86 717.592   1
  -6  -2 -16 2082.68 937.217   1
   2   6  16 1434.32 675.476   1
  -6  -2 -15 64717.7 4871.77   2
  -2  -6 -15 80901.3 5308.75   1
  -6  -2 -15 71840.4 4925.88   1
   2   6  15 83274.1 5275.00   1
   6   2  15 71948.3 5053.76   1
  -2  -6 -15 67264.2 5026.86   2
   6   2  14 81611.1 5255.33   1
  -6  -2 -14 77192.0 5123.05   2
  -2  -6 -14 77559.2 5064.17   1
  -6  -2 -14 77082.2 5117.81   1
   2   6  14 91328.1 5461.04   1
  -2  -6 -14 81458.0 5380.00   2
  -6  -2 -13 79103.0 5152.81   2
  -2  -6 -13 78170.8 5248.14   2
  -2  -6 -13 75569.5 4971.71   1
  -6  -2 -13 62650.0 4554.81   1
   2   6  13 81061.2 4993.94   1
   6   2  13 68310.7 4787.07   1
   8  -6 -12 27329.5 2958.44   1
  -2  -6 -12 29362.7 3086.55   1
  -6  -2 -12 33185.2 3378.48   2
  -6  -2 -12 26454.5 2943.32   1
   2   6  12 25533.7 2797.73   1
   2  -8  12 23982.8 2892.51   2
   6   2  12 24257.2 2827.67   1
  -2  -6 -12 31362.8 3261.98   2
  -2  -6 -11 21229.2 2725.78   2
  -6  -2 -11 17945.6 2446.48   2
   8  -6 -11 19624.1 2479.79   1
  -2  -6 -11 18233.1 2400.19   1
  -6  -2 -11 20454.1 2521.05   1
   2   6  11 17051.7 2262.56   1
   2  -8  11 16714.3 2387.51   2
   6   2  11 21912.2 2589.07   1
  -8   6  11 15370.8 2175.06   1
   6   2  10 255351. 8977.04   1
   8  -6 -10 257893. 9000.27   1
  -2  -6 -10 250276. 8918.93   1
  -6  -2 -10 229398. 8598.73   1
   2   6  10 257262. 8835.99   1
   2  -8  10 223168. 8722.30   2
  -6  -2 -10 285565. 9677.85   2
  -2  -6 -10 236490. 8915.94   2
  -8   6  10 271304. 9243.22   1
  -6   8  -9 9858.01 1660.59   1
   8  -6  -9 11794.7 1846.18   1
  -6  -2  -9 9161.80 1698.67   2
   2  -8   9 11963.0 1852.80   2
   6   2   9 9588.67 1728.92   1
  -2  -6  -9 8945.10 1697.64   1
  -6  -2  -9 9519.14 1683.51   1
   2   6   9 9850.11 1683.32   1
   6  -8   9 9770.88 1699.47   1
  -2  -6  -9 12771.1 2030.19   2
  -8   6   9 12393.7 1904.43   1
  -6  -2  -8 186644. 7777.53   2
  -6   8  -8 212051. 8076.80   1
   8  -6  -8 185724. 7373.20   1
   6   2   8 185472. 7497.21   1
  -2  -6  -8 231975. 8342.93   1
  -6  -2  -8 213625. 8129.43   1
   2   6   8 230025. 8081.09   1
   2  -8   8 200814. 7885.78   2
   6  -8   8 238168. 8133.21   1
  -2  -6  -8 205338. 8095.12   2
  -8   6   8 216525. 7962.70   1
   8  -6  -7 110285. 5586.94   1
  -6  -2  -7 121516. 6056.67   2
   6   2   7 114559. 5764.62   1
   6  -8   7 116968. 5964.28   2
  -2  -6  -7 105873. 5608.15   1
   6  -8   7 118409. 5672.93   1
  -6   8  -7 125562. 6001.27   1
  -6  -2  -7 122436. 5994.78   1
   2   6   7 135815. 6075.73   1
   8  -2  -7 115655. 5557.71   1
   2  -8   7 119829. 5963.30   2
  -2  -6  -7 137497. 6432.29   2
  -8   6   7 150378. 6468.83   1
  -6  -2  -6 820314. 16501.8   2
   6  -8   6 764385. 16420.2   2
  -2  -6  -6 817939. 16147.5   1
  -6  -2  -6 787085. 16065.1   1
   2   6   6 810977. 15855.9   1
  -8   6   6 796367. 15906.9   1
   2  -8   6 803221. 16249.5   2
  -6  -2  -5 357570. 10312.7   2
  -2   8  -5 411193. 10072.2   1
  -2  -6  -5 362064. 10379.1   1
  -6  -2  -5 384154. 10721.3   1
   2   6   5 370297. 10194.9   1
  -2  -6  -5 376668. 10781.9   2
   6  -8   5 380135. 10335.6   1
  -8   2   5 365375. 9873.14   1
   6  -8   5 445376. 11682.6   2
   8  -2  -5 327636. 9658.77   1
   6   2   5 386144. 10888.9   1
   8  -6  -5 399916. 10818.4   1
   2  -8   5 393455. 10936.1   2
  -6   8  -5 390091. 10688.1   1
  -8   6   5 404079. 10825.1   1
  -2  -6  -4 7751.56 1561.50   2
   8  -6  -4 7980.87 1559.12   1
  -6  -2  -4 6726.88 1403.31   2
   2  -8   4 9025.28 1433.36   1
  -8   6   4 5133.50 1283.39   1
   6  -8   4 7470.70 1383.53   1
  -6   8  -4 7760.61 1389.38   1
   2   6   4 7010.61 1340.07   1
  -2   8  -4 7092.19 1295.41   1
  -2  -6  -4 7926.03 1505.93   1
   6  -8   4 9597.61 1712.50   2
   6   2   4 8126.93 1567.50   1
  -6  -2  -4 6073.40 1294.16   1
   2  -8   4 8928.85 1600.60   2
   8  -2  -4 7001.34 1387.39   1
   6   2   3 454259. 11638.6   1
  -6  -2  -3 517556. 12035.7   2
   6  -8   3 513295. 11758.3   1
  -2   8  -3 495458. 11434.0   1
   2  -8   3 439158. 10757.7   1
  -2  -6  -3 512796. 12064.2   1
  -6  -2  -3 422464. 11126.6   1
   2   6   3 459501. 11350.0   1
   8  -6  -3 477391. 11688.0   1
   8  -2  -3 468086. 11416.3   1
   2  -8   3 416422. 11021.8   2
   6  -8   3 506811. 12412.6   2
  -8   6   3 397920. 10950.3   1
  -2  -6  -3 481753. 12032.0   2
  -6   8  -3 467153. 11585.9   1
  -6  -2  -2 108994. 5364.82   2
   2  -8   2 128011. 5527.50   1
  -2   8  -2 106232. 5145.06   1
   6  -8   2 116384. 5800.48   2
   6  -8   2 115376. 5410.52   1
  -2  -6  -2 110517. 5414.61   1
  -6  -2  -2 117800. 5483.79   1
   2   6   2 111519. 5338.07   1
   8  -6  -2 137051. 5973.99   1
  -8   2   2 111582. 5371.76   1
  -2  -6  -2 127188. 5858.87   2
   6   2   2 109568. 5464.80   1
   2  -8   2 110991. 5516.65   2
  -8   6   2 119359. 5630.35   1
  -6   8  -2 116013. 5526.25   1
  -6  -2  -1 259678. 8128.27   2
   6   2   1 231955. 7878.76   1
  -6   8  -1 219681. 7740.53   1
   2  -8   1 225137. 7511.39   1
  -2   8  -1 244823. 7963.01   1
  -2  -6  -1 219609. 7611.40   1
  -2  -6  -1 219474. 7778.30   2
   6  -8   1 233825. 7805.98   1
   8  -6  -1 232220. 7955.67   1
   2   6   1 234092. 7702.62   1
   2  -8   1 215506. 7679.22   2
   8  -2  -1 236957. 7906.69   1
  -8   2   1 243420. 8048.08   1
   6  -8   1 232374. 8145.81   2
  -8   6   1 227371. 7913.70   1
  -6  -2   0 14294.3 1871.07   2
  -6   8   0 12961.6 1824.72   1
   6   2   0 11887.9 1706.77   1
   6  -8   0 12299.0 1767.35   1
   6  -8   0 15657.8 2101.45   2
   2  -8   0 16764.5 1987.95   1
  -2   8   0 14762.4 1956.13   1
  -2  -6   0 14606.9 1872.59   1
   8  -6   0 14162.0 1951.56   1
  -6  -2   0 13648.3 1863.84   1
   2   6   0 15236.2 1925.42   1
   8  -2   0 11948.1 1831.18   1
  -8   2   0 16404.2 2054.09   1
   2  -8   0 16584.4 2147.35   2
  -8   6   0 16302.2 2070.64   1
  -2  -6   0 13037.1 1809.11   2
   6  -8  -1 986.393 432.437   2
  -2  -6   1 1233.77 672.414   2
  -6  -2   1 1390.83 658.719   2
  -8   6  -1 878.666 608.333   1
   2  -8  -1 758.038 462.556   1
  -6   8   1 1578.43 786.790   1
  -8   2  -1 514.224 368.588   1
   6  -8  -1 1561.83 630.220   1
  -2  -6   1 1374.58 539.005   1
   8  -6   1 482.245 413.540   1
  -2   8   1 1415.41 554.912   1
   8  -2   1 1478.67 663.060   1
   6   2  -1 1509.78 612.489   1
  -6  -2   1 1165.55 516.021   1
   2  -8  -1 3595.12 989.682   2
   2   6  -1 692.552 397.436   1
   6   2  -2 487368. 11474.8   1
  -6   8   2 513978. 12278.9   1
  -2  -6   2 508371. 12008.3   2
  -8   6  -2 519955. 12532.1   1
   2  -8  -2 542349. 12219.5   1
  -2   8   2 537382. 12389.3   1
  -2  -6   2 553653. 11841.3   1
   6  -8  -2 536286. 12559.6   1
   2  -8  -2 542354. 12678.3   2
  -6  -2   2 567895. 12251.4   1
   8  -2   2 529789. 12486.6   1
   8  -6   2 558630. 12487.5   1
   6  -8  -2 501150. 12320.7   2
  -6  -2   2 558471. 11975.4   2
   6  -8  -3 1098.70 516.883   2
  -6  -2   3 1260.39 557.754   2
  -8   6  -3 1641.80 846.241   1
  -8   2  -3 1164.38 501.886   1
   6  -8  -3 1222.50 661.104   1
   8  -6   3 1074.20 773.289   1
  -6   8   3 1422.92 679.550   1
   2  -8  -3 1127.23 523.752   1
  -2  -6   3 1268.93 631.943   1
   8  -2   3 1877.56 680.252   1
   2  -8  -3 780.582 734.120   2
  -2   8   3 937.723 648.594   1
   6   2  -3 1760.43 645.778   1
  -6  -2   3 1413.58 663.185   1
   2   6  -3 1651.40 697.156   1
  -2  -6   3 2042.23 872.621   2
   8  -6   4 454993. 11390.6   1
  -6   8   4 465020. 11589.8   1
  -2   8   4 459482. 11458.0   1
  -8   6  -4 490459. 12009.4   1
   6  -8  -4 438643. 11522.8   1
   8  -2   4 437620. 11398.5   1
   2  -8  -4 463729. 11558.5   1
  -8   2  -4 405790. 10664.1   1
   6  -8  -4 435056. 11334.6   2
  -2  -6   4 412415. 10715.5   2
   2  -8  -4 486185. 11943.7   2
   2  -8  -5 210509. 7865.60   2
   6  -8  -5 208670. 7732.21   1
  -2  -6   5 248843. 8077.21   2
  -8   6  -5 224899. 7986.01   1
   2  -8  -5 208094. 7681.64   1
  -2   8   5 215545. 7721.58   1
   8  -2   5 211663. 7735.00   1
  -6   8   5 197668. 7409.27   1
   8  -6   5 216596. 7723.49   1
  -8   2  -5 226774. 7945.90   1
   6  -8  -5 225878. 8029.25   2
  -6   8   6 736291. 15235.3   1
   2  -8  -6 717388. 15192.6   1
  -2   8   6 723387. 15093.1   1
   8  -6   6 712697. 15011.6   1
   2  -8  -6 735032. 15701.1   2
  -6   8   7 338221. 10000.0   1
   6  -8  -7 346086. 10298.7   1
   2  -8  -7 295828. 9616.27   1
   8  -2   7 308375. 9579.01   1
  -2   8   7 327253. 9747.32   1
   8  -6   7 317636. 9696.71   1
  -2  -6   7 349440. 9771.67   2
  -8   2  -7 277330. 9132.15   1
   2  -8  -7 321762. 10019.7   2
  -8   6  -7 318404. 9699.68   1
   6  -8  -7 302016. 9550.68   2
   2  -8  -8 7522.44 1487.88   2
   8  -2   8 9711.26 1650.69   1
  -8   6  -8 7003.49 1409.57   1
   6  -8  -8 8518.22 1527.80   1
   2  -8  -8 6452.98 1431.93   1
  -6   8   8 8346.30 1568.23   1
  -2   8   8 6245.32 1391.92   1
   6  -8  -8 10753.4 1778.19   2
   8  -6   8 8280.85 1562.48   1
  -8   2  -8 8783.41 1475.68   1
  -6   8   9 178650. 7417.57   1
   6  -8  -9 206353. 7988.23   1
   8  -2   9 165418. 7191.74   1
   2  -8  -9 198300. 7892.63   1
  -2   8   9 206174. 7837.31   1
  -8   2  -9 190301. 7666.37   1
   8  -6   9 208633. 7926.45   1
  -8   6  -9 216333. 8168.68   1
   2  -8  -9 193603. 7977.87   2
   8  -2  10 108665. 5861.90   1
   2  -8 -10 112923. 5998.65   1
  -6   8  10 102859. 5570.34   1
  -2   8  10 103355. 5579.70   1
   6  -8 -10 116757. 6088.13   1
  -8   2 -10 109879. 5907.45   1
   8  -6  10 98785.2 5533.89   1
  -8   6 -10 114068. 5990.07   1
   2  -8 -10 105518. 5790.78   2
  -6   8  11 126082. 6374.35   1
   8  -2  11 141189. 6610.74   1
   6  -8 -11 109874. 6016.48   1
   2  -8 -11 131371. 6572.91   1
  -2   8  11 130862. 6388.48   1
   8  -6  11 152399. 7084.89   1
  -8   2 -11 107063. 5975.77   1
  -8   6 -11 118764. 6209.58   1
   2  -8 -11 135443. 6796.95   2
   8  -2  12 12591.4 2037.85   1
  -6   8  12 12657.4 2054.56   1
   6  -8 -12 10528.5 1873.75   1
   2  -8 -12 13547.8 2116.37   1
  -2   8  12 13849.1 2111.99   1
   8  -6  12 15212.0 2210.44   1
  -8   2 -12 11595.1 1994.11   1
  -8   6 -12 12922.8 2074.02   1
   2  -8 -12 15128.5 2235.84   2
   8  -2  13 37576.6 3534.73   1
  -6   8  13 33320.5 3336.07   1
   6  -8 -13 42065.0 3794.14   1
   2  -8 -13 44166.0 3781.67   1
  -2   8  13 38855.7 3529.69   1
   8  -6  13 36797.1 3558.21   1
  -8   2 -13 35548.1 3491.63   1
  -8   6 -13 35292.9 3407.32   1
   2  -8 -13 30230.1 3457.91   2
   8  -2  14 158684. 7370.02   1
  -6   8  14 136866. 7017.47   1
   6  -8 -14 150326. 7373.74   1
   2  -8 -14 147587. 7164.89   1
  -2   8  14 180598. 7734.67   1
  -8   2 -14 183375. 8041.73   1
   6  -8 -15 2690.41 1017.52   1
   2  -8 -15 5202.25 1403.66   1
  -6   8  15 1936.83 934.526   1
   8  -2  15 2279.24 908.485   1
  -2   8  15 2932.01 1108.09   1
  -8   2 -15 3454.08 1159.18   1
   6  -8 -16 63376.6 4905.21   1
  -2   8  16 65521.8 4873.04   1
  -8   2 -16 61256.5 4715.74   1
   8  -2  16 60488.2 4774.99   1
  -8   2 -17 11959.3 2168.09   1
  -1  -7 -16 199430. 9183.94   2
  -1  -7 -15 2202.91 1037.53   2
  -7  -1 -15 3172.45 1151.24   2
   7   1  15 4680.72 1387.95   1
  -1  -7 -15 3433.77 1180.09   1
  -7  -1 -15 4116.63 1302.74   1
   1   7  15 5107.04 1388.91   1
  -7  -1 -14 4887.97 1363.49   2
  -1  -7 -14 6483.91 1607.30   2
   7   1  14 6713.03 1563.93   1
  -1  -7 -14 6230.40 1494.63   1
   1   7  14 6040.40 1466.09   1
  -7  -1 -14 4964.36 1418.64   1
  -1  -7 -13-282.797 393.269   2
  -7  -1 -13-120.068 569.291   2
   8  -7 -13 468.624 496.500   1
   7   1  13-34.6538 409.709   1
   1   7  13-584.153 367.071   1
  -1  -7 -13 291.934 348.705   1
  -7  -1 -13 334.862 507.388   1
  -8   7  12 216570. 8748.55   1
  -7  -1 -12 202730. 8694.86   2
   7   1  12 187320. 7906.71   1
  -1  -7 -12 230083. 8859.62   1
  -7  -1 -12 243403. 9172.17   1
   1   7  12 195758. 7996.15   1
   8  -7 -12 256619. 9544.42   1
  -1  -7 -12 221329. 9098.07   2
  -1  -7 -11-8.30074 445.652   2
  -7  -1 -11 84.5996 541.994   2
  -8   7  11-232.558 332.694   1
   8  -7 -11 328.435 409.273   1
  -1  -7 -11-60.9738 445.449   1
   7   1  11 578.352 706.792   1
  -7  -1 -11 518.822 704.346   1
   1   7  11-596.096 547.370   1
  -8   7  10 20387.9 2513.47   1
  -7  -1 -10 14574.2 2307.71   2
   7  -8  10 17615.7 2256.45   1
  -1  -7 -10 16058.9 2182.64   1
  -7  -1 -10 14587.0 2152.58   1
   8  -7 -10 13326.6 2084.53   1
  -7   8 -10 14263.9 2146.33   1
   1  -8  10 15640.8 2355.68   2
   1   7  10 14493.5 1924.89   1
  -1  -7 -10 14987.1 2181.42   2
   7   1  10 14494.7 2090.13   1
  -7   8  -9 6355.16 1458.10   1
  -1  -7  -9 5182.80 1351.73   2
  -7  -1  -9 5153.86 1399.19   2
  -8   7   9 5424.02 1344.32   1
   8  -7  -9 5179.01 1198.50   1
   7  -8   9 6340.43 1395.32   1
  -1  -7  -9 5458.86 1356.80   1
   7   1   9 5793.06 1397.11   1
   1  -8   9 5485.01 1372.22   2
  -7  -1  -9 6280.28 1431.56   1
   1   7   9 5237.77 1247.97   1
   1  -8   8 681007. 15265.0   2
   7  -8   8 645000. 14471.2   1
  -7  -1  -8 579232. 14768.2   2
  -7   8  -8 634976. 14698.8   1
  -1  -7  -8 639379. 14751.0   1
   8  -7  -8 691069. 15009.2   1
  -8   7   8 602046. 14374.9   1
   1   7   8 615734. 14162.3   1
  -7  -1  -8 595259. 14258.3   1
   7   1   8 574763. 13993.0   1
  -1  -7  -8 583336. 14410.8   2
  -1  -7  -7 8432.79 1610.02   2
  -7   8  -7 7745.45 1511.06   1
  -7  -1  -7 9571.52 1781.79   2
  -8   7   7 9460.57 1627.99   1
   7  -8   7 8520.50 1575.53   1
   8  -7  -7 10056.8 1731.65   1
  -1  -7  -7 8369.03 1565.39   1
   7   1   7 8774.05 1539.55   1
  -7  -1  -7 8231.24 1530.15   1
   1  -8   7 8200.32 1635.78   2
   1   7   7 8776.23 1555.50   1
   7   1   6 57456.9 4094.57   1
  -7  -1  -6 66216.2 4436.16   2
   8  -7  -6 60736.2 4134.23   1
  -1  -7  -6 61793.1 4242.21   1
   7  -8   6 52019.9 3826.34   1
   1   7   6 58529.2 4100.28   1
  -7  -1  -6 60388.9 4240.11   1
   1  -8   6 44809.3 3619.06   2
  -7   8  -6 67078.5 4489.75   1
  -1  -7  -6 52365.2 3984.44   2
  -8   7   6 49532.3 3775.59   1
  -1  -7  -5 4467.07 1146.80   2
  -7   8  -5 3097.67 901.950   1
  -7  -1  -5 3838.16 1011.07   1
  -8   7   5 2048.45 743.624   1
  -7  -1  -5 3399.11 948.410   2
  -1  -7  -5 2792.05 915.904   1
   8  -1  -5 3428.29 966.909   1
   7  -8   5 3865.03 1087.97   1
   8  -7  -5 3142.09 952.947   1
   7   1   5 2458.52 746.661   1
  -8   1   5 2355.20 778.214   1
   1   7   5 1965.38 748.407   1
   1  -8   5 3092.57 868.898   2
   7  -8   3 14851.0 2005.32   2
  -7  -1  -3 14813.7 1963.23   2
   7   1   3 13995.2 2003.84   1
   1  -8   3 13346.6 1802.13   1
  -1   8  -3 13174.6 1718.92   1
  -8   7   3 9674.09 1635.64   1
  -1  -7  -3 14255.9 1872.47   1
   7  -8   3 12897.7 1893.68   1
   1   7   3 12145.0 1857.18   1
   8  -1  -3 8749.41 1640.61   1
  -7  -1  -3 11557.6 1793.72   1
  -8   1   3 9419.72 1562.20   1
   1  -8   3 12382.2 1867.92   2
  -7   8  -3 13845.2 1993.64   1
  -1  -7  -3 13850.4 1937.47   2
   8  -7  -3 11835.3 1791.59   1
  -7  -1  -2 580519. 13087.9   2
   7   1   2 531084. 12669.2   1
   1  -8   2 487944. 11726.3   1
  -1   8  -2 532317. 12293.8   1
  -1  -7  -2 541063. 12648.4   1
   1   7   2 507740. 12248.5   1
   8  -1  -2 488412. 12269.8   1
  -7  -1  -2 457192. 11862.7   1
   7  -8   2 535870. 13044.3   2
   7  -8   2 535209. 12554.3   1
   1  -8   2 585888. 13195.8   2
  -7   8  -2 546395. 12802.2   1
   8  -7  -2 538940. 12780.6   1
  -1  -7  -2 510957. 12477.9   2
  -8   7   2 536215. 12817.4   1
  -1  -7  -1 1936.48 716.716   2
  -7  -1  -1 1092.74 618.999   2
  -8   1   1 2382.53 723.242   2
  -8   7   1 1533.66 813.392   1
  -7   8  -1 3590.50 953.514   1
   1  -8   1 2229.45 751.710   1
   8  -1  -1 2277.53 915.321   1
  -8   1   1 1233.80 580.450   1
  -1  -7  -1 1976.92 778.013   1
   7  -8   1 1587.22 661.966   1
  -7  -1  -1 1294.75 717.919   1
  -1   8  -1 1710.91 632.280   1
   7  -8   1 1439.66 768.503   2
   1   7   1 1117.88 501.689   1
   7   1   1 1285.54 684.846   1
   1  -8   1 1976.60 843.570   2
   8  -7  -1 1198.26 649.191   1
  -7  -1   0 283547. 8548.76   2
  -8   1   0 278807. 8999.53   2
   7   1   0 267279. 8613.24   1
   7  -8   0 277498. 8647.36   1
   1  -8   0 243082. 8039.44   1
   7  -8   0 273057. 9093.77   2
  -1  -7   0 260570. 8652.71   2
  -1  -7   0 325643. 9373.96   1
  -1   8   0 284791. 8825.63   1
   1   7   0 270627. 8415.14   1
   8  -1   0 264723. 8684.81   1
  -7  -1   0 244311. 8209.71   1
   8  -7   0 268091. 8761.87   1
  -7   8   0 273629. 8707.42   1
   1  -8   0 259525. 8618.30   2
  -8   7   0 248288. 8432.74   1
  -1  -7   1 1585.14 672.881   2
  -7  -1   1 1496.00 547.803   2
   7  -8  -1 2908.80 859.487   1
  -8   1  -1 1388.97 683.637   2
  -8   7  -1 2181.73 825.374   1
  -7   8   1 1017.35 608.653   1
   8  -1   1 5414.22 1305.97   1
   7   1  -1 2921.24 777.991   1
   1  -8  -1 2727.10 859.297   1
  -1  -7   1 2510.57 813.889   1
   8  -7   1 2442.12 849.029   1
  -1   8   1 1964.53 803.981   1
  -7  -1   1 1526.73 568.618   1
   1   7  -1 2811.36 934.545   1
   7  -8  -1 2336.29 897.204   2
  -8   1  -1 2900.42 1036.98   1
   1  -8  -1 2025.09 848.387   2
  -7   8   2 373264. 10431.2   1
  -7  -1   2 291884. 8703.40   2
   7   1  -2 311764. 9422.63   1
   1  -8  -2 371709. 10371.6   1
  -1   8   2 362282. 10152.8   1
   1   7  -2 370585. 9797.38   1
   8  -7   2 367245. 10219.2   1
   7  -8  -2 350103. 10231.6   2
   7  -8  -2 367873. 10276.7   1
  -7  -1   2 305265. 9214.94   1
  -8   1  -2 336587. 9714.31   1
  -1  -7   2 363845. 9762.16   1
   8  -1   2 380020. 10637.6   1
  -1  -7   2 426657. 10902.5   2
   1  -8  -2 408367. 10919.9   2
  -8   7  -2 365113. 10532.6   1
  -8   7  -3 3147.43 900.843   1
   8  -1   3 2421.25 921.388   1
  -7   8   3 3704.87 1077.71   1
  -1  -7   3 2652.45 868.804   2
   1  -8  -3 3209.09 948.736   1
   8  -7   3 2360.18 843.551   1
   1   7  -3 2977.90 828.513   1
  -1   8   3 2519.49 897.688   1
   1  -8  -3 2289.69 878.340   2
  -8   1  -3 2666.74 940.580   1
   7  -8  -3 2710.95 821.120   2
   7  -8  -3 2487.94 806.836   1
   7   1  -3 4343.34 1051.00   1
  -7  -1   3 3266.62 1056.54   1
   1  -8  -5 8297.74 1571.23   2
  -1   8   5 9789.39 1661.62   1
  -7   8   5 11863.0 1839.85   1
   8  -1   5 11389.2 1652.76   1
   8  -7   5 9214.26 1649.57   1
  -8   7  -5 11514.8 1914.85   1
   1  -8  -5 9796.59 1737.81   1
   7  -8  -5 11092.9 1782.05   1
  -8   1  -5 12325.6 1897.00   1
  -1  -7   5 10138.4 1654.01   2
   7  -8  -5 10565.5 1709.51   2
   8  -7   6 14653.0 2050.34   1
  -7   8   6 16979.3 2126.65   1
   8  -1   6 17700.7 2245.63   1
   1  -8  -6 15080.2 2128.14   1
  -1   8   6 14576.1 2058.56   1
   7  -8  -6 14520.2 2102.04   1
  -8   1  -6 16943.2 2168.22   1
   7  -8  -6 18485.8 2297.66   2
   1  -8  -6 17837.9 2297.73   2
  -1  -7   6 18407.6 2208.83   2
  -8   7  -6 14407.5 2118.84   1
   1  -8  -7 1256.48 713.283   2
  -8   7  -7 340.451 598.153   1
  -7   8   7 1430.90 670.108   1
   8  -1   7 915.550 511.043   1
   1  -8  -7 596.137 362.954   1
   8  -7   7-260.881 441.950   1
  -1  -7   7 565.725 348.536   2
  -8   1  -7-181.411 591.378   1
   7  -8  -7 1584.97 772.353   2
  -1   8   7 460.169 453.636   1
  -7   8   8 406842. 11535.3   1
  -8   7  -8 516598. 12980.2   1
   8  -1   8 459944. 12282.9   1
   1  -8  -8 450782. 12258.5   1
   7  -8  -8 360684. 11170.5   1
  -1   8   8 500949. 12553.0   1
  -1  -7   8 494164. 12649.5   2
  -8   1  -8 408851. 11714.7   1
   8  -7   8 528596. 12868.2   1
   1  -8  -8 453953. 12385.0   2
   8  -7   9 9281.66 1699.38   1
  -7   8   9 10600.5 1818.77   1
   8  -1   9 10246.6 1754.34   1
   7  -8  -9 9116.54 1802.97   1
   1  -8  -9 12329.8 1986.14   1
  -1   8   9 12402.6 1913.08   1
  -8   7  -9 12757.5 2016.29   1
  -8   1  -9 10929.4 1791.12   1
   1  -8  -9 9370.58 1698.48   2
  -7   8  10 37895.1 3453.38   1
   8  -1  10 31256.7 3066.44   1
   7  -8 -10 38766.1 3530.92   1
   1  -8 -10 31581.5 3176.57   1
  -1   8  10 39450.6 3448.51   1
  -8   1 -10 36153.6 3359.67   1
   8  -7  10 32351.5 3185.63   1
  -8   7 -10 31669.2 3168.03   1
   1  -8 -10 33323.3 3277.97   2
   1  -8 -11-20.9148 459.114   2
   7  -8 -11 157.863 501.991   1
  -7   8  11-468.165 532.911   1
   1  -8 -11-640.516 640.242   1
   8  -7  11-235.060 289.859   1
   8  -1  11 65.2539 449.654   1
  -1   8  11 318.739 572.338   1
  -8   1 -11 125.799 481.015   1
  -8   7 -11 354.346 432.297   1
   8  -1  12 296225. 10079.0   1
   7  -8 -12 306488. 10564.6   1
   1  -8 -12 308503. 10440.4   1
  -1   8  12 294412. 10018.4   1
  -8   1 -12 288842. 10022.6   1
   8  -7  12 265108. 9785.71   1
  -8   7 -12 266788. 9854.85   1
   1  -8 -12 267402. 9957.38   2
  -7   8  12 306789. 10344.3   1
   1  -8 -13 687.298 430.211   2
  -8   1 -13-51.3689 568.697   2
  -7   8  13 547.259 563.130   1
   1  -8 -13 238.465 609.201   1
   8  -1  13 737.537 708.672   1
  -8   1 -13 705.483 489.914   1
   7  -8 -13-75.8401 395.889   1
  -1   8  13 586.572 639.129   1
   1  -8 -14 6557.99 1508.90   2
  -8   1 -14 6670.03 1585.62   2
   7  -8 -14 7364.53 1667.75   1
   1  -8 -14 9553.77 1881.84   1
  -1   8  14 8497.88 1716.65   1
  -7   8  14 8539.89 1757.59   1
   8  -1  14 7811.62 1636.51   1
  -8   1 -14 8270.82 1760.38   1
   1  -8 -15-95.0557 532.335   2
  -8   1 -15-184.795 341.647   2
   7  -8 -15-349.989 666.016   1
   1  -8 -15 41.3975 572.480   1
   8  -1  15-397.709 612.145   1
  -8   1 -15 438.559 301.185   1
  -1   8  15-232.354 466.089   1
  -8   1 -16 201917. 8754.64   1
   8  -1  16 181958. 8264.59   1
   0  -8   0 16169.9 2076.95   2
   8  -8   0 19504.9 2471.01   2
   0  -8   0 19576.8 2387.91   1
   8   0   0 18711.2 2253.82   1
   0   8   0 20064.6 2334.40   1
  -8   0   0 23282.7 2568.10   1
  -8   0   0 24844.9 2547.49   2
   8  -8   0 21302.4 2413.46   1
  -8   8   0 22413.1 2599.08   1
  -8   0   1 214252. 7514.81   2
  -8   0  -1 194101. 7561.40   2
   0  -8  -1 217199. 8003.87   2
   0  -8   1 236008. 8030.48   1
   8   0   1 215547. 8003.36   1
   0  -8  -1 226255. 8116.35   1
   8   0  -1 207749. 7844.21   1
   0   8  -1 190779. 7255.25   1
   0   8   1 192462. 7414.26   1
  -8   0  -1 220461. 7918.87   1
  -8   0   1 259184. 8579.46   1
   8  -8   1 198728. 7517.93   1
   8  -8  -1 188176. 7366.59   1
   8  -8  -1 211391. 8106.55   2
   0  -8   1 188944. 7451.52   2
  -8   8  -1 166049. 7153.44   1
  -8   8   1 219857. 8013.95   1
   8  -8  -2 352219. 10193.5   1
  -8   0  -2 270869. 9366.11   2
   8  -8  -2 345465. 10445.1   2
   8   0   2 379499. 10862.5   1
   0  -8   2 321581. 9497.85   1
   0  -8  -2 377734. 10757.8   1
   8   0  -2 337297. 10067.3   1
   0   8  -2 397301. 10577.8   1
   0  -8  -2 289426. 9604.97   2
   0   8   2 365369. 10406.4   1
  -8   0  -2 369214. 10532.5   1
   8  -8   2 341064. 10205.1   1
  -8   0   2 424995. 10978.8   1
   0  -8   2 356602. 10524.2   2
  -8   8  -2 355878. 10474.3   1
  -8   8   2 352783. 10333.0   1
  -8   0  -3 80447.3 4984.23   2
   8  -8  -3 74573.2 4611.48   1
   8   0   3 85458.7 5001.75   1
   0  -8  -3 79642.5 4793.83   1
   0   8  -3 81191.8 4607.26   1
   8   0  -3 77011.9 4589.39   1
   0   8   3 75877.3 4671.87   1
   8  -8   3 74798.6 4705.02   1
  -8   0  -3 68965.9 4540.22   1
   8  -8  -3 76008.3 4776.49   2
   0  -8   3 66359.2 4423.53   2
  -8   8  -3 84326.6 5024.18   1
   0  -8  -3 83325.7 5042.08   2
  -8   8   3 78045.3 4809.38   1
  -8   0  -4 30874.4 3114.64   2
   8   0   4 28362.7 2940.89   1
   8  -8  -4 34593.7 3218.55   2
   0  -8  -4 30629.3 3092.05   1
   8  -8  -4 32593.9 3013.69   1
   8   0  -4 29481.4 2871.45   1
   8  -8   4 30065.6 2941.86   1
   0   8   4 27718.7 2859.13   1
  -8   8  -4 38955.6 3365.74   1
  -8   0  -4 31349.6 3087.47   1
  -8   0   4 36926.8 3146.19   1
   0  -8  -4 28732.4 2930.67   2
   0  -8   4 37912.1 3341.74   2
  -8   8   4 32988.0 3129.65   1
  -8   8   5 185072. 7502.30   1
  -8   0  -5 181629. 7749.69   2
   8   0   5 139492. 6691.27   1
   8  -8  -5 145983. 6645.34   2
   0  -8   5 171194. 7222.22   2
   8  -8   5 166428. 6988.54   1
   0  -8  -5 143738. 6628.79   1
   8  -8  -5 135647. 6349.86   1
   0   8   5 160172. 6905.71   1
  -8   0  -5 171394. 7215.33   1
  -8   8  -5 167758. 7243.25   1
   0  -8  -5 155893. 6971.04   2
  -8   8   6 384205. 11244.0   1
  -8   0  -6 442659. 12532.2   2
   8   0   6 439338. 11956.0   1
   0  -8  -6 428126. 11995.6   1
   0   8   6 423118. 11706.0   1
   8  -8  -6 441530. 11772.3   1
  -8   0  -6 468007. 12403.1   1
   8  -8   6 417341. 11602.1   1
   0  -8   6 426230. 11653.4   2
  -8   8  -6 422558. 11948.6   1
   0  -8  -6 437681. 12061.2   2
  -8   0  -7 114552. 6241.65   2
   8  -8   7 107859. 5713.20   1
  -8   8   7 109670. 5857.48   1
   8   0   7 106037. 5670.06   1
   0  -8  -7 104686. 5815.49   1
  -8   8  -7 113938. 6071.22   1
   0   8   7 110348. 5701.99   1
  -8   0  -7 100647. 5618.13   1
   8  -8  -7 107446. 5642.49   1
   0  -8   7 106742. 5845.61   2
   0  -8  -7 111318. 5997.89   2
  -8   8   8 43550.7 3699.71   1
   8   0   8 56074.5 4071.61   1
  -8   0  -8 55863.8 4370.63   2
   0  -8  -8 45005.2 3801.85   1
   0   8   8 43393.3 3632.25   1
   0  -8   8 46254.6 3823.56   2
  -8   0  -8 43853.3 3674.60   1
   8  -8  -8 46539.5 3824.80   1
  -8   8  -8 44969.4 3728.77   1
   0  -8  -8 50937.8 4089.41   2
   8  -8   8 45465.3 3765.45   1
  -8   8   9 25725.4 2796.04   1
   8   0   9 24247.2 2790.39   1
  -8   0  -9 23238.4 2945.43   2
   0  -8  -9 26009.2 2930.03   1
   0   8   9 21826.8 2574.33   1
  -8   0  -9 22563.5 2694.82   1
   0  -8   9 24899.2 2862.73   2
   8  -8  -9 22381.7 2722.76   1
  -8   8  -9 22920.6 2648.60   1
   8  -8   9 21882.4 2590.31   1
   0  -8  -9 24855.8 2886.85   2
   8   0  10 175301. 7549.11   1
  -8   0 -10 136346. 7095.61   2
   0  -8 -10 151953. 7086.13   1
   0   8  10 158127. 7000.82   1
  -8   0 -10 144502. 6959.64   1
  -8   8 -10 159176. 7299.28   1
   8  -8  10 137740. 6792.25   1
   8  -8 -10 138062. 6833.80   1
  -8   8  10 145386. 6977.12   1
   0  -8 -10 146090. 7192.99   2
  -8   8  11 78795.9 5126.50   1
  -8   0 -11 104995. 6158.89   2
   0  -8 -11 109167. 6037.30   1
   0   8  11 100996. 5651.83   1
  -8   0 -11 93984.6 5686.95   1
   0  -8 -11 91594.1 5706.07   2
   8  -8  11 106348. 5915.05   1
   8   0  11 90731.4 5587.93   1
  -8   8 -11 92259.4 5680.30   1
   8  -8 -11 104496. 5999.85   1
  -8   8  12 16822.0 2420.38   1
  -8   0 -12 12977.3 2188.98   2
   0  -8 -12 15579.1 2374.26   1
   0   8  12 13466.6 2149.07   1
  -8   0 -12 16627.6 2384.38   1
   8  -8 -12 17938.1 2538.96   1
   0  -8 -12 14984.3 2361.17   2
   8   0  12 14625.6 2245.14   1
  -8   8  13 72336.1 5150.24   1
  -8   0 -13 87438.2 5915.59   2
   0  -8 -13 99562.6 5893.52   1
   0   8  13 99159.5 5804.93   1
  -8   0 -13 81344.7 5330.66   1
   8  -8 -13 101244. 6222.55   1
   0  -8 -13 89383.9 5849.63   2
   8   0  13 93769.6 5738.36   1
  -8   0 -14 135284. 7203.09   2
   8   0  14 137894. 7028.54   1
   0  -8 -14 151202. 7363.93   1
   0   8  14 127047. 6660.18   1
  -8   0 -14 132620. 6918.34   1
   8  -8 -14 122586. 6787.72   1
   0  -8 -14 125248. 7057.97   2
   0  -8 -15 18748.3 2798.87   2
  -4  -5 -15 27282.5 3243.01   2
  -5  -4 -15 33203.7 3471.43   2
  -4  -5 -15 23245.2 2916.00   1
  -5  -4 -15 35050.2 3533.54   1
   4   5  15 29247.8 3179.63   1
   5   4  15 31510.2 3289.90   1
  -4  -5 -14 234913. 9453.92   2
  -5  -4 -14 244050. 9587.50   2
  -4  -5 -14 226940. 9057.10   1
   4   5  14 255223. 9299.03   1
   5   4  14 255536. 9462.49   1
  -5  -4 -13 180258. 8139.91   2
  -4  -5 -13 186957. 8313.26   2
  -4  -5 -13 171097. 7756.75   1
  -5  -4 -13 193623. 8275.77   1
   4   5  13 195564. 7952.14   1
   5   4  13 183745. 7843.76   1
  -4  -5 -12 55218.4 4367.79   2
  -5  -4 -12 42645.7 3999.26   2
  -4  -5 -12 43063.9 3836.68   1
  -5  -4 -12 48396.3 3953.19   1
   4   5  12 37299.8 3455.89   1
   5   4  12 45917.9 3822.22   1
  -4  -5 -11 139373. 7020.87   2
  -5  -4 -11 167687. 7486.77   2
   4  -9  11 153629. 7496.64   2
  -4  -5 -11 156529. 7328.53   1
  -5  -4 -11 155308. 7239.63   1
   4   5  11 144120. 6830.54   1
  -4  -5 -10 278848. 9902.05   2
  -5  -4 -10 237772. 9284.17   2
   5  -9  10 223618. 8930.71   2
  -4  -5 -10 277068. 9820.25   1
  -5  -4 -10 239667. 9109.27   1
   4   5  10 289487. 9608.64   1
   4  -9  10 223360. 9030.28   2
   5   4  10 288648. 9777.85   1
  -4  -5  -9 38797.2 3466.94   2
  -5  -4  -9 37083.3 3526.43   2
  -4  -5  -9 31627.4 3247.33   1
  -5  -4  -9 32167.2 3191.66   1
   9  -5  -9 33568.1 3236.13   1
  -9   5   9 28726.6 3046.98   1
   4   5   9 31156.1 3057.98   1
   5  -9   9 33838.5 3366.54   2
   4  -9   9 31713.7 3241.06   2
   5   4   9 36272.4 3375.30   1
  -9   4   8 6884.95 1461.81   1
  -4  -5  -8 7523.08 1639.07   2
  -5  -4  -8 7865.29 1700.26   2
  -9   5   8 6972.47 1483.98   1
   4   5   8 7135.80 1385.37   1
   9  -4  -8 8010.15 1567.40   1
   5   4   8 6779.46 1472.93   1
  -4  -5  -8 5911.71 1356.30   1
   9  -5  -8 7943.79 1608.97   1
  -5  -4  -8 5406.95 1370.75   1
   5  -9   8 4404.00 1272.13   2
   4  -9   8 6395.62 1537.10   2
   9  -4  -7 10545.3 1745.82   1
   5   4   7 12003.8 1894.98   1
  -4  -5  -7 8260.97 1587.18   2
  -5  -4  -7 9952.94 1837.10   2
  -9   5   7 10515.5 1928.12   1
   4   5   7 8792.16 1657.86   1
   4  -9   7 8556.99 1698.40   2
  -9   4   7 15484.9 2160.34   1
   5  -9   7 8833.00 1809.23   2
   9  -5  -7 8562.00 1616.60   1
  -4  -5  -7 9052.09 1687.51   1
  -5  -4  -7 7559.89 1493.53   1
  -5   9  -7 10767.3 1750.06   1
  -5  -4  -6 113462. 5943.82   2
  -9   4   6 110076. 5796.98   1
   5  -9   6 131872. 6174.30   1
   9  -4  -6 137446. 6320.15   1
   9  -5  -6 146263. 6549.80   1
  -4  -5  -6 105212. 5754.14   1
  -4   9  -6 130937. 6053.02   1
  -5  -4  -6 119043. 5956.04   1
  -5   9  -6 140007. 6325.34   1
   4   5   6 124569. 6084.81   1
   5  -9   6 132585. 6393.03   2
   4  -9   6 106409. 5835.46   2
   5   4   6 123486. 6133.47   1
  -4  -5  -6 120870. 6155.77   2
  -5  -4  -5 24413.7 2683.28   2
  -4   9  -5 25915.3 2719.32   1
   9  -4  -5 32476.5 3006.25   1
   5  -9   5 26985.1 2699.92   1
   9  -5  -5 28193.7 2861.13   1
  -4  -5  -5 25276.3 2810.61   1
   4  -9   5 26799.4 2662.63   1
  -5  -4  -5 22751.9 2628.54   1
   4  -9   5 27378.7 2863.30   2
   5   4   5 27706.0 2776.30   1
   4   5   5 26444.7 2799.83   1
   5  -9   5 30297.5 3038.57   2
  -9   4   5 32395.9 3097.41   1
  -9   5   5 34263.2 3162.45   1
  -5   9  -5 27237.5 2744.96   1
  -4  -5  -5 25460.6 2793.17   2
  -5   9  -4 55300.3 3974.61   1
  -5  -4  -4 49516.5 3797.23   2
  -4   9  -4 58028.2 3855.13   1
   9  -5  -4 60578.5 4036.31   1
   5  -9   4 51857.2 3762.05   1
   5  -9   4 55286.7 4145.41   2
  -4  -5  -4 52268.5 4043.18   1
  -9   4   4 33725.9 3229.49   1
  -5  -4  -4 49185.1 3863.47   1
   9  -4  -4 35028.8 3192.32   1
   4   5   4 52344.9 3880.22   1
   4  -9   4 50849.7 3889.33   2
  -9   5   4 52029.8 3915.21   1
   4  -9   4 59028.4 4024.27   1
   5   4   4 50457.7 3844.43   1
  -4  -5  -4 45746.1 3739.89   2
   9  -4  -3 274863. 8893.93   1
  -4   9  -3 230671. 8145.77   1
   9  -5  -3 304118. 9418.21   1
  -4  -5  -3 262840. 8863.23   1
  -5  -4  -3 204774. 7759.12   1
   5  -9   3 230683. 8128.57   1
   4   5   3 241575. 8402.57   1
   4  -9   3 220442. 8199.51   2
   5  -9   3 208420. 7927.71   2
  -9   4   3 175225. 7348.36   1
   5   4   3 232828. 8318.14   1
  -9   5   3 351922. 10267.5   1
  -5   9  -3 230440. 8084.88   1
  -4  -5  -3 268335. 8923.67   2
  -5  -4  -3 246686. 8598.27   2
   5  -9   2 433174. 11622.7   1
  -5   9  -2 493227. 12156.0   1
  -4   9  -2 459479. 11908.4   1
   9  -4  -2 486667. 12223.5   1
   9  -5  -2 507910. 12615.8   1
   4  -9   2 438013. 11798.0   1
  -4  -5  -2 535767. 12917.5   1
  -5  -4  -2 509747. 12487.9   1
   4   5   2 489083. 12183.8   1
  -9   4   2 689352. 14399.6   1
   5  -9   2 499082. 12785.8   2
   4  -9   2 476058. 12466.6   2
   5   4   2 540479. 12808.4   1
  -9   5   2 588923. 13572.5   1
  -4  -5  -2 518176. 12671.9   2
  -5  -4  -2 581997. 13441.1   2
  -5   9  -1 358996. 10438.0   1
   9  -5  -1 345572. 10119.2   1
  -4   9  -1 366065. 10433.3   1
   4  -9   1 424986. 11143.6   1
  -4  -5  -1 384877. 10824.9   1
  -5  -4  -1 388911. 10632.3   1
   5  -9   1 363277. 10567.9   2
   4   5   1 348146. 10153.1   1
  -9   4   1 465895. 11650.1   1
   5   4   1 345338. 10215.7   1
   9  -4  -1 383018. 10700.4   1
  -9   5   1 286489. 9496.61   1
   4  -9   1 362356. 10626.4   2
  -4  -5  -1 385622. 10950.1   2
  -5  -4  -1 424187. 11108.8   2
   9  -5   0 46761.5 3602.69   1
   5  -9   0 41261.9 3398.82   2
  -5   9   0 43783.5 3433.18   1
  -4   9   0 44873.9 3531.66   1
   5  -9   0 43494.8 3483.44   1
   4  -9   0 43609.3 3499.48   1
   4  -9   0 40255.4 3389.99   2
  -4  -5   0 36531.6 3247.70   1
   5   4   0 42162.7 3410.75   1
  -5  -4   0 36134.8 3110.18   1
   4   5   0 44014.9 3433.14   1
  -9   4   0 33011.9 3101.25   1
  -9   5   0 50413.5 3780.60   1
   9  -4   0 32438.7 3014.03   1
  -4  -5   0 46703.8 3521.53   2
  -5  -4   0 45487.2 3516.88   2
   9  -5   1 160776. 6670.86   1
  -5   9   1 132980. 6180.25   1
   5  -9  -1 141146. 6410.51   1
  -4   9   1 149619. 6555.02   1
   4  -9  -1 133120. 6182.77   1
   9  -4   1 140729. 6349.25   1
  -4  -5   1 132839. 6007.04   1
  -5  -4   1 123434. 5727.24   1
   4   5  -1 143735. 6149.19   1
  -9   4  -1 229773. 7939.15   1
  -9   5  -1 185148. 7321.25   1
   5  -9  -1 146856. 6612.25   2
  -5  -4   1 181863. 7180.30   2
   4  -9  -1 137049. 6382.93   2
   5   4  -1 161825. 6639.10   1
  -4  -5   1 155880. 6542.19   2
  -5   9   2 804247. 15965.3   1
  -9   4  -2 787830. 15696.3   1
  -9   5  -2 669986. 14844.5   1
   9  -5   2 720972. 15268.7   1
  -5   9   3 110285. 5629.57   1
   5  -9  -3 105216. 5535.80   1
   4  -9  -3 100579. 5317.12   1
  -4   9   3 111137. 5639.60   1
   9  -5   3 102156. 5339.01   1
   9  -4   3 110753. 5583.11   1
  -9   4  -3 106555. 5519.24   1
  -9   5  -3 113907. 5699.17   1
   5  -9  -3 112488. 5727.51   2
  -4  -5   3 126096. 5781.54   2
  -5  -4   3 104447. 5238.67   2
   4  -9  -3 97669.5 5341.51   2
   5  -9  -4 36456.4 3266.80   2
  -5   9   4 39295.2 3282.88   1
   5  -9  -4 35520.6 3234.33   1
   4  -9  -4 37524.5 3147.27   1
  -4  -5   4 34071.2 3036.68   2
  -4   9   4 35974.7 3274.22   1
   9  -4   4 36682.2 3222.65   1
  -9   4  -4 42671.1 3534.69   1
  -9   5  -4 33976.7 3118.21   1
   9  -5   4 35074.1 3170.25   1
   4  -9  -4 39278.3 3291.71   2
  -5  -4   4 38628.0 3172.03   2
  -5   9   5 85301.1 5041.17   1
   5  -9  -5 92139.3 5198.84   1
   4  -9  -5 93066.3 5166.20   1
  -4   9   5 88312.8 5121.05   1
   9  -4   5 78154.4 4727.24   1
  -9   4  -5 91773.9 5149.78   1
  -9   5  -5 96346.0 5256.35   1
   5  -9  -5 91257.1 5154.79   2
   4  -9  -5 89719.1 5173.40   2
  -4  -5   5 73997.8 4518.37   2
   9  -5   5 94375.8 5176.73   1
   4  -9  -6 69260.9 4508.24   2
  -5   9   6 70911.7 4597.54   1
   5  -9  -6 72109.5 4601.59   1
   4  -9  -6 67539.2 4456.52   1
  -4   9   6 62598.2 4331.25   1
   9  -4   6 69622.1 4561.55   1
  -9   4  -6 60146.2 4311.99   1
   9  -5   6 65385.3 4322.07   1
  -9   5  -6 65362.2 4482.30   1
   5  -9  -6 66660.8 4470.48   2
   5  -9  -7 6094.68 1348.37   1
   4  -9  -7 7890.78 1568.98   1
   9  -4   7 6421.40 1452.54   1
  -5   9   7 6916.05 1480.33   1
  -4   9   7 5909.74 1302.36   1
   9  -5   7 5896.01 1403.25   1
  -9   4  -7 6678.95 1436.21   1
  -9   5  -7 5558.91 1305.78   1
   5  -9  -7 8964.44 1701.29   2
   4  -9  -7 7262.56 1578.47   2
   5  -9  -8 11241.8 1867.69   1
  -4   9   8 12147.8 1938.20   1
   4  -9  -8 12078.2 1887.06   1
   9  -4   8 7885.34 1570.26   1
  -5   9   8 10538.2 1830.73   1
   9  -5   8 10186.9 1742.35   1
  -9   5  -8 12496.6 2081.46   1
  -9   4  -8 9155.61 1638.66   1
   5  -9  -8 9269.91 1731.79   2
   4  -9  -8 9858.62 1883.50   2
   4  -9  -9 45981.5 3856.95   2
   5  -9  -9 35582.8 3283.75   1
  -5   9   9 44361.3 3683.61   1
   4  -9  -9 39317.2 3531.19   1
  -4   9   9 46862.2 3780.16   1
   9  -4   9 41391.4 3500.71   1
   9  -5   9 39355.8 3523.99   1
  -9   4  -9 42329.2 3581.29   1
  -9   5  -9 43160.9 3721.58   1
   5  -9  -9 44469.2 3805.82   2
   5  -9 -10 242353. 8922.45   1
  -5   9  10 254177. 9180.13   1
   4  -9 -10 251785. 9161.40   1
  -4   9  10 325936. 10166.1   1
   9  -4  10 279525. 9564.48   1
   9  -5  10 296506. 9993.29   1
  -9   4 -10 280486. 9616.20   1
  -9   5 -10 231594. 8720.35   1
   5  -9 -10 267350. 9652.69   2
   4  -9 -10 265056. 9697.93   2
   5  -9 -11 167613. 7513.41   1
  -5   9  11 187980. 7956.03   1
   4  -9 -11 186402. 8001.16   1
  -4   9  11 237593. 8756.62   1
   9  -4  11 223608. 8614.45   1
   9  -5  11 190788. 7994.47   1
  -9   4 -11 158112. 7417.29   1
  -9   5 -11 192080. 7971.25   1
   4  -9 -11 222526. 8907.18   2
   5  -9 -12 53549.9 4229.40   1
  -5   9  12 76826.9 5104.16   1
   4  -9 -12 71297.4 4871.12   1
   9  -4  12 50878.4 4224.68   1
  -4   9  12 61019.1 4457.79   1
   9  -5  12 51166.3 4112.49   1
  -9   4 -12 54515.4 4324.41   1
  -9   5 -12 56967.3 4393.79   1
   9  -4  13 111548. 6288.67   1
  -5   9  13 114655. 6277.37   1
   4  -9 -13 114840. 6277.50   1
  -4   9  13 112598. 6230.94   1
   9  -5  13 115582. 6312.52   1
  -9   4 -13 110284. 6332.43   1
  -9   5 -13 99714.4 5945.22   1
   9  -4  14 277321. 10228.6   1
   5  -9 -14 270585. 9933.26   1
  -5   9  14 252699. 9740.16   1
   9  -5  14 285800. 10479.9   1
   4  -9 -14 291556. 10260.6   1
  -9   4 -14 303298. 10613.7   1
  -9   5 -14 273406. 10192.9   1
   9  -4  15 26263.4 3149.22   1
   9  -5  15 27174.5 3270.98   1
   5  -9 -15 24630.0 2954.10   1
  -5   9  15 32138.2 3407.44   1
   4  -9 -15 31854.1 3351.81   1
  -4   9  15 25312.0 3030.56   1
  -9   4 -15 26436.4 3107.69   1
  -9   5 -15 25855.4 3127.52   1
  -9   4 -16 511.640 375.357   1
  -3  -6 -15 5347.12 1419.09   2
  -6  -3 -14 32428.9 3323.70   2
  -3  -6 -14 31935.1 3366.28   1
  -6  -3 -14 31416.4 3330.46   1
   3   6  14 28602.4 3129.81   1
   6   3  14 34209.6 3398.52   1
  -3  -6 -14 30541.3 3437.42   2
   3   6  13 4485.38 1292.88   1
  -3  -6 -13 5331.43 1408.12   2
  -6  -3 -13 3761.59 1143.91   2
   6   3  13 4882.87 1219.85   1
  -3  -6 -13 4669.53 1311.04   1
  -6  -3 -13 3144.32 998.568   1
  -6  -3 -12 402630. 12052.7   2
  -3  -6 -12 343311. 11288.6   2
  -3  -6 -12 397444. 11932.0   1
  -6  -3 -12 452766. 12640.0   1
   3   6  12 414831. 11825.5   1
   3  -9  12 359182. 12028.8   2
   6   3  12 388349. 11690.4   1
  -3  -6 -11 5840.22 1462.17   2
  -6  -3 -11 7144.27 1486.87   2
   6   3  11 5785.92 1340.66   1
  -3  -6 -11 6636.31 1507.77   1
  -6  -3 -11 7293.00 1460.98   1
   3  -9  11 4146.14 1174.34   2
   3   6  11 5512.94 1351.93   1
   3  -9  10 41565.5 3801.69   2
  -6  -3 -10 49485.5 4031.37   2
  -3  -6 -10 41369.3 3585.21   1
  -6  -3 -10 46680.6 3880.92   1
   3   6  10 42486.3 3493.48   1
   9  -6 -10 49797.3 4063.36   1
   6   3  10 38422.8 3531.20   1
  -9   6  10 33724.6 3301.45   1
  -3  -6 -10 33954.5 3445.16   2
   3   6   9 55.4179 340.576   1
  -3  -6  -9 918.314 706.344   2
  -6  -3  -9 1075.08 848.967   2
  -9   6   9 761.144 590.101   1
   6   3   9 1206.88 667.208   1
  -3  -6  -9 420.425 587.425   1
  -6  -3  -9 1019.51 667.467   1
   3  -9   9 526.988 494.702   2
   9  -6  -9 1117.12 633.545   1
  -6  -3  -8 538375. 13560.3   2
  -6   9  -8 539059. 13585.8   1
  -3  -6  -8 481368. 12730.7   1
  -6  -3  -8 485072. 12843.7   1
   3   6   8 455825. 12142.0   1
   9  -6  -8 503370. 13041.8   1
   6  -9   8 450061. 12752.9   2
   3  -9   8 386308. 11848.5   2
  -3  -6  -8 529138. 13558.2   2
   6   3   8 461535. 12545.1   1
  -9   6   8 582484. 13883.1   1
  -6  -3  -7 53428.5 4025.71   2
  -3  -6  -7 44408.6 3722.84   1
   6  -9   7 48580.5 3784.55   1
  -6  -3  -7 50437.9 3937.91   1
   3  -9   7 46051.4 3720.97   2
   3   6   7 42096.1 3551.67   1
   9  -3  -7 64953.2 4378.78   1
   9  -6  -7 37650.4 3394.27   1
   6  -9   7 44912.0 3874.62   2
   6   3   7 52228.1 3883.86   1
  -6   9  -7 51435.1 3928.17   1
  -9   6   7 55692.8 4183.32   1
  -3  -6  -7 48504.7 3937.12   2
   3   6   6 5095.63 1134.34   1
  -3  -6  -6 4886.31 1248.08   2
  -6  -3  -6 4790.74 1344.17   2
  -9   6   6 5037.71 1344.14   1
  -6   9  -6 3307.56 973.309   1
   9  -3  -6 4001.28 1054.83   1
   3  -9   6 3666.39 1131.93   2
   6   3   6 5338.09 1193.11   1
  -3  -6  -6 4766.39 1237.80   1
  -6  -3  -6 3590.16 1114.55   1
   9  -6  -6 5690.10 1340.13   1
   6  -9   6 3938.82 1194.72   2
   6  -9   6 4234.01 1139.24   1
  -9   3   6 6164.92 1335.46   1
   6  -9   5 2960.17 1051.08   1
  -3   9  -5 1682.68 573.469   1
   3   6   5 1211.66 707.560   1
  -3  -6  -5 1689.10 903.862   2
  -6  -3  -5 1272.58 584.513   2
  -9   6   5 2298.45 907.862   1
   9  -3  -5 1090.42 617.582   1
  -6   9  -5 1849.56 764.247   1
   6   3   5 1300.59 572.035   1
  -3  -6  -5 666.224 455.659   1
  -6  -3  -5 1328.00 647.014   1
   9  -6  -5 2079.84 839.954   1
   6  -9   5 1489.47 775.867   2
   3  -9   5 1148.90 608.031   2
  -9   3   5 2593.19 902.288   1
   6  -9   4 549864. 12956.2   1
  -6  -3  -4 498839. 12741.3   2
  -9   3   4 561222. 13038.3   1
  -3   9  -4 516445. 12453.8   1
   3  -9   4 535209. 12782.5   1
  -3  -6  -4 533950. 13073.9   1
  -6  -3  -4 513919. 12703.1   1
   9  -6  -4 510770. 12803.3   1
   3   6   4 464684. 12060.5   1
   6  -9   4 537659. 13458.5   2
   3  -9   4 490633. 12936.7   2
  -9   6   4 438675. 12034.2   1
   6   3   4 538202. 13114.2   1
  -3  -6  -4 541928. 13561.2   2
  -6   9  -4 489239. 12338.4   1
  -6  -3  -3 26721.0 2801.46   2
  -3   9  -3 32897.7 2954.61   1
   3  -9   3 27915.1 2791.44   1
   6  -9   3 31402.6 2860.98   1
  -3  -6  -3 32866.0 2993.24   1
   9  -6  -3 37369.9 3302.75   1
  -6  -3  -3 28483.8 2885.05   1
   3   6   3 29787.9 2867.11   1
  -9   3   3 28869.2 2875.52   1
   6  -9   3 28251.2 2991.06   2
   9  -3  -3 30009.8 2851.32   1
   3  -9   3 29809.3 2919.98   2
   6   3   3 24982.0 2700.96   1
  -9   6   3 25876.9 2824.07   1
  -3  -6  -3 34914.2 3103.20   2
  -6   9  -3 30093.1 2941.47   1
  -6   9  -2 26190.6 2744.47   1
  -6  -3  -2 21985.1 2506.28   2
   6  -9   2 26760.9 2848.75   2
  -3   9  -2 29363.0 2853.23   1
   3  -9   2 26943.6 2673.73   1
  -3  -6  -2 32349.6 2961.87   1
   9  -6  -2 24196.1 2507.83   1
   6  -9   2 24668.5 2592.95   1
  -6  -3  -2 18175.0 2265.73   1
   3   6   2 24763.9 2581.54   1
  -9   3   2 33426.9 2984.04   1
  -9   6   2 32921.1 3105.95   1
   3  -9   2 22982.0 2613.23   2
  -3  -6  -2 27813.3 2840.66   2
   9  -3  -2 27402.8 2790.64   1
   6   3   2 23090.7 2568.86   1
   3   6   1 3926.47 1051.45   1
  -3  -6  -1 2805.90 895.212   2
  -9   6   1 2636.07 824.213   1
  -6  -3  -1 4648.43 1168.15   2
   3  -9   1 5018.28 1294.71   1
  -6   9  -1 4482.93 1187.59   1
   9  -6  -1 4090.14 1046.67   1
  -3   9  -1 3444.08 932.912   1
   6   3   1 3819.64 1056.15   1
  -3  -6  -1 3034.64 1055.08   1
  -6  -3  -1 3961.85 993.429   1
   6  -9   1 4167.89 1054.68   1
   6  -9   1 3092.39 1102.52   2
   9  -3  -1 2725.25 865.401   1
   3  -9   1 3716.97 1036.26   2
  -9   3   1 3400.87 1021.81   1
   3  -9   0 891475. 16658.5   1
   9  -6   0 865853. 16704.1   1
   6  -9   0 825798. 17028.1   2
   6  -9   0 793180. 16384.6   1
  -6  -3   0 834611. 16376.0   2
  -3  -6   1 267.611 349.664   2
  -9   6  -1 872.003 572.979   1
  -6  -3   1 104.619 264.610   2
   6  -9  -1 957.281 640.374   1
   6  -9  -1 40.9292 416.713   2
   9  -6   1 403.827 367.259   1
   3  -9  -1 612.657 327.799   1
  -6   9   1-129.115 491.808   1
   6   3  -1-157.446 287.334   1
  -3  -6   1 4.42571 439.820   1
  -3   9   1 568.901 485.957   1
   9  -3   1 138.247 347.403   1
  -6  -3   1-295.705 368.451   1
  -9   3  -1-22.0553 278.958   1
   3  -9  -1 646.187 364.219   2
   3   6  -1 476.156 602.307   1
  -9   6  -2 8769.43 1575.98   1
  -6  -3   2 5686.21 1184.17   2
   6  -9  -2 8202.50 1515.54   1
  -3  -6   2 7025.15 1407.08   2
   3  -9  -2 5617.47 1333.00   1
  -6   9   2 7627.98 1545.68   1
   6   3  -2 7806.79 1475.40   1
  -6  -3   2 9429.92 1568.04   1
   3  -9  -2 7366.84 1528.47   2
  -3   9   2 7741.96 1572.81   1
   9  -3   2 5407.93 1307.35   1
   6  -9  -2 5822.61 1284.31   2
  -9   3  -2 5059.13 1229.74   1
   3   6  -2 7142.57 1331.84   1
   9  -6   2 7658.05 1466.22   1
  -3  -6   3 839.699 563.115   2
  -9   6  -3 1072.09 597.221   1
  -6  -3   3 1342.21 729.483   2
   6  -9  -3 1359.00 798.304   1
   3  -9  -3 759.820 576.419   1
  -6   9   3 1639.50 786.625   1
   9  -3   3 923.835 533.060   1
  -3   9   3 618.901 387.349   1
   9  -6   3 771.128 464.621   1
   6  -9  -3 744.002 496.281   2
  -9   3  -3 3095.68 1091.99   1
   3  -9  -3 1163.38 621.635   2
  -6   9   4 668076. 14794.9   1
   6  -9  -4 737405. 15674.5   1
   3  -9  -4 713749. 15328.7   1
   3  -9  -4 695934. 15374.8   2
  -3   9   4 696661. 15157.3   1
   9  -3   4 667771. 14962.8   1
  -9   3  -4 724118. 15318.4   1
   6  -9  -4 700951. 15428.9   2
   9  -6   4 684204. 14914.6   1
   6  -9  -5 32143.3 3143.32   2
  -6   9   5 29783.6 2895.79   1
   6  -9  -5 37143.7 3245.01   1
   3  -9  -5 31878.8 3001.55   1
  -3  -6   5 34568.2 3104.50   2
  -3   9   5 37044.6 3339.56   1
  -9   6  -5 32284.5 3090.39   1
   9  -3   5 41376.9 3506.10   1
  -9   3  -5 35602.8 3120.20   1
   3  -9  -5 33492.8 3187.37   2
   9  -6   5 33183.5 3108.55   1
   9  -6   6 3717.73 1076.37   1
   6  -9  -6 3781.99 1068.38   1
   9  -3   6 2346.13 717.886   1
   3  -9  -6 3000.90 988.284   1
  -6   9   6 3480.68 1103.13   1
  -3   9   6 3404.10 1070.17   1
  -9   3  -6 3330.99 1049.48   1
   6  -9  -6 2501.31 871.245   2
  -3  -6   6 1962.64 809.908   2
  -9   6  -6 3236.68 948.624   1
   3  -9  -6 2077.20 791.391   2
   9  -3   7 4438.75 1171.13   1
   6  -9  -7 4010.19 1122.38   1
   3  -9  -7 2333.41 798.026   1
  -6   9   7 2204.46 877.656   1
  -3   9   7 3913.39 1191.86   1
   3  -9  -7 4932.43 1378.04   2
  -9   3  -7 2676.71 945.756   1
   6  -9  -7 4726.41 1181.98   2
   9  -6   7 3636.42 1126.92   1
  -9   6  -7 4064.58 1130.19   1
  -6   9   8 413144. 11727.6   1
   6  -9  -8 424053. 11932.1   1
   3  -9  -8 421070. 11905.8   1
  -3   9   8 421605. 11804.7   1
   9  -3   8 452493. 12102.0   1
  -9   3  -8 372953. 11222.1   1
   9  -6   8 452401. 12212.9   1
  -9   6  -8 461492. 12459.0   1
   3  -9  -8 434286. 12360.3   2
   6  -9  -8 488905. 13043.0   2
  -6   9   9 13614.6 2191.47   1
   6  -9  -9 13558.2 2104.01   1
   3  -9  -9 14651.7 2045.89   1
  -3   9   9 20164.8 2372.39   1
   9  -3   9 17099.9 2264.18   1
   9  -6   9 16511.6 2256.84   1
  -9   3  -9 16275.9 2245.95   1
  -9   6  -9 16314.3 2223.71   1
   3  -9  -9 16214.1 2345.42   2
  -6   9  10 48813.3 3911.39   1
   6  -9 -10 55230.1 4206.78   1
   3  -9 -10 49987.5 3961.13   1
   9  -3  10 61967.4 4476.16   1
  -3   9  10 48981.7 4023.32   1
   9  -6  10 48100.1 4021.14   1
  -9   3 -10 53918.8 4191.80   1
  -9   6 -10 56951.3 4295.27   1
   3  -9 -10 46955.6 4015.08   2
   3  -9 -11 151.935 570.140   2
   6  -9 -11 757.838 466.427   1
   3  -9 -11 906.742 482.856   1
   9  -6  11 818.067 674.537   1
  -6   9  11 1866.47 788.598   1
  -3   9  11 73.0122 552.876   1
  -9   3 -11 1157.44 669.013   1
  -9   6 -11-104.605 425.048   1
   9  -3  11 744.871 631.665   1
  -6   9  12 304356. 10401.3   1
   9  -3  12 316882. 10620.8   1
   6  -9 -12 354872. 11299.8   1
   3  -9 -12 331651. 10701.4   1
  -3   9  12 253899. 9421.96   1
   9  -6  12 276468. 10005.4   1
  -9   3 -12 296833. 10345.0   1
  -9   6 -12 293991. 10148.0   1
   3  -9 -12 283705. 10469.1   2
  -9   6 -13 13.0224 272.359   1
  -9   3 -13-83.0178 352.158   1
   9  -6  13-48.9054 416.721   1
   6  -9 -13 303.065 261.265   1
   3  -9 -13-529.771 591.551   1
  -6   9  13 121.850 373.947   1
  -3   9  13 821.452 648.546   1
   9  -3  13 383.054 538.421   1
   9  -3  14 36271.4 3646.12   1
   6  -9 -14 37663.3 3628.95   1
   3  -9 -14 36981.9 3513.23   1
   9  -6  14 28371.7 3252.38   1
  -3   9  14 31776.6 3343.93   1
  -9   3 -14 36472.2 3618.14   1
  -9   6 -14 30089.7 3250.04   1
   6  -9 -15 1464.93 763.147   1
   3  -9 -15 920.935 417.636   1
  -6   9  15 1707.19 899.196   1
  -3   9  15 2099.93 906.569   1
   9  -3  15 2227.90 994.469   1
  -9   3 -15 1853.87 839.418   1
  -7  -2 -14 60903.5 4719.87   2
  -2  -7 -14 72345.7 5099.20   1
  -2  -7 -14 73856.5 5363.79   2
  -7  -2 -14 72178.9 4975.70   1
   2   7  14 74038.0 5081.94   1
   7   2  14 56216.6 4359.19   1
  -7  -2 -13 67364.4 4753.30   2
  -2  -7 -13 59198.4 4569.31   1
  -7  -2 -13 55240.5 4370.50   1
   2   7  13 47003.7 3984.19   1
   7   2  13 48754.4 4145.78   1
  -2  -7 -13 62860.3 4862.74   2
  -2  -7 -12 13446.4 2106.67   2
  -7  -2 -12 8965.62 1705.14   2
  -7  -2 -12 10646.5 1933.96   1
  -2  -7 -12 10188.6 1905.52   1
   7   2  12 13250.8 2128.29   1
   2   7  12 10090.6 1823.25   1
   9  -7 -11 71681.9 4939.24   1
  -7  -2 -11 79391.3 5257.29   2
   2  -9  11 66474.8 5012.14   2
  -2  -7 -11 70638.6 4941.89   1
  -7  -2 -11 86465.4 5359.39   1
   2   7  11 61415.2 4465.30   1
   7   2  11 72701.3 4874.18   1
  -2  -7 -11 84599.5 5616.84   2
  -9   7  11 55231.2 4425.91   1
  -7  -2 -10 222763. 8884.90   2
  -2  -7 -10 297955. 10144.0   1
  -7  -2 -10 256006. 9435.89   1
   2   7  10 250262. 9123.41   1
   2  -9  10 237626. 9395.47   2
   7   2  10 223585. 8767.45   1
  -2  -7 -10 262314. 9858.41   2
  -9   7  10 280655. 9896.24   1
   9  -7 -10 280906. 9765.59   1
  -7  -2  -9 34206.1 3349.21   2
  -2  -7  -9 28667.4 3053.70   1
   9  -7  -9 28808.0 3059.28   1
  -7  -2  -9 34498.2 3290.52   1
   2   7   9 29881.3 2956.11   1
  -7   9  -9 26935.8 2969.60   1
   7   2   9 31969.9 3142.69   1
  -2  -7  -9 31989.6 3233.51   2
  -9   7   9 24227.9 2780.92   1
   2  -9   9 22968.2 2946.22   2
  -7  -2  -8 131306. 6604.58   2
   7  -9   8 108605. 5951.41   1
  -2  -7  -8 112057. 5981.39   1
  -7  -2  -8 95508.9 5549.05   1
   2   7   8 89807.0 5399.26   1
   2  -9   8 100923. 5887.04   2
  -7   9  -8 100082. 5823.01   1
   9  -7  -8 121105. 6235.47   1
   7   2   8 98072.9 5630.21   1
  -2  -7  -8 122369. 6325.95   2
  -9   7   8 123483. 6336.91   1
  -7  -2  -7 30173.1 3041.93   2
   7  -9   7 29882.1 3055.54   1
  -2  -7  -7 29816.0 3079.45   1
   9  -7  -7 31720.9 3095.80   1
  -7  -2  -7 27927.8 3008.04   1
   2   7   7 30621.7 3064.64   1
  -7   9  -7 31542.3 3143.63   1
   2  -9   7 28378.5 2962.75   2
  -9   7   7 33801.2 3296.68   1
  -2  -7  -7 29779.5 3098.74   2
   7   2   7 29105.5 3084.18   1
  -7  -2  -6 441290. 12238.4   2
  -2  -7  -6 474919. 12608.8   1
   7  -9   6 458804. 12258.8   1
  -7  -2  -6 432045. 12042.5   1
   2   7   6 430503. 11922.7   1
   7   2   6 484206. 12658.7   1
   9  -2  -6 424915. 11741.6   1
   7  -9   6 496348. 13115.4   2
   2  -9   6 423069. 11992.3   2
   9  -7  -6 404209. 11620.7   1
  -7   9  -6 458924. 12544.3   1
  -9   7   6 358297. 11198.1   1
  -2  -7  -6 497324. 13023.5   2
  -7  -2  -5 254382. 9054.50   2
  -2  -7  -5 247122. 8957.50   1
  -7  -2  -5 307317. 9892.04   1
   2   7   5 283968. 9440.83   1
   7  -9   5 270541. 9156.62   1
   9  -2  -5 280152. 9290.23   1
   9  -7  -5 268756. 9269.70   1
   2  -9   5 232623. 8797.81   2
  -2  -7  -5 269017. 9443.95   2
  -7   9  -5 265144. 9190.17   1
  -9   7   5 227924. 8583.71   1
   7   2   5 278966. 9480.76   1
   7  -9   5 258744. 9404.06   2
  -7  -2  -4 16950.4 2309.62   2
  -9   7   4 11637.3 1855.64   1
   7  -9   4 12202.7 1926.32   1
  -2  -7  -4 14879.7 2119.58   1
  -7  -2  -4 12446.4 1948.10   1
   2   7   4 12136.0 1921.35   1
   7   2   4 12769.0 1944.19   1
   9  -2  -4 12172.9 1842.78   1
  -9   2   4 12364.3 1927.93   1
   9  -7  -4 15109.9 2133.41   1
   7  -9   4 14136.8 2101.69   2
   2  -9   4 9939.98 1776.57   2
  -2  -7  -4 12898.5 2007.70   2
  -7   9  -4 13189.1 2074.29   1
   7   2   3 368534. 11035.9   1
  -7  -2  -3 515444. 12587.7   2
  -2   9  -3 429345. 11300.3   1
   2  -9   3 415493. 11062.1   1
  -2  -7  -3 383062. 11150.3   1
  -7  -2  -3 270532. 9540.43   1
   2   7   3 382646. 11039.8   1
   9  -2  -3 506107. 12511.3   1
   9  -7  -3 347939. 10606.1   1
  -9   2   3 327824. 10228.6   1
   7  -9   3 389302. 11473.9   2
   2  -9   3 459673. 12046.9   2
  -7   9  -3 387182. 11124.6   1
   7  -9   3 418018. 11280.6   1
  -9   7   3 428443. 11689.9   1
  -2  -7  -3 349442. 10756.6   2
   7   2   2 147006. 6689.71   1
  -7  -2  -2 142783. 6521.78   2
   7  -9   2 152975. 6528.44   1
   7  -9   2 161605. 7308.48   2
   2  -9   2 168734. 6852.94   1
  -2   9  -2 152303. 6567.44   1
   2  -9   2 150571. 6679.46   2
  -2  -7  -2 150861. 6800.71   1
  -7  -2  -2 139066. 6478.48   1
   2   7   2 133680. 6309.51   1
   9  -7  -2 155848. 6741.41   1
   9  -2  -2 146592. 6577.66   1
  -9   2   2 111529. 5772.74   1
  -9   7   2 164834. 7067.19   1
  -2  -7  -2 146406. 6658.54   2
  -7   9  -2 146433. 6596.38   1
   7   2   1 30656.6 2984.67   1
  -7  -2  -1 26379.2 2687.08   2
   2  -9   1 32499.4 2985.46   1
   7  -9   1 27913.9 2753.91   1
  -2   9  -1 29604.6 2883.96   1
  -2  -7  -1 32550.5 3044.45   1
   9  -7  -1 25610.4 2695.44   1
   2   7   1 30734.7 2936.70   1
  -7  -2  -1 25941.4 2766.33   1
   9  -2  -1 34730.2 3155.70   1
  -9   2   1 27279.3 2856.20   1
   2  -9   1 28374.5 2881.06   2
  -9   7   1 34790.5 3239.70   1
  -2  -7  -1 28730.5 2865.72   2
   7  -9   1 28945.5 2987.88   2
  -7   9  -1 31147.0 2998.25   1
  -2  -7   0 3277.20 1010.80   2
  -7  -2   0 2477.77 838.950   2
  -9   7   0 1361.62 761.773   1
   7  -9   0 1400.84 724.655   1
  -7   9   0 1621.31 742.482   1
   2  -9   0 1944.05 760.491   1
  -2  -7   0 774.084 369.775   1
   9  -2   0 1102.91 711.830   1
   9  -7   0 845.375 646.780   1
  -2   9   0 920.453 554.317   1
  -9   2   0 1799.50 914.372   1
   7   2   0 1321.77 867.373   1
  -7  -2   0 1104.28 418.142   1
   7  -9   0 1064.95 726.275   2
   2   7   0 1262.41 666.760   1
   2  -9   0 1156.11 635.073   2
  -2  -7   1 1106.15 574.336   2
  -9   7  -1 2093.78 738.057   1
  -7  -2   1 1006.08 724.543   2
  -7   9   1 1721.18 729.716   1
   2  -9  -1 1940.66 701.102   1
   9  -2   1 706.325 525.365   1
  -2  -7   1 1592.29 717.384   1
   9  -7   1 824.327 330.569   1
   7  -9  -1 1575.72 716.831   1
  -2   9   1 1828.75 783.833   1
   7   2  -1 1571.76 689.389   1
  -7  -2   1 2200.95 790.356   1
   2   7  -1 1740.78 773.187   1
   7  -9  -1 1349.22 487.179   2
  -9   2  -1 1284.35 401.069   1
   2  -9  -1 1494.32 738.914   2
   7   2  -2 627834. 13720.9   1
  -7   9   2 488782. 12285.5   1
   2  -9  -2 420369. 11506.7   1
   9  -7   2 453774. 11946.1   1
  -2   9   2 478148. 12332.3   1
   2   7  -2 435712. 11264.8   1
   9  -2   2 414565. 11722.4   1
  -7  -2   2 544839. 12780.0   1
  -9   7  -2 446087. 12229.7   1
  -9   2  -2 540266. 12855.8   1
   7  -9  -2 506294. 12993.1   2
   7  -9  -2 484150. 12417.3   1
   2  -9  -2 409433. 11677.2   2
  -2  -7   2 479929. 12258.4   2
  -7  -2   2 411748. 10929.6   2
  -7   9   3 152983. 6694.64   1
   9  -7   3 123540. 6174.63   1
   2  -9  -3 139082. 6462.23   1
  -2   9   3 150353. 6680.30   1
   9  -2   3 132812. 6372.44   1
  -2  -7   3 150469. 6697.71   2
  -9   2  -3 135173. 6252.99   1
   7  -9  -3 163728. 7121.40   2
  -9   7  -3 165081. 7057.18   1
   2  -9  -3 128985. 6388.11   2
   7  -9  -3 147249. 6664.36   1
  -7   9   4 261938. 8930.18   1
  -9   7  -4 235780. 8896.06   1
   9  -7   4 263941. 9016.36   1
   7  -9  -4 295324. 9564.25   1
   2  -9  -4 265277. 9031.74   1
  -2   9   4 264141. 9027.99   1
   9  -2   4 237953. 8671.03   1
  -9   2  -4 300248. 9354.88   1
  -2  -7   4 228494. 8418.55   2
   2  -9  -4 270343. 9197.93   2
   7  -9  -4 282191. 9537.99   2
   9  -7   5 214388. 8115.56   1
  -7   9   5 257161. 8896.46   1
   2  -9  -5 232918. 8430.02   1
  -2   9   5 233439. 8498.72   1
   9  -2   5 185161. 7613.57   1
  -9   2  -5 228851. 8405.25   1
   7  -9  -5 258134. 9068.29   2
  -9   7  -5 238205. 8699.37   1
  -2  -7   5 193629. 7771.59   2
   2  -9  -5 229548. 8557.59   2
  -2  -7   6 558976. 13449.7   2
  -7   9   6 434781. 12030.3   1
   7  -9  -6 512717. 13165.9   1
   2  -9  -6 453032. 12332.5   1
  -2   9   6 473659. 12390.1   1
   9  -2   6 460314. 12328.5   1
  -9   2  -6 458702. 12473.4   1
   7  -9  -6 529560. 13443.1   2
  -9   7  -6 477150. 12699.4   1
   2  -9  -6 460987. 12518.9   2
   9  -7   6 554235. 13326.1   1
  -7   9   7 104461. 5690.24   1
   7  -9  -7 118779. 6182.59   1
   2  -9  -7 109474. 5884.97   1
   9  -2   7 118659. 6057.16   1
  -2   9   7 118874. 5996.90   1
  -9   2  -7 126041. 6352.95   1
   7  -9  -7 122597. 6324.22   2
  -2  -7   7 114190. 5919.82   2
   9  -7   7 95035.1 5402.68   1
  -9   7  -7 119913. 6130.99   1
   2  -9  -7 117804. 6228.49   2
   9  -7   8 6097.40 1343.40   1
   2  -9  -8 5649.62 1388.39   2
   9  -2   8 7692.80 1630.09   1
   7  -9  -8 5313.06 1418.12   1
  -7   9   8 5355.54 1343.97   1
   2  -9  -8 5333.30 1300.91   1
  -2   9   8 4383.92 1172.72   1
  -9   2  -8 6068.44 1374.66   1
  -9   7  -8 5534.74 1377.40   1
  -7   9   9 120627. 6203.91   1
   7  -9  -9 116047. 6279.10   1
   9  -2   9 119257. 6261.47   1
   2  -9  -9 104474. 5873.21   1
  -2   9   9 90780.7 5388.27   1
  -9   2  -9 112270. 6038.60   1
   9  -7   9 81167.9 5101.78   1
  -9   7  -9 101089. 5719.90   1
   2  -9  -9 112434. 6101.15   2
  -7   9  10 82801.9 5251.74   1
   7  -9 -10 83127.9 5246.51   1
   9  -2  10 86115.6 5345.86   1
   2  -9 -10 88200.4 5397.20   1
   2  -9 -10 82469.4 5385.31   2
  -2   9  10 82881.0 5146.57   1
   9  -7  10 69594.5 4823.72   1
  -9   7 -10 82016.8 5214.52   1
  -7   9  11 79687.4 5149.96   1
   9  -2  11 91601.3 5507.74   1
   7  -9 -11 85990.4 5434.59   1
   2  -9 -11 86124.9 5435.69   1
  -2   9  11 100626. 5699.07   1
  -9   2 -11 80985.7 5268.50   1
   9  -7  11 86002.3 5430.16   1
  -9   7 -11 89306.4 5633.41   1
   2  -9 -11 79068.7 5431.26   2
   9  -2  12 27772.6 3027.86   1
  -7   9  12 24825.5 2950.99   1
   7  -9 -12 21874.2 2809.16   1
   2  -9 -12 23703.2 2842.72   1
  -2   9  12 19806.1 2573.55   1
   2  -9 -12 19415.7 2743.71   2
   9  -7  12 18548.1 2509.88   1
  -9   2 -12 26394.1 2922.06   1
  -9   7 -12 20777.7 2673.28   1
   9  -2  13 25576.1 2974.12   1
  -7   9  13 20983.6 2647.19   1
   7  -9 -13 24324.8 2967.57   1
   2  -9 -13 22296.7 2706.46   1
  -2   9  13 29112.3 3122.02   1
  -9   2 -13 21553.4 2816.03   1
  -9   7 -13 21123.9 2701.22   1
   2  -9 -13 17965.1 2664.27   2
   9  -2  14 193436. 8400.53   1
  -7   9  14 145404. 7423.59   1
   7  -9 -14 189848. 8580.61   1
   2  -9 -14 161926. 7620.99   1
  -2   9  14 130797. 6865.64   1
  -9   2 -14 155447. 7593.99   1
   7  -9 -15 5046.54 1446.18   1
  -1  -8 -14 149391. 7751.97   2
  -8  -1 -13 16595.3 2482.48   2
  -1  -8 -13 17084.2 2461.90   1
   1   8  13 13828.9 2184.05   1
  -8  -1 -13 12265.5 2045.23   1
   8   1  13 14744.4 2262.73   1
  -1  -8 -13 15685.5 2478.39   2
   9  -8 -12 2813.26 947.719   1
  -8  -1 -12 4227.67 1299.76   2
  -9   8  12 2314.61 978.015   1
  -1  -8 -12 4832.10 1340.46   1
   8   1  12 2499.77 858.390   1
  -8  -1 -12 4870.68 1309.79   1
   1   8  12 3295.39 1007.29   1
  -1  -8 -12 3702.11 1259.11   2
  -8  -1 -11 90656.4 5679.17   2
   9  -8 -11 70741.9 5132.35   1
  -1  -8 -11 95019.5 5787.35   1
   1   8  11 87921.0 5370.33   1
  -8  -1 -11 90024.8 5538.16   1
  -1  -8 -11 80212.8 5428.09   2
   8   1  11 84819.8 5429.16   1
  -9   8  11 70557.9 5036.73   1
  -8  -1 -10 204437. 8503.27   2
   9  -8 -10 184461. 7933.58   1
  -1  -8 -10 173658. 7692.85   1
   1   8  10 191568. 7951.53   1
  -8  -1 -10 176786. 7748.34   1
  -8   9 -10 165163. 7774.23   1
   1  -9  10 146700. 7464.69   2
  -1  -8 -10 177559. 8106.16   2
   8   1  10 186099. 7898.46   1
  -9   8  10 159500. 7480.47   1
  -8  -1  -9 140804. 7000.10   2
  -8   9  -9 134524. 6939.97   1
   9  -8  -9 116681. 6204.24   1
  -1  -8  -9 135852. 6786.61   1
   1   8   9 128493. 6556.44   1
  -8  -1  -9 118988. 6397.24   1
   1  -9   9 127292. 6910.57   2
  -1  -8  -9 153084. 7343.86   2
   8  -9   9 128060. 6524.10   1
   8   1   9 151845. 7136.26   1
  -9   8   9 152329. 7076.92   1
   8   1   8 134480. 6679.64   1
   8  -9   8 153029. 7168.38   1
  -8  -1  -8 132171. 6812.00   2
   9  -8  -8 134700. 6622.60   1
  -1  -8  -8 142629. 6909.11   1
   1   8   8 116998. 6124.44   1
  -8  -1  -8 139385. 6786.26   1
   1  -9   8 137409. 6913.43   2
  -8   9  -8 134660. 6887.30   1
  -1  -8  -8 127128. 6598.50   2
  -9   8   8 118591. 6264.57   1
   8   1   7 18993.0 2475.98   1
  -8  -1  -7 17801.9 2436.30   2
   9  -8  -7 19456.5 2463.98   1
   8  -9   7 18630.3 2406.21   1
  -1  -8  -7 16377.5 2289.72   1
   1   8   7 18648.1 2397.66   1
  -8  -1  -7 20431.2 2614.06   1
   1  -9   7 16334.9 2358.84   2
  -1  -8  -7 18069.3 2400.77   2
  -9   8   7 16120.8 2273.40   1
  -8   9  -7 19795.5 2580.84   1
   8   1   6 233577. 8757.32   1
   9  -8  -6 241943. 8854.72   1
  -8  -1  -6 251064. 9149.06   2
   8  -9   6 234729. 8697.99   1
  -1  -8  -6 226741. 8750.23   1
   1   8   6 244308. 8840.59   1
  -8  -1  -6 287936. 9592.67   1
   1  -9   6 215101. 8570.09   2
  -8   9  -6 286126. 9847.95   1
  -1  -8  -6 236097. 8881.09   2
  -9   8   6 279755. 9498.06   1
   8   1   5 54946.8 4105.69   1
  -8  -1  -5 51618.2 4017.55   2
  -1  -8  -5 57200.3 4314.04   1
   8  -9   5 57792.0 4234.79   1
   1   8   5 49396.0 3923.76   1
  -8  -1  -5 44265.7 3755.97   1
   1  -9   5 43451.3 3794.69   2
  -8   9  -5 60637.0 4429.01   1
  -1  -8  -5 63166.2 4519.44   2
  -9   8   5 57210.2 4228.14   1
   9  -8  -5 63007.3 4384.45   1
  -1  -8  -4-451.458 780.290   2
  -8  -1  -4 73.6433 457.355   2
  -8   9  -4 627.726 609.393   1
  -9   8   4-26.8659 600.109   1
   9  -8  -4 633.138 712.197   1
   9  -1  -4 354.883 341.324   1
  -1  -8  -4 606.368 570.996   1
   8  -9   4 1141.80 740.011   1
   8   1   4 1431.69 859.978   1
  -8  -1  -4 529.175 516.311   1
   1  -9   4 473.666 421.486   2
   1   8   4 352.348 465.411   1
  -9   1   4-329.897 353.408   1
  -8  -1  -3 197456. 7940.32   2
   8   1   3 202558. 8028.44   1
  -1  -8  -3 181043. 7658.67   1
   9  -1  -3 156703. 7109.31   1
   1   8   3 177080. 7450.23   1
  -8  -1  -3 243707. 8797.61   1
   8  -9   3 206210. 8031.81   1
  -9   1   3 199440. 7692.19   1
   8  -9   3 174306. 7632.87   2
   9  -8  -3 212594. 8115.63   1
   1  -9   3 171656. 7399.30   2
  -1  -8  -3 181047. 7531.92   2
  -8   9  -3 192465. 7854.04   1
  -9   8   3 200565. 8123.19   1
  -8  -1  -2 334697. 10222.3   2
   8   1   2 250287. 9031.37   1
   1  -9   2 259294. 8860.25   1
  -1   9  -2 291861. 9439.77   1
  -1  -8  -2 296769. 9854.35   1
   9  -1  -2 353009. 10553.6   1
   1   8   2 280019. 9378.79   1
  -8  -1  -2 277314. 9371.68   1
  -9   1   2 388973. 10682.3   1
   8  -9   2 270463. 9771.29   2
   9  -8  -2 235535. 8805.00   1
   8  -9   2 300443. 9743.77   1
   1  -9   2 296418. 9650.25   2
  -1  -8  -2 288112. 9585.93   2
  -9   8   2 274369. 9341.46   1
  -8   9  -2 283840. 9620.01   1
  -8  -1  -1 123518. 6115.45   2
   8   1   1 142769. 6724.58   1
   1  -9   1 141167. 6499.31   1
  -1  -8  -1 167551. 7222.79   1
  -1   9  -1 142149. 6564.70   1
   9  -1  -1 141086. 6577.04   1
   1   8   1 154023. 6796.30   1
  -8  -1  -1 113017. 5975.03   1
  -9   1   1 114006. 5874.78   1
   9  -8  -1 151668. 6709.25   1
   8  -9   1 132411. 6709.51   2
   1  -9   1 143943. 6669.74   2
   8  -9   1 153510. 6806.94   1
  -1  -8  -1 112060. 6022.78   2
  -9   8   1 169743. 7146.72   1
  -8   9  -1 145571. 6612.18   1
   8  -9   0 27002.2 2800.27   1
  -8  -1   0 28107.4 2762.56   2
  -9   1   0 23450.0 2688.53   2
   8   1   0 31752.2 3067.70   1
   1  -9   0 26894.9 2817.74   1
  -1  -8   0 26889.7 2862.97   1
  -1   9   0 24576.8 2728.79   1
   9  -1   0 24186.8 2626.27   1
   1   8   0 26433.6 2800.09   1
  -8  -1   0 35829.8 3257.76   1
   9  -8   0 28957.2 2849.75   1
  -9   1   0 36890.8 3256.69   1
   8  -9   0 20845.0 2698.98   2
   1  -9   0 28763.7 2910.61   2
  -1  -8   0 25776.8 2812.64   2
  -9   8   0 25890.6 2749.79   1
  -8   9   0 24827.1 2734.01   1
  -9   1  -1 121407. 6312.37   2
   8   1  -1 90843.3 5324.89   1
   8  -9  -1 108981. 5655.07   1
   1  -9  -1 110380. 5760.22   1
  -1  -8   1 113166. 5824.03   1
  -1   9   1 112582. 5800.06   1
   9  -1   1 87848.5 5193.46   1
   1   8  -1 101103. 5452.42   1
   9  -8   1 113175. 5758.92   1
  -8  -1   1 100377. 5607.65   1
  -9   1  -1 132983. 6367.04   1
   8  -9  -1 106359. 5925.70   2
  -1  -8   1 104298. 5657.97   2
   1  -9  -1 106174. 5704.39   2
  -9   8  -1 111106. 5979.26   1
  -8   9   1 110058. 5765.66   1
  -9   1  -2 478555. 12939.4   2
   8   1  -2 486055. 12518.4   1
   1  -9  -2 473321. 12385.9   1
   8  -9  -2 465263. 12036.7   1
  -1   9   2 418241. 11792.1   1
   9  -1   2 402817. 11645.8   1
   9  -8   2 433878. 11879.0   1
  -8  -1   2 427878. 11831.0   1
  -9   1  -2 468979. 12281.9   1
  -1  -8   2 411320. 11749.5   2
   8  -9  -2 420602. 12124.9   2
   1  -9  -2 440353. 12075.2   2
  -9   8  -2 459509. 12483.3   1
  -8   9   2 435226. 12004.3   1
  -8   9   3 72407.5 4636.53   1
  -9   1  -3 76438.9 4998.58   2
   8   1  -3 77308.4 4788.57   1
   1  -9  -3 70306.5 4622.87   1
   9  -8   3 72779.1 4610.50   1
   9  -1   3 59244.2 4189.33   1
  -1   9   3 65718.5 4505.89   1
   8  -9  -3 69986.3 4508.12   1
  -9   1  -3 66491.2 4450.77   1
   8  -9  -3 77364.1 5005.19   2
  -9   8  -3 69800.4 4745.52   1
  -1  -8   3 59972.3 4310.10   2
   1  -9  -3 74141.4 4735.53   2
  -8   9   4 110014. 5832.03   1
  -9   1  -4 110895. 6124.36   2
   9  -8   4 102197. 5657.42   1
   1  -9  -4 107657. 5838.36   1
   9  -1   4 81137.5 5086.55   1
  -1   9   4 106238. 5735.17   1
   8  -9  -4 107144. 5631.22   1
  -9   1  -4 89739.7 5310.08   1
   8  -9  -4 110119. 6059.07   2
  -1  -8   4 109523. 5876.71   2
  -9   8  -4 115014. 6121.25   1
   1  -9  -4 108042. 5869.77   2
  -8   9   5 81156.1 5064.11   1
  -9   1  -5 77728.3 5196.38   2
   9  -8   5 80183.1 4951.94   1
   9  -1   5 78784.0 4952.66   1
   1  -9  -5 72022.1 4814.77   1
  -1   9   5 81066.1 5019.40   1
  -9   1  -5 72026.7 4811.00   1
   8  -9  -5 84357.5 5018.29   1
   8  -9  -5 72603.0 4859.25   2
  -9   8  -5 74376.5 4840.63   1
  -1  -8   5 60011.1 4409.03   2
   1  -9  -5 76005.9 4959.68   2
  -8   9   6 175649. 7401.92   1
   9  -8   6 168102. 7299.17   1
  -9   8  -6 174328. 7657.32   1
  -9   1  -6 139341. 7123.21   2
   9  -1   6 172716. 7536.24   1
   1  -9  -6 183896. 7818.76   1
  -1   9   6 177407. 7562.82   1
  -9   1  -6 160721. 7290.85   1
   8  -9  -6 164671. 7299.64   1
  -1  -8   6 176858. 7472.94   2
   1  -9  -6 193401. 8007.77   2
  -8   9   7 142259. 6736.32   1
  -9   1  -7 174023. 7845.27   2
   9  -1   7 142847. 6818.98   1
   1  -9  -7 154829. 7117.50   1
  -1   9   7 145494. 6760.60   1
  -9   1  -7 164130. 7289.01   1
  -9   8  -7 152131. 7133.43   1
  -1  -8   7 184635. 7903.66   2
   8  -9  -7 152605. 7060.84   1
   1  -9  -7 151255. 7102.74   2
   9  -8   7 120798. 6278.81   1
  -9   8  -8 4677.43 1354.24   1
   1  -9  -8 5287.93 1362.53   2
  -9   1  -8 4194.84 1360.40   2
   9  -8   8 2890.00 960.941   1
   8  -9  -8 5181.39 1368.22   1
  -8   9   8 2147.27 809.286   1
   1  -9  -8 4110.78 1247.55   1
  -1   9   8 2964.10 1047.39   1
  -9   1  -8 3512.78 1180.76   1
   9  -1   8 5540.48 1405.26   1
  -1  -8   8 4537.75 1256.61   2
   9  -8   9 50189.4 4097.56   1
  -8   9   9 60295.8 4443.18   1
   9  -1   9 58512.1 4296.57   1
  -9   1  -9 64313.6 4816.68   2
   1  -9  -9 51600.5 4215.55   1
  -1   9   9 54099.4 4185.04   1
  -9   1  -9 58104.0 4375.67   1
  -9   8  -9 49852.7 4065.66   1
   1  -9  -9 49314.6 4173.53   2
   8  -9  -9 58228.6 4354.75   1
   8  -9 -10 197981. 8487.54   1
  -8   9  10 253436. 9267.48   1
   9  -1  10 216260. 8486.40   1
  -9   1 -10 260060. 10040.9   2
   1  -9 -10 227638. 9046.47   1
  -1   9  10 204811. 8380.29   1
  -9   1 -10 205513. 8506.96   1
   9  -8  10 192075. 8178.36   1
  -9   8 -10 200623. 8538.31   1
   1  -9 -10 208283. 8605.39   2
   9  -1  11 13551.0 2139.47   1
  -8   9  11 14019.5 2228.87   1
   8  -9 -11 11935.7 2107.61   1
  -9   1 -11 13020.5 2184.99   2
   1  -9 -11 14432.5 2287.89   1
  -1   9  11 16336.1 2279.68   1
  -9   1 -11 15161.2 2287.36   1
   9  -8  11 13097.2 2183.67   1
  -9   8 -11 14789.7 2285.19   1
   1  -9 -11 13730.9 2263.99   2
   1  -9 -12 10507.9 1926.33   2
  -9   1 -12 11960.4 2178.72   2
  -8   9  12 6133.56 1466.43   1
   1  -9 -12 8402.65 1748.00   1
   8  -9 -12 8091.77 1730.32   1
   9  -1  12 10998.9 1954.59   1
  -9   1 -12 10351.0 1895.69   1
  -1   9  12 7577.12 1697.55   1
  -9   8 -12 8743.69 1824.92   1
  -8   9  13 76198.2 5337.83   1
  -9   1 -13 71937.3 5280.07   2
   8  -9 -13 75631.2 5422.88   1
   1  -9 -13 90748.5 5744.93   1
  -1   9  13 87199.3 5553.43   1
  -9   1 -13 97656.6 5945.08   1
   1  -9 -13 69318.1 5252.57   2
   9  -1  13 92492.8 5734.01   1
   8  -9 -14 99962.6 6238.85   1
   1  -9 -14 87364.4 5877.72   2
   9  -9  -1-159.517 540.146   1
  -9   0  -1 266.831 483.831   2
  -9   9  -1 586.026 670.201   1
  -9   9   1-72.1514 446.893   1
   0  -9   1-160.854 402.315   1
   0  -9  -1 484.819 352.038   1
   9  -9   1-115.622 421.824   1
   0   9  -1 535.308 379.463   1
   0   9   1 668.552 679.168   1
  -9   0  -1 51.8333 376.765   1
  -9   0   1-629.849 452.227   1
   9   0   1-81.2808 450.156   1
   9   0  -1 172.626 497.376   1
   0  -9   1 157.838 468.291   2
   0  -9  -1-152.193 526.852   2
   0  -9  -2 2274.73 756.924   2
  -9   0  -2 2348.61 730.476   2
  -9   9  -2 2849.96 952.865   1
   9  -9  -2 3265.34 1016.52   1
  -9   9   2 4199.41 1144.00   1
   0  -9  -2 2907.77 990.882   1
   9  -9   2 3318.41 1005.89   1
   0   9   2 3244.59 1052.12   1
  -9   0  -2 3230.83 1035.62   1
  -9   0   2 2770.75 951.456   1
   9   0   2 3827.38 1096.29   1
   0  -9   2 3723.43 1096.19   2
   9   0  -2 1901.85 688.825   1
   0  -9  -3 1221.59 757.916   2
  -9   0  -3 953.810 447.889   2
  -9   9  -3 1019.91 493.788   1
  -9   9   3 1443.15 687.357   1
   9  -9  -3 455.421 335.645   1
   0  -9  -3 917.684 603.377   1
   9  -9   3 1193.87 628.249   1
   0   9   3 486.978 405.295   1
  -9   0  -3 761.465 768.631   1
   9   0   3 796.192 620.415   1
   9  -9  -3 770.247 406.398   2
   0  -9   3 1445.59 635.484   2
   9   0  -3 758.062 583.345   1
  -9   0  -4 99810.4 5810.67   2
   9  -9  -4 79225.0 4958.97   1
   9   0   4 93192.6 5401.47   1
   0  -9  -4 88518.2 5428.36   1
   9  -9   4 82045.4 5100.65   1
   0   9   4 91057.3 5461.11   1
  -9   0  -4 92479.4 5553.38   1
   9  -9  -4 95683.8 5762.34   2
  -9   9  -4 80672.6 5296.54   1
   0  -9   4 85627.3 5272.46   2
   0  -9  -4 91698.8 5589.17   2
  -9   9   4 65809.8 4577.75   1
   0  -9  -5 581.470 495.645   2
  -9   9  -5 797.198 686.691   1
  -9   0  -5 544.651 395.164   2
  -9   9   5 168.212 367.423   1
   9  -9   5-421.543 516.276   1
   0  -9  -5 543.458 621.436   1
   9   0   5-105.744 470.132   1
   9  -9  -5 567.730 443.011   1
  -9   0  -5 693.800 666.304   1
   0   9   5 75.5432 345.746   1
   0  -9   5-115.076 461.115   2
   0  -9  -6 1857.87 984.766   2
  -9   9  -6 1167.42 714.590   1
   9  -9   6 2043.62 899.274   1
  -9   0  -6 1942.73 1063.36   2
  -9   9   6 1231.11 740.578   1
   0  -9  -6 2742.18 928.023   1
  -9   0  -6 2324.14 941.279   1
   0   9   6 1347.20 478.088   1
   9  -9  -6 2053.48 998.460   1
   9   0   6 2434.81 861.908   1
   0  -9   6 2227.64 760.743   2
   0  -9  -7 1770.47 891.782   2
  -9   9  -7 1420.18 670.435   1
  -9   0  -7 1243.88 738.721   2
  -9   9   7 1675.28 777.517   1
   0  -9  -7 1594.21 762.348   1
   9  -9   7 1314.45 782.979   1
  -9   0  -7 1830.98 948.657   1
   9   0   7 1939.87 857.800   1
   0   9   7 887.411 613.466   1
   0  -9   7 995.738 538.675   2
   9  -9  -7 1313.00 636.910   1
  -9   9   8 281538. 10050.5   1
   9   0   8 340634. 10738.9   1
   0  -9  -8 305174. 10503.5   1
   9  -9  -8 282718. 9873.04   1
   0   9   8 288049. 9931.82   1
  -9   0  -8 294177. 10214.6   1
   9  -9   8 264211. 9666.89   1
  -9   9  -8 300226. 10520.3   1
   0  -9   8 309667. 10815.7   2
   0  -9  -8 293511. 10321.3   2
  -9   9  -9 1453.23 869.928   1
   0  -9  -9 506.977 681.186   2
   9  -9  -9 968.293 684.620   1
  -9   0  -9 1236.21 762.373   2
   9  -9   9 1187.21 775.792   1
  -9   9   9 1014.10 687.906   1
   0  -9  -9 2258.29 1043.90   1
   9   0   9 981.367 509.097   1
  -9   0  -9-34.1142 320.315   1
   0   9   9 842.542 384.646   1
   9  -9  10 1898.17 858.476   1
   0  -9 -10 2401.55 1127.68   2
  -9   0 -10 2234.22 932.231   2
   9  -9 -10 1728.12 826.778   1
  -9   9  10 1515.10 749.475   1
   0  -9 -10 360.178 635.457   1
   9   0  10 2772.80 865.876   1
  -9   0 -10 1782.43 891.448   1
   0   9  10 2214.63 998.471   1
  -9   9 -10 2170.91 916.504   1
   0  -9 -11 96.3661 492.484   2
  -9   0 -11-805.885 803.646   2
   9  -9 -11 253.466 465.222   1
  -9   9  11 266.160 409.943   1
   0  -9 -11 156.275 485.035   1
   9   0  11-285.047 694.880   1
  -9   0 -11 1.17075 492.126   1
   0   9  11-22.9928 256.601   1
  -9   9  12 340922. 11711.2   1
  -9   0 -12 371251. 12146.3   2
   0  -9 -12 378490. 11745.2   1
   0   9  12 307202. 10594.1   1
   9  -9 -12 282550. 10595.0   1
  -9   0 -12 357517. 11561.1   1
   0  -9 -12 370586. 12056.7   2
   9   0  12 400560. 12120.3   1
   0  -9 -13 156.351 358.599   2
   9  -9 -13 818.452 713.551   1
   5   5  13 469.087 593.027   1
  -5  -5 -13 728.036 649.405   2
  -5  -5 -13-493.038 580.345   1
  -5  -5 -12 845310. 18530.1   2
  -5  -5 -12 902408. 18908.6   1
  -5  -5 -11-529.067 729.894   2
   5   5  11-277.818 404.540   1
  -5  -5 -11 161.961 406.445   1
  -5  -5 -10 28598.4 3137.07   2
  -5  -5 -10 33067.0 3449.74   1
   5   5  10 33208.0 3285.25   1
   5 -10  10 29306.9 3322.14   2
  -5  -5  -9-219.999 529.426   2
   5   5   9 368.833 426.548   1
  -5  -5  -9 481.213 703.313   1
   5 -10   9 138.107 371.668   2
  10  -5  -8 121598. 6512.24   1
  -5  -5  -8 116229. 6330.61   1
   5   5   8 108360. 5886.74   1
   5 -10   8 106917. 6237.67   2
  -5  -5  -8 108425. 6236.02   2
 -10   5   7 141.855 378.332   1
  10  -5  -7 673.190 674.699   1
  -5  -5  -7 253.750 598.870   2
   5   5   7 446.883 419.565   1
  -5  -5  -7 1.14558 336.961   1
   5 -10   7-526.703 544.633   2
  10  -5  -6 20662.3 2551.54   1
  -5  -5  -6 16458.7 2374.74   1
   5   5   6 24099.1 2734.57   1
   5 -10   6 19619.8 2568.80   2
 -10   5   6 28625.7 3054.03   1
  -5  -5  -6 23235.4 2806.88   2
 -10   5   5-208.376 451.430   1
  -5  -5  -5 577.984 598.123   2
   5   5   5 270.946 352.940   1
  -5  10  -5 381.164 530.896   1
  -5  -5  -5 913.462 854.501   1
   5 -10   5 230.723 307.467   1
  10  -5  -5-551.582 615.002   1
   5 -10   5 376.132 408.320   2
  -5  10  -4 344408. 10542.2   1
  10  -5  -4 249655. 9085.09   1
   5 -10   4 322040. 10191.1   1
  -5  -5  -4 305558. 10237.1   1
   5   5   4 310168. 10089.4   1
   5 -10   4 335639. 10752.3   2
 -10   5   4 261246. 9482.94   1
  -5  -5  -4 288402. 9960.89   2
 -10   5   3 191.030 433.791   1
  -5  -5  -3-12.8001 610.145   2
   5   5   3 423.702 463.666   1
  -5  10  -3 674.639 574.635   1
  -5  -5  -3-447.196 582.694   1
  10  -5  -3-92.4438 387.609   1
   5 -10   3-249.617 584.207   1
   5 -10   3 624.948 592.464   2
  -5  10  -2 44044.0 3612.70   1
   5 -10   2 43040.1 3614.61   1
  -5  -5  -2 55729.5 4214.69   1
   5   5   2 49277.1 3887.74   1
   5 -10   2 51833.6 4069.29   2
 -10   5   2 62766.8 4420.08   1
  -5  -5  -2 46348.1 3787.63   2
  10  -5  -2 49563.5 3913.48   1
 -10   5   1 616.387 543.866   1
  -5  -5  -1-448.758 460.454   2
   5   5   1 358.446 475.314   1
   5 -10   1 814.480 582.674   1
   5 -10   1 143.709 404.205   2
  -5  10  -1 92.7772 344.173   1
  10  -5  -1-400.393 535.521   1
  -5  -5  -1-601.517 608.673   1
  -5  -5   1-86.7840 310.840   2
   5   5  -1 459.998 486.271   1
  10  -5   1 61.9104 543.398   1
   5 -10  -1-162.537 291.982   1
  -5  10   1 44.1507 346.930   1
   5 -10  -1 476.060 668.525   2
 -10   5  -1 231.408 314.934   1
  -5  10   2 27882.5 2904.51   1
   5 -10  -2 25675.2 2881.87   1
 -10   5  -2 26039.2 2799.63   1
  10  -5   2 27366.4 2871.15   1
   5 -10  -2 28380.2 3069.77   2
  -5  -5   2 20352.6 2509.65   2
  -5  -5   3 415.531 648.558   2
   5 -10  -3-154.097 443.323   1
  -5  10   3-228.892 276.489   1
   5 -10  -3 83.8502 524.977   2
  10  -5   3-103.873 610.041   1
 -10   5  -3 147.971 352.728   1
  -5  10   4 321349. 10401.6   1
   5 -10  -4 354834. 10806.5   1
  10  -5   4 417757. 11591.3   1
 -10   5  -4 409453. 11648.8   1
   5 -10  -4 348322. 10929.0   2
   5 -10  -5-520.363 673.484   1
  -5  10   5-508.923 636.680   1
  10  -5   5 206.349 376.539   1
   5 -10  -5-11.0088 425.468   2
 -10   5  -5-264.214 366.686   1
  -5  10   6 57939.3 4316.93   1
   5 -10  -6 64871.7 4494.35   1
  10  -5   6 60334.1 4317.64   1
 -10   5  -6 62002.2 4432.33   1
   5 -10  -6 59987.5 4385.02   2
   5 -10  -7-282.790 561.465   1
  -5  10   7 81.4874 341.569   1
  10  -5   7 708.162 445.558   1
 -10   5  -7-319.250 485.528   1
   5 -10  -7-702.800 740.653   2
  -5  10   8 81303.2 5133.33   1
   5 -10  -8 88928.3 5315.19   1
  10  -5   8 79157.2 5156.17   1
 -10   5  -8 81928.9 5168.58   1
   5 -10  -8 81485.7 5322.36   2
   5 -10  -9-34.8496 441.213   1
  10  -5   9 903.816 635.904   1
  -5  10   9 66.9701 288.886   1
 -10   5  -9-360.794 511.260   1
   5 -10  -9-360.959 369.231   2
   5 -10 -10 26564.8 2901.00   1
  -5  10  10 27262.4 3013.77   1
  10  -5  10 24287.5 2890.09   1
 -10   5 -10 21568.6 2647.92   1
   5 -10 -10 24308.1 2961.24   2
  10  -5  11-51.5592 701.725   1
   5 -10 -11 18.0614 358.695   1
  -5  10  11 500.423 432.716   1
 -10   5 -11-83.2759 556.998   1
   5 -10 -12 962240. 19395.4   1
  10  -5  12 965980. 19656.1   1
 -10   5 -12 943132. 19593.5   1
   5 -10 -13 204.992 374.709   1
  -5  10  13 50.0204 483.244   1
 -10   5 -13-405.550 583.501   1
  10  -5  13 108.718 407.971   1
 -10   5 -14 5143.03 1389.01   1
  10  -5  14 4509.05 1334.03   1
  -4  -6 -13 11363.5 1945.02   2
  -4  -6 -12 26848.5 2977.17   1
  -6  -4 -12 23979.0 2902.56   1
  -6  -4 -12 25772.5 2979.53   2
   4   6  12 23603.7 2716.58   1
   6   4  12 23665.6 2812.90   1
  -4  -6 -12 18600.4 2698.81   2
  -6  -4 -11 209613. 8622.85   2
  -4  -6 -11 202160. 8368.57   1
  -6  -4 -11 218084. 8741.31   1
   4   6  11 186509. 7860.15   1
   6   4  11 212887. 8502.12   1
  -4  -6 -11 178836. 8024.13   2
  -6  -4 -10 238638. 9096.09   2
  -4  -6 -10 217659. 8777.29   1
  -6  -4 -10 166807. 7710.33   1
   4   6  10 215154. 8340.08   1
   4 -10  10 172049. 8153.90   2
   6   4  10 211029. 8409.05   1
  -4  -6 -10 168225. 7905.34   2
  -6  -4  -9 160524. 7577.13   2
  -4  -6  -9 166768. 7572.45   1
  10  -6  -9 149153. 7261.56   1
  -6  -4  -9 147688. 7217.63   1
   4   6   9 161808. 7267.99   1
   6 -10   9 171579. 8005.88   2
   4 -10   9 131658. 7070.94   2
   6   4   9 145857. 7021.82   1
 -10   6   9 164392. 7753.47   1
  -4  -6  -9 131082. 6728.35   2
  -6  -4  -8 27320.2 3010.20   2
  10  -6  -8 26084.3 2924.56   1
  -4  -6  -8 26856.9 2997.44   1
  -6  -4  -8 29573.5 3013.29   1
   6   4   8 24080.6 2808.46   1
   4   6   8 27262.6 2788.26   1
   6 -10   8 25629.1 3042.63   2
   4 -10   8 22766.0 2899.37   2
 -10   6   8 24610.2 2978.98   1
  -4  -6  -8 26413.1 2986.09   2
  -6  -4  -7 11155.3 1955.56   2
   4   6   7 7565.06 1576.37   1
  -4  -6  -7 11208.8 1930.29   2
 -10   6   7 8023.28 1687.99   1
   6   4   7 11201.3 1867.34   1
  10  -4  -7 9908.63 1825.30   1
  10  -6  -7 9109.27 1736.92   1
  -4  -6  -7 11436.5 1942.44   1
  -6  -4  -7 9988.50 1858.16   1
   6 -10   7 9696.41 1911.03   2
   4 -10   7 9887.00 1864.90   2
  -6  -4  -6 127609. 6508.36   2
   6 -10   6 146965. 7126.86   2
  10  -6  -6 131371. 6554.66   1
  -4  -6  -6 121039. 6400.25   1
  -6  -4  -6 113316. 6096.20   1
   4   6   6 137456. 6624.33   1
   6 -10   6 132880. 6567.86   1
 -10   4   6 182239. 7775.74   1
   4 -10   6 160323. 7399.69   2
   6   4   6 123000. 6413.25   1
 -10   6   6 162841. 7470.45   1
  10  -4  -6 118780. 6297.09   1
  -6  10  -6 128625. 6565.10   1
  -4  -6  -6 139954. 6825.63   2
  -6  -4  -5 25761.2 2901.86   2
  10  -6  -5 29162.2 3022.68   1
  -4  -6  -5 26609.1 3002.88   1
  -6  -4  -5 23787.3 2749.37   1
   4   6   5 27149.7 2902.79   1
   6 -10   5 32450.8 3319.85   2
 -10   4   5 23108.1 2736.44   1
   4 -10   5 31135.0 3217.01   2
   6   4   5 29548.5 3044.45   1
 -10   6   5 33502.8 3309.22   1
  10  -4  -5 29459.4 3007.11   1
   6 -10   5 32316.1 3195.92   1
  -6  10  -5 30017.7 3075.00   1
  -4  -6  -5 26565.0 3031.12   2
  -4  -6  -4 7333.55 1554.57   2
 -10   6   4 5949.32 1400.37   1
   4   6   4 5253.27 1261.66   1
  -6  -4  -4 6361.78 1454.54   2
   4 -10   4 4747.50 1205.65   1
  10  -4  -4 6055.51 1407.94   1
  -6  10  -4 7091.42 1528.77   1
  -4  10  -4 6527.10 1429.12   1
  10  -6  -4 6308.26 1444.00   1
   6   4   4 5534.05 1327.19   1
  -4  -6  -4 7215.61 1501.98   1
   6 -10   4 5318.68 1250.88   1
  -6  -4  -4 5798.19 1375.45   1
   6 -10   4 6133.29 1426.77   2
   4 -10   4 4680.29 1317.80   2
 -10   4   4 6155.72 1320.39   1
  -6  10  -3 76301.8 4933.47   1
  -4  10  -3 75238.3 4822.82   1
 -10   6   3 104202. 5752.94   1
  10  -6  -3 74238.0 4763.43   1
   6 -10   3 77498.9 4882.96   1
  -4  -6  -3 73688.1 4843.64   1
  -6  -4  -3 76743.9 4960.73   1
   4   6   3 78126.4 4822.11   1
 -10   4   3 79457.7 4910.69   1
   6 -10   3 77609.2 5015.52   2
   4 -10   3 68892.1 4733.83   2
   6   4   3 78325.5 4948.29   1
  10  -4  -3 71289.7 4684.28   1
  -4  -6  -3 73532.0 4943.49   2
  -6  -4  -3 95977.7 5598.21   2
  -6  10  -2 440967. 12122.3   1
  -4  10  -2 419324. 11752.7   1
  10  -6  -2 386555. 11344.6   1
   4 -10   2 435797. 12112.0   1
  -4  -6  -2 425319. 11921.4   1
  -6  -4  -2 459071. 12417.5   1
   6 -10   2 401615. 11430.2   1
   4   6   2 409635. 11535.2   1
 -10   4   2 360780. 10916.4   1
   6 -10   2 418257. 12205.1   2
  10  -4  -2 396982. 11509.8   1
   6   4   2 366422. 11057.4   1
 -10   6   2 395449. 11563.1   1
   4 -10   2 415065. 11993.2   2
  -4  -6  -2 465353. 12621.0   2
  -6  -4  -2 412612. 11792.0   2
  -6  10  -1 98841.4 5501.80   1
  10  -6  -1 90881.6 5247.51   1
  -4  10  -1 88739.1 5262.05   1
   4 -10   1 116682. 6037.28   1
 -10   6   1 71327.0 4837.67   1
  -4  -6  -1 93775.7 5354.56   1
  -6  -4  -1 107576. 5766.31   1
   4   6   1 98109.0 5417.42   1
 -10   4   1 91264.7 5275.24   1
  10  -4  -1 100935. 5564.73   1
   6 -10   1 94217.6 5358.34   1
   6 -10   1 80172.1 5286.94   2
   4 -10   1 88620.4 5317.80   2
   6   4   1 103246. 5677.41   1
  -4  -6  -1 91288.8 5383.83   2
  -6  -4  -1 84503.1 5210.78   2
  10  -6   0 89622.2 5225.65   1
  -6  10   0 82966.3 4962.86   1
   6 -10   0 86330.7 5202.59   1
  -4  10   0 86840.4 5191.46   1
   4 -10   0 88456.6 5317.09   1
  -4  -6   0 80248.5 4920.83   1
  -6  -4   0 93551.9 5375.13   1
  10  -4   0 100497. 5470.86   1
   4   6   0 75792.6 4748.87   1
 -10   4   0 61559.9 4301.07   1
   6 -10   0 82088.3 5097.57   2
 -10   6   0 82360.9 5080.99   1
   6   4   0 92126.8 5347.49   1
   4 -10   0 84673.2 5114.91   2
  -4  -6   0 93762.4 5381.42   2
  -6  -4   0 87701.1 5237.60   2
  10  -6   1 194115. 7754.26   1
  -6  10   1 193430. 7773.42   1
  -4  10   1 192716. 7783.63   1
   4 -10  -1 183207. 7591.12   1
  -6  -4   1 202076. 7845.49   1
   4   6  -1 169011. 7250.47   1
  10  -4   1 191086. 7743.08   1
 -10   4  -1 178365. 7544.19   1
   6 -10  -1 188993. 7948.98   2
   6   4  -1 181814. 7524.51   1
   4 -10  -1 171973. 7461.41   2
  -4  -6   1 195865. 7904.61   2
  -6  -4   1 214258. 8256.29   2
  -6  10   2 461801. 12311.1   1
   6 -10  -2 474613. 12642.1   1
  -4  10   2 449905. 12373.5   1
   4 -10  -2 482128. 12521.1   1
   4 -10  -2 464229. 12536.7   2
  10  -4   2 485898. 12614.8   1
 -10   4  -2 493927. 12784.9   1
 -10   6  -2 377806. 11344.0   1
   6 -10  -2 446935. 12499.4   2
  -4  -6   2 534563. 13188.9   2
  10  -6   2 476874. 12421.5   1
  -6  -4   2 426610. 11999.5   2
  -6  10   3 95539.7 5359.96   1
   6 -10  -3 92918.3 5521.90   1
  -4  10   3 97200.2 5436.12   1
   4 -10  -3 97310.7 5471.06   1
  10  -4   3 80736.6 5090.78   1
 -10   4  -3 86576.6 5140.99   1
 -10   6  -3 97712.4 5490.16   1
   6 -10  -3 87441.1 5417.19   2
   4 -10  -3 90649.8 5419.75   2
  10  -6   3 90846.1 5238.73   1
  -4  -6   3 92310.7 5433.01   2
  -6  10   4 12203.4 1927.80   1
   4 -10  -4 13365.5 2009.63   1
  -4  10   4 11508.6 1953.08   1
   6 -10  -4 12280.9 2013.20   1
  10  -4   4 13553.2 2043.14   1
 -10   4  -4 12697.9 2053.86   1
   6 -10  -4 12162.7 2082.99   2
  10  -6   4 15976.2 2124.36   1
  -4  -6   4 10084.0 1824.67   2
   4 -10  -4 12112.0 1946.95   2
 -10   6  -4 12160.9 1905.10   1
  -6  10   5 54356.4 4116.95   1
   6 -10  -5 53737.2 4206.27   1
   4 -10  -5 53123.3 4065.04   1
  -4  10   5 57191.9 4271.16   1
  10  -4   5 65280.0 4479.83   1
 -10   4  -5 62225.9 4440.28   1
 -10   6  -5 59181.8 4262.04   1
  10  -6   5 59633.2 4339.62   1
   6 -10  -5 57272.4 4471.21   2
   4 -10  -5 57975.5 4333.75   2
  -6  10   6 95120.9 5457.96   1
   6 -10  -6 89248.9 5395.01   1
   4 -10  -6 83136.4 5167.58   1
  -4  10   6 81738.5 5190.01   1
  10  -4   6 77947.7 5065.55   1
 -10   4  -6 77805.3 4998.33   1
  10  -6   6 84028.3 5062.77   1
 -10   6  -6 83926.7 5192.15   1
   4 -10  -6 79924.8 5126.81   2
   6 -10  -6 86485.7 5407.82   2
  -6  10   7 94713.1 5466.02   1
   6 -10  -7 93714.1 5713.27   2
   6 -10  -7 97251.9 5666.51   1
   4 -10  -7 99528.2 5637.17   1
  -4  10   7 102173. 5731.55   1
  10  -4   7 92967.5 5408.16   1
  10  -6   7 100822. 5660.51   1
 -10   4  -7 99017.2 5494.73   1
 -10   6  -7 92582.2 5506.35   1
   4 -10  -7 88707.8 5475.21   2
  10  -4   8 2247.01 860.959   1
   6 -10  -8 1665.33 807.630   1
   4 -10  -8 2877.87 1050.37   1
  -6  10   8 2450.84 918.249   1
  -4  10   8 2234.95 917.615   1
  10  -6   8 1971.83 718.399   1
 -10   4  -8 1795.13 793.832   1
 -10   6  -8 2696.95 1038.45   1
   6 -10  -8 1680.38 891.972   2
   4 -10  -8 2787.42 1009.80   2
  -6  10   9 17204.7 2313.79   1
   6 -10  -9 16632.2 2367.83   1
   4 -10  -9 15642.9 2222.44   1
  -4  10   9 15395.7 2195.08   1
  10  -4   9 17164.9 2415.32   1
  10  -6   9 14118.1 2200.42   1
 -10   4  -9 19044.8 2546.30   1
 -10   6  -9 15664.2 2295.58   1
   6 -10  -9 18551.3 2535.50   2
   4 -10  -9 15669.1 2382.76   2
  -6  10  10 294734. 10269.4   1
   6 -10 -10 349996. 11174.5   1
   4 -10 -10 356255. 11112.0   1
  -4  10  10 412778. 11876.0   1
  10  -4  10 364989. 11382.2   1
  10  -6  10 360781. 11472.0   1
 -10   4 -10 372519. 11452.6   1
 -10   6 -10 349046. 11122.5   1
   4 -10 -10 299526. 10936.3   2
  -6  10  11 31742.5 3298.84   1
   6 -10 -11 22350.3 2902.56   1
   4 -10 -11 29566.7 3036.28   1
  -4  10  11 29556.6 3148.50   1
  10  -4  11 23810.2 2859.23   1
  10  -6  11 26833.4 3003.29   1
 -10   4 -11 22781.7 2858.71   1
 -10   6 -11 23085.5 2762.86   1
   4 -10 -11 21243.7 2866.40   2
  -6  10  12 69082.9 4977.68   1
   6 -10 -12 64399.2 4831.54   1
  10  -4  12 73423.7 5180.12   1
   4 -10 -12 74365.0 5012.18   1
  -4  10  12 78733.4 5219.53   1
  10  -6  12 64154.9 4815.21   1
 -10   4 -12 67437.3 4912.12   1
 -10   6 -12 63472.0 4774.53   1
  -6  10  13 127231. 6855.42   1
  10  -4  13 152531. 7583.72   1
   6 -10 -13 141267. 7244.75   1
   4 -10 -13 190103. 8169.68   1
  -4  10  13 151400. 7433.53   1
  10  -6  13 129336. 6931.93   1
 -10   4 -13 161730. 7716.28   1
 -10   6 -13 115640. 6612.70   1
 -10   6 -14 79866.8 5567.15   1
  -3  -7 -12 2688.01 1157.91   2
  -7  -3 -12 2077.43 1076.66   2
   7   3  12 2683.07 1020.49   1
  -3  -7 -12 1455.84 790.376   1
  -7  -3 -12 2538.69 964.861   1
   3 -10  12 1634.94 719.123   2
   3   7  12 2915.80 1117.36   1
  -7  -3 -11 14079.9 2229.35   2
   7   3  11 11521.8 1935.42   1
  -3  -7 -11 13932.2 2222.53   1
  -7  -3 -11 14835.3 2293.05   1
   3 -10  11 5972.94 1532.83   2
  -3  -7 -11 12236.7 2257.28   2
   3   7  11 9333.77 1792.12   1
  -7  -3 -10 290674. 10242.7   2
  -3  -7 -10 282694. 10090.6   1
  -7  -3 -10 303676. 10358.9   1
   3   7  10 291799. 10083.7   1
  10  -7 -10 294661. 10426.8   1
   7   3  10 298939. 10038.2   1
  -3  -7 -10 290231. 10476.3   2
  -7  -3  -9 83444.9 5336.68   2
  -3  -7  -9 74308.2 5041.42   1
  -7  -3  -9 70165.0 4917.85   1
   3   7   9 73267.0 4796.82   1
  10  -7  -9 73832.3 5037.26   1
   3 -10   9 62550.6 4768.58   2
   7   3   9 76843.0 5049.80   1
  -3  -7  -9 62899.3 4831.50   2
  -7  -3  -8 25055.4 2945.87   2
  -3  -7  -8 19284.9 2605.15   1
   7   3   8 20597.9 2662.89   1
  -7  -3  -8 22967.5 2788.78   1
  10  -7  -8 24949.7 2890.16   1
   3   7   8 18693.7 2463.45   1
   3 -10   8 17724.5 2538.20   2
 -10   7   8 18258.7 2444.45   1
  -3  -7  -8 21026.5 2654.41   2
  -7  -3  -7 301605. 10296.5   2
  -3  -7  -7 283959. 9949.46   1
   7 -10   7 294799. 10135.9   1
  -7  -3  -7 262864. 9610.81   1
  10  -7  -7 252805. 9435.34   1
   3   7   7 280573. 9709.33   1
   7 -10   7 261965. 9782.27   2
   3 -10   7 263846. 9824.51   2
   7   3   7 274901. 9782.51   1
  -7  10  -7 314228. 10605.2   1
 -10   7   7 280612. 9998.30   1
  -3  -7  -7 303495. 10414.3   2
  -7  -3  -6 200289. 8380.39   2
   7   3   6 199629. 8214.93   1
  -3  -7  -6 218744. 8640.63   1
  -7  -3  -6 188081. 7952.71   1
  10  -7  -6 203436. 8398.34   1
   7 -10   6 215797. 8598.98   1
   3   7   6 216575. 8443.91   1
  10  -3  -6 289005. 9799.98   1
   7 -10   6 244385. 9305.90   2
   3 -10   6 223723. 8876.36   2
 -10   7   6 233205. 8970.42   1
  -7  10  -6 225315. 8810.18   1
  -3  -7  -6 178402. 7954.63   2
  -7  -3  -5 96531.6 5680.17   2
  -3  -7  -5 84459.9 5248.67   1
  10  -7  -5 85978.9 5294.89   1
  -7  -3  -5 94909.0 5557.90   1
   3   7   5 84856.5 5262.90   1
   7 -10   5 84575.8 5239.41   1
  10  -3  -5 94115.7 5516.85   1
   7 -10   5 81732.9 5361.26   2
   3 -10   5 84562.2 5284.22   2
   7   3   5 94923.0 5486.81   1
 -10   7   5 93009.0 5569.49   1
  -7  10  -5 88549.3 5434.19   1
  -3  -7  -5 96025.0 5725.48   2
  -7  -3  -4 36208.5 3452.09   2
  -3  -7  -4 46587.1 3860.65   1
  10  -7  -4 37473.6 3501.68   1
  -7  -3  -4 40279.3 3669.55   1
   3   7   4 39384.8 3452.55   1
  10  -3  -4 37839.0 3491.20   1
   7 -10   4 41098.2 3742.73   2
   3 -10   4 37540.8 3507.41   2
   7 -10   4 48321.0 3885.20   1
 -10   7   4 45384.1 3770.60   1
   7   3   4 41220.7 3630.54   1
  -3  -7  -4 41728.1 3760.29   2
  -7  10  -4 39324.5 3599.35   1
  -3  -7  -3 1030.83 712.740   2
  -7  -3  -3 1884.97 1025.25   2
 -10   7   3 1456.40 683.498   1
  -7  10  -3 916.004 478.034   1
   3 -10   3 724.915 388.451   1
  10  -3  -3 2144.18 998.970   1
   7 -10   3 2665.75 975.803   1
  -3  10  -3 1658.21 590.682   1
   7   3   3 980.990 553.813   1
  -3  -7  -3 1490.22 758.636   1
  10  -7  -3 1447.69 807.949   1
  -7  -3  -3 1977.74 909.153   1
   7 -10   3 1741.04 850.877   2
   3 -10   3 1804.70 868.924   2
 -10   3   3 1149.43 706.373   1
   3   7   3 359.652 337.083   1
  -7  -3  -2 290366. 9816.35   2
  -3  10  -2 270767. 9423.62   1
   7 -10   2 278640. 9499.96   1
   3 -10   2 267394. 9550.06   1
  10  -7  -2 257133. 9127.70   1
  -3  -7  -2 312150. 10169.0   1
  -7  -3  -2 296881. 9928.30   1
   3   7   2 295151. 9852.69   1
  10  -3  -2 280758. 9525.46   1
 -10   3   2 227055. 8842.71   1
   7 -10   2 266372. 9635.68   2
   3 -10   2 298856. 9891.13   2
 -10   7   2 298373. 10054.2   1
   7   3   2 294584. 9873.59   1
  -3  -7  -2 323586. 10446.7   2
  -7  10  -2 283317. 9700.76   1
  -7  -3  -1 41935.7 3647.05   2
  -7  10  -1 35573.4 3380.35   1
  -3  10  -1 30724.5 3128.55   1
   3 -10   1 28077.4 3016.94   1
  10  -7  -1 34541.1 3235.69   1
   7 -10   1 34586.4 3228.98   1
  -3  -7  -1 31876.5 3211.42   1
  -7  -3  -1 31486.8 3168.31   1
   3   7   1 33725.5 3216.83   1
  10  -3  -1 31664.5 3149.29   1
 -10   3   1 26270.7 2916.93   1
   7 -10   1 35606.3 3434.56   2
   3 -10   1 37959.9 3537.77   2
 -10   7   1 34899.0 3365.36   1
   7   3   1 34387.1 3282.16   1
  -3  -7  -1 33662.1 3275.48   2
  -7  10   0 47240.8 3839.49   1
  -3  10   0 44470.7 3720.22   1
   3 -10   0 44098.6 3727.47   1
  10  -7   0 36738.0 3372.18   1
  -3  -7   0 42086.3 3721.98   1
  -7  -3   0 36469.5 3375.33   1
   7 -10   0 46512.2 3776.48   1
   3   7   0 41035.3 3575.24   1
  10  -3   0 42524.5 3712.51   1
 -10   3   0 38177.2 3455.25   1
   7 -10   0 40733.0 3710.94   2
 -10   7   0 44971.3 3837.26   1
   7   3   0 52511.8 4067.11   1
   3 -10   0 49499.8 3963.35   2
  -3  -7   0 46570.0 3751.58   2
  -7  -3   0 46821.5 3817.68   2
  -7  10   1 137268. 6566.77   1
  10  -7   1 137837. 6616.68   1
   3 -10  -1 138556. 6524.41   1
  -3  10   1 137450. 6653.95   1
  -7  -3   1 133859. 6512.20   1
  10  -3   1 136247. 6711.97   1
 -10   3  -1 129428. 6463.88   1
   7 -10  -1 139455. 6555.50   1
   7 -10  -1 144247. 6991.89   2
 -10   7  -1 130858. 6573.09   1
   3 -10  -1 149106. 6933.34   2
   7   3  -1 114889. 6134.47   1
  -3  -7   1 151733. 7009.66   2
  -7  -3   1 144222. 6749.04   2
  -7  10   2 216603. 8213.40   1
  10  -7   2 213586. 8356.63   1
   3 -10  -2 208171. 8116.06   1
  -3  10   2 221563. 8548.70   1
  10  -3   2 242678. 9029.60   1
 -10   3  -2 233284. 8656.91   1
   7 -10  -2 216018. 8616.53   2
 -10   7  -2 224284. 8713.30   1
   3 -10  -2 237427. 8829.69   2
  -3  -7   2 208354. 8378.01   2
   7 -10  -2 240981. 8772.77   1
  10  -7   3 163329. 7089.95   1
  -7  10   3 146495. 6744.36   1
   7 -10  -3 150942. 6860.13   1
   3 -10  -3 150243. 6934.97   1
  -3  10   3 153445. 7015.26   1
  10  -3   3 177254. 7519.64   1
 -10   3  -3 153741. 6835.75   1
   7 -10  -3 145453. 7057.37   2
 -10   7  -3 163273. 7180.03   1
   3 -10  -3 152803. 7052.49   2
  -3  -7   3 157128. 7123.99   2
 -10   7  -4 268.517 566.609   1
   7 -10  -4-231.646 648.497   1
   3 -10  -4 43.2548 456.123   1
  10  -3   4-648.938 628.882   1
  -7  10   4 297.786 348.889   1
  10  -7   4 621.201 454.111   1
  -3  10   4 689.657 527.321   1
 -10   3  -4 579.464 433.650   1
   7 -10  -4 194.411 412.005   2
   3 -10  -4 1206.80 835.708   2
  -3  -7   4 856.093 723.468   2
  -7  10   5 93040.9 5447.17   1
   7 -10  -5 89633.2 5423.83   1
   3 -10  -5 82722.2 5194.45   1
  -3  10   5 82816.7 5250.44   1
  10  -3   5 91452.9 5451.09   1
 -10   3  -5 82308.3 5113.62   1
   7 -10  -5 82316.9 5358.68   2
   3 -10  -5 90565.8 5454.79   2
  -3  -7   5 84970.1 5301.72   2
  10  -7   5 88190.8 5237.13   1
 -10   7  -5 88361.8 5309.37   1
  -7  10   6 399405. 11423.6   1
   7 -10  -6 387986. 11541.4   1
   3 -10  -6 376199. 11355.6   1
  -3  10   6 389859. 11509.4   1
 -10   7  -6 367846. 11121.3   1
   7 -10  -6 394737. 12041.6   2
  10  -7   6 385962. 11426.7   1
   3 -10  -6 386997. 11696.4   2
  -7  10   7 69641.5 4689.78   1
   7 -10  -7 87190.0 5309.48   1
   3 -10  -7 72543.5 4950.32   1
  -3  10   7 76548.0 4898.66   1
  10  -3   7 65845.9 4620.71   1
 -10   3  -7 88571.8 5379.02   1
 -10   7  -7 84397.3 5192.50   1
  10  -7   7 72957.8 4809.57   1
   7 -10  -7 77404.4 5267.13   2
   3 -10  -7 70129.0 4952.16   2
  -7  10   8 66283.3 4655.82   1
   7 -10  -8 84606.4 5374.54   1
   3 -10  -8 74327.0 4959.07   1
  -3  10   8 72786.1 4929.99   1
  10  -3   8 67056.3 4702.39   1
 -10   3  -8 62808.7 4607.65   1
  10  -7   8 73039.2 4856.34   1
 -10   7  -8 71733.3 4937.76   1
   3 -10  -8 70532.5 5048.51   2
  -7  10   9 159257. 7176.75   1
   7 -10  -9 143396. 7079.23   1
   3 -10  -9 130096. 6675.30   1
  10  -3   9 132749. 6683.00   1
  -3  10   9 123797. 6493.04   1
 -10   3  -9 105812. 6044.15   1
  10  -7   9 117217. 6435.38   1
 -10   7  -9 120945. 6459.15   1
   3 -10  -9 124468. 6723.77   2
  -7  10  10 116597. 6264.22   1
   7 -10 -10 95897.3 6014.82   1
  10  -3  10 103281. 5965.59   1
   3 -10 -10 109839. 6043.76   1
  -3  10  10 108120. 5972.36   1
  10  -7  10 83697.0 5500.53   1
 -10   3 -10 117184. 6373.22   1
 -10   7 -10 102038. 5998.34   1
   3 -10 -10 104216. 6245.34   2
  -7  10  11 33007.6 3349.54   1
   7 -10 -11 36040.6 3558.73   1
  10  -3  11 31140.4 3306.04   1
   3 -10 -11 32287.5 3305.35   1
  -3  10  11 37889.5 3606.57   1
  10  -7  11 27975.8 3202.84   1
 -10   3 -11 32364.3 3349.40   1
 -10   7 -11 26648.8 3016.09   1
   3 -10 -11 29687.8 3340.51   2
  -7  10  12 13600.1 2148.74   1
  10  -3  12 12213.7 2184.17   1
   3 -10 -12 16699.5 2357.52   1
   7 -10 -12 11774.9 2039.88   1
  -3  10  12 15382.6 2270.88   1
  10  -7  12 11289.9 2039.95   1
 -10   3 -12 14189.9 2189.62   1
 -10   7 -12 12002.5 2010.79   1
   3 -10 -12 9713.49 1951.46   2
  10  -7  13 368.630 569.484   1
   7 -10 -13 212.358 449.913   1
  -7  10  13 946.816 554.153   1
 -10   7 -13 444.992 604.510   1
  -2  -8 -12 267585. 10158.9   2
  -2  -8 -11 1493.55 784.839   2
  10  -8 -11 1128.08 817.835   1
  -8  -2 -11 2631.95 1060.61   2
 -10   8  11 1201.80 734.437   1
   8   2  11 1679.42 820.036   1
  -2  -8 -11 710.388 479.848   1
  -8  -2 -11 1618.93 838.968   1
   2   8  11 1686.21 782.388   1
  10  -8 -10 5144.73 1417.42   1
  -2  -8 -10 4483.37 1413.75   2
  -8  -2 -10 8365.69 1792.30   2
 -10   8  10 6890.13 1585.25   1
   8   2  10 5372.47 1312.79   1
  -2  -8 -10 6081.09 1516.55   1
  -8  -2 -10 5539.97 1428.05   1
   2 -10  10 4579.88 1363.40   2
   2   8  10 5206.12 1312.44   1
  -2  -8  -9 8479.71 1674.71   2
  -8  -2  -9 9233.70 1815.68   2
 -10   8   9 7710.93 1700.48   1
   8   2   9 9528.90 1776.04   1
  -2  -8  -9 9815.29 1855.54   1
  -8  -2  -9 8776.33 1724.61   1
   2 -10   9 7351.85 1687.01   2
   2   8   9 10205.3 1788.61   1
  10  -8  -9 8892.85 1686.17   1
  -8  -2  -8 379089. 11777.9   2
   8 -10   8 345642. 11429.2   1
  -2  -8  -8 416006. 12334.3   1
  -8  -2  -8 415004. 12228.6   1
   2   8   8 372713. 11448.3   1
  10  -8  -8 413199. 12201.0   1
   2 -10   8 328224. 11488.7   2
  -8  10  -8 347736. 11651.9   1
   8   2   8 380111. 11741.8   1
  -2  -8  -8 409551. 12322.7   2
 -10   8   8 356961. 11560.1   1
  -2  -8  -7 6647.73 1559.27   2
  -8  10  -7 6755.39 1571.91   1
  -8  -2  -7 5949.54 1503.01   2
 -10   8   7 8032.33 1678.41   1
   8 -10   7 5712.32 1404.64   1
  -2  -8  -7 6605.07 1531.24   1
   8   2   7 5844.95 1444.06   1
  -8  -2  -7 6996.04 1576.48   1
   2 -10   7 6114.30 1512.56   2
   2   8   7 7520.57 1593.91   1
  10  -8  -7 6009.87 1483.42   1
  -2  -8  -6-392.885 473.164   2
  -8  10  -6-14.4001 481.291   1
  -8  -2  -6 971.498 637.697   2
 -10   8   6-204.605 521.074   1
  -2  -8  -6-269.867 381.820   1
   8 -10   6-375.143 519.198   1
   8   2   6 240.278 344.905   1
  -8  -2  -6-33.3252 457.419   1
  10  -8  -6-831.997 662.557   1
   2 -10   6-505.187 672.347   2
   2   8   6 492.132 470.586   1
  -8  -2  -5 19851.8 2684.50   2
  -2  -8  -5 18184.2 2443.22   1
   8 -10   5 23301.5 2734.62   1
   2   8   5 21298.0 2650.18   1
  -8  -2  -5 14650.4 2279.53   1
  10  -8  -5 22808.0 2674.61   1
   2 -10   5 20825.0 2666.10   2
  -8  10  -5 21363.9 2764.15   1
  -2  -8  -5 23009.9 2705.24   2
 -10   8   5 19350.3 2512.28   1
   8   2   5 20859.9 2708.78   1
  -8  -2  -4 408799. 12021.3   2
  -2  -8  -4 413882. 12210.0   1
   2   8   4 402072. 11789.2   1
  10  -2  -4 388462. 11931.9   1
  -8  -2  -4 375075. 11708.4   1
  10  -8  -4 467280. 12624.6   1
   8 -10   4 432230. 12192.8   1
   8 -10   4 397695. 12179.2   2
   2 -10   4 416226. 12265.2   2
 -10   8   4 396714. 11978.3   1
  -2  -8  -4 425781. 12368.2   2
  -8  10  -4 415982. 12263.5   1
   8   2   4 407741. 12229.1   1
  -2  -8  -3 487.676 429.152   2
  -8  -2  -3 1873.31 872.387   2
 -10   8   3 1367.82 772.426   1
  -8  10  -3 1618.72 853.821   1
  10  -2  -3 879.994 541.374   1
  -2  -8  -3 1501.98 745.222   1
   8   2   3 571.455 489.045   1
  -8  -2  -3 449.679 754.806   1
  10  -8  -3 1652.56 868.462   1
   8 -10   3 1165.65 649.471   2
   2   8   3 1285.65 691.287   1
 -10   2   3 1287.46 727.834   1
   2 -10   3 1985.92 962.932   2
   8 -10   3 630.763 518.060   1
  -8  -2  -2 23268.2 2737.97   2
  -2  10  -2 22015.7 2686.31   1
   2 -10   2 21314.9 2616.07   1
  -2  -8  -2 22314.0 2793.37   1
   8 -10   2 24619.9 2824.16   1
   2   8   2 24956.8 2798.04   1
  10  -8  -2 25595.4 2822.53   1
  10  -2  -2 23045.5 2689.34   1
  -8  -2  -2 26175.7 2931.64   1
 -10   2   2 21497.3 2642.19   1
   8 -10   2 24588.0 2884.51   2
   2 -10   2 23536.0 2785.85   2
 -10   8   2 19702.0 2640.53   1
  -2  -8  -2 28795.2 2975.40   2
  -8  10  -2 23672.9 2784.76   1
   8   2   2 27446.9 3050.34   1
  -2  -8  -1 4238.88 951.162   2
  -8  -2  -1 4267.82 1171.88   2
 -10   8   1 4552.32 1207.46   1
  -8  10  -1 4869.98 1330.24   1
   2 -10   1 5413.78 1378.32   1
  10  -2  -1 4464.60 1198.10   1
   8 -10   1 4778.55 1239.37   1
  -2  -8  -1 4150.75 1239.86   1
  -2  10  -1 4021.71 1107.11   1
  10  -8  -1 3819.52 1139.10   1
   8   2   1 4676.21 1306.97   1
  -8  -2  -1 4523.85 1315.57   1
   2   8   1 4127.92 1185.39   1
   8 -10   1 3868.03 1172.53   2
 -10   2   1 4952.47 1175.16   1
   2 -10   1 3219.46 1093.67   2
  -8  -2   0 449852. 12374.4   2
   8 -10   0 423315. 11804.4   1
   2 -10   0 412755. 11844.1   1
  -2  10   0 380623. 11516.9   1
  -2  -8   0 443552. 12494.8   1
  10  -8   0 389508. 11318.9   1
   2   8   0 385797. 11510.3   1
  10  -2   0 468610. 12706.5   1
  -8  -2   0 399475. 11900.3   1
 -10   2   0 489684. 12624.4   1
   8 -10   0 424061. 12583.0   2
   2 -10   0 406592. 11794.6   2
 -10   8   0 424660. 12146.6   1
  -2  -8   0 423669. 12185.8   2
  -8  10   0 408720. 11769.4   1
   8   2   0 340653. 11180.5   1
  -2  -8   1 739.084 665.629   2
 -10   8  -1 37.7697 407.534   1
 -10   2  -1-171.964 509.170   2
  -8  10   1-76.4340 372.894   1
  10  -2   1 115.019 443.202   1
   2 -10  -1 246.130 493.422   1
  10  -8   1 362.368 601.068   1
  -2  10   1 285.433 529.561   1
   8   2  -1 450.053 586.427   1
  -8  -2   1-270.232 287.596   1
   8 -10  -1-16.7219 292.636   1
   8 -10  -1-237.517 579.842   2
 -10   2  -1 67.0900 455.112   1
   2 -10  -1 273.345 596.934   2
  -8  10   2 42048.3 3689.51   1
 -10   2  -2 32271.4 3477.53   2
  10  -8   2 48585.6 3864.74   1
   2 -10  -2 37801.7 3512.26   1
  -2  10   2 44069.0 3749.45   1
   8 -10  -2 39244.1 3469.01   1
  10  -2   2 44410.0 3781.92   1
 -10   2  -2 30815.0 3150.53   1
   8 -10  -2 40431.6 3758.41   2
 -10   8  -2 44119.3 3749.42   1
   2 -10  -2 43229.6 3755.44   2
  -2  -8   2 38874.4 3543.55   2
 -10   8  -3 9601.01 1767.11   1
  10  -8   3 7469.22 1509.77   1
 -10   2  -3 6312.70 1494.73   2
  10  -2   3 6108.58 1445.46   1
  -8  10   3 6072.98 1417.82   1
   2 -10  -3 6686.04 1421.85   1
   8 -10  -3 7630.20 1586.25   1
  -2  10   3 7311.82 1463.21   1
 -10   2  -3 5289.32 1294.71   1
   8 -10  -3 6544.39 1560.10   2
   2 -10  -3 6814.63 1453.32   2
  -2  -8   3 9390.18 1773.32   2
  -8  10   4 462283. 12866.7   1
  10  -8   4 521585. 13662.8   1
   2 -10  -4 546073. 13961.2   1
  -2  10   4 578562. 14248.9   1
  10  -2   4 526189. 13532.7   1
 -10   2  -4 465389. 12859.2   1
   8 -10  -4 542350. 13807.2   1
   8 -10  -4 551803. 14733.3   2
 -10   8  -4 576389. 14511.9   1
  -2  -8   4 555598. 14220.0   2
   2 -10  -4 545893. 14118.8   2
 -10   8  -5 53.1415 423.874   1
  10  -2   5-580.919 455.853   1
  -8  10   5 174.305 379.800   1
   2 -10  -5 192.731 452.812   1
  10  -8   5 737.109 765.291   1
  -2  10   5-431.078 492.166   1
 -10   2  -5-618.207 660.625   1
   8 -10  -5 883.560 671.296   2
   8 -10  -5 164.593 683.112   1
  -2  -8   5-304.695 676.876   2
   2 -10  -5 443.911 544.243   2
 -10   8  -6 849.763 682.590   1
  10  -2   6 2153.74 959.220   1
   8 -10  -6 1073.89 741.739   1
  -8  10   6 1769.32 859.757   1
  10  -8   6 957.810 519.963   1
   2 -10  -6 2410.94 981.408   1
  -2  10   6 2348.75 1080.30   1
 -10   2  -6 1426.42 713.408   1
   8 -10  -6 2273.64 1060.78   2
  -2  -8   6 1260.31 747.718   2
   2 -10  -6 514.493 460.576   2
   8 -10  -7 17495.1 2360.21   1
  -8  10   7 15759.5 2215.23   1
  10  -2   7 18615.9 2544.35   1
   2 -10  -7 15525.1 2240.04   1
  -2  10   7 18108.8 2468.57   1
 -10   2  -7 18818.9 2499.48   1
 -10   8  -7 16200.4 2313.58   1
  10  -8   7 18002.0 2396.53   1
   2 -10  -7 17625.6 2490.47   2
  -8  10   8 363830. 11149.4   1
   8 -10  -8 331785. 11004.0   1
  10  -2   8 357813. 11126.4   1
   2 -10  -8 320473. 10679.5   1
  -2  10   8 318710. 10629.6   1
 -10   2  -8 339968. 10948.1   1
 -10   8  -8 326071. 10677.3   1
  10  -8   8 283283. 10076.7   1
   2 -10  -8 343954. 11119.8   2
   2 -10  -9 775.584 631.958   2
  -8  10   9 746.609 641.413   1
   2 -10  -9 203.528 423.419   1
  -2  10   9-153.115 367.401   1
   8 -10  -9 227.668 398.651   1
 -10   2  -9 411.786 380.605   1
  10  -8   9 135.443 406.832   1
  10  -2   9 332.691 513.201   1
 -10   8  -9 434.033 539.318   1
   2 -10 -10 300.772 509.137   2
 -10   2 -10 1161.58 656.579   1
  -8  10  10 1475.28 757.073   1
   2 -10 -10 2282.31 935.205   1
  -2  10  10 1036.51 678.466   1
  10  -8  10 1955.47 896.078   1
  10  -2  10 945.142 652.485   1
 -10   8 -10 1023.46 738.803   1
   8 -10 -10 1261.35 674.211   1
   2 -10 -11 634.724 824.800   2
 -10   2 -11 761.242 814.062   2
  -8  10  11 760.224 541.285   1
   2 -10 -11 1234.51 525.746   1
   8 -10 -11 647.977 678.723   1
  10  -8  11 680.338 494.376   1
  -2  10  11 396.598 676.945   1
 -10   2 -11 313.231 684.318   1
  10  -2  11 619.744 516.883   1
 -10   8 -11 701.476 751.888   1
   8 -10 -12 175300. 8190.12   1
 -10   8 -12 163530. 7941.14   1
   2 -10 -12 160742. 8024.13   2
   2 -10 -13 540.370 629.619   2
 -10   9  11 7148.76 1655.62   1
  10  -9 -11 5920.98 1489.59   1
  -9  -1 -10 268767. 9987.86   2
  -1  -9 -10 264002. 9927.20   1
   1   9  10 275884. 9944.00   1
  -9  -1 -10 278018. 10123.4   1
  -1  -9 -10 273485. 10171.3   2
   9   1  10 247813. 9425.48   1
  -9  -1  -9 42865.1 3940.22   2
  -1  -9  -9 40375.6 3871.82   1
   1   9   9 47039.7 4063.44   1
  -9  -1  -9 44547.5 3869.28   1
   1 -10   9 37738.5 3890.08   2
  -9  10  -9 38948.4 3862.83   1
  -1  -9  -9 45234.8 3996.36   2
   9 -10   9 35950.7 3625.32   1
   9   1   9 56462.0 4395.23   1
 -10   9   9 37219.3 3623.95   1
  10  -9  -9 37849.7 3665.00   1
  -1  -9  -8 1964.18 941.294   2
  -9  10  -8 3601.77 1257.39   1
  -9  -1  -8 3970.54 1209.37   2
 -10   9   8 3835.31 1188.47   1
  10  -9  -8 2808.45 950.650   1
  -1  -9  -8 3175.09 1123.35   1
   9   1   8 3307.37 1022.81   1
   9 -10   8 2406.79 1021.40   1
  -9  -1  -8 3057.12 1100.57   1
   1   9   8 3202.57 1120.78   1
   1 -10   8 1976.33 793.556   2
  -9  -1  -7 105192. 6130.38   2
   9 -10   7 117876. 6509.91   1
  -1  -9  -7 136731. 6965.21   1
   1   9   7 122622. 6489.19   1
  -9  -1  -7 115243. 6417.82   1
   1 -10   7 116285. 6562.53   2
  -9  10  -7 119098. 6721.50   1
  10  -9  -7 134055. 6734.94   1
  -1  -9  -7 123376. 6625.10   2
 -10   9   7 111332. 6313.58   1
   9   1   7 132124. 6798.38   1
   9   1   6 38269.3 3650.63   1
  -9  -1  -6 31974.6 3371.27   2
   9 -10   6 33209.4 3422.58   1
  -1  -9  -6 34480.9 3541.03   1
   1   9   6 30107.4 3252.54   1
  -9  -1  -6 46791.4 3902.66   1
   1 -10   6 37713.4 3665.10   2
  10  -9  -6 38413.7 3574.35   1
  -9  10  -6 31350.2 3398.73   1
  -1  -9  -6 32638.0 3505.73   2
 -10   9   6 36855.7 3468.18   1
  -1  -9  -5 13368.7 2109.81   2
   9   1   5 15369.9 2301.47   1
  -9  10  -5 14037.3 2164.10   1
  -9  -1  -5 13032.3 2034.17   2
  -1  -9  -5 14568.2 2206.77   1
   9 -10   5 13078.1 2143.56   1
   1   9   5 14243.1 2217.77   1
  -9  -1  -5 15969.1 2352.74   1
  10  -9  -5 14987.5 2261.39   1
   1 -10   5 15195.7 2322.75   2
 -10   9   5 18526.3 2441.43   1
   9   1   4 46474.6 3946.91   1
  -9  -1  -4 52448.4 4130.43   2
  -1  -9  -4 44875.2 3963.39   1
   1   9   4 50429.2 4182.87   1
   9 -10   4 55985.1 4371.08   1
  -9  -1  -4 60793.3 4520.29   1
  10  -9  -4 48119.2 4042.21   1
   1 -10   4 52026.1 4241.38   2
  -9  10  -4 51156.7 4293.71   1
  -1  -9  -4 52931.6 4271.91   2
 -10   9   4 56431.1 4300.38   1
  -9  -1  -3 45232.9 3913.72   2
   9   1   3 36415.3 3667.26   1
  -1  -9  -3 42446.5 3850.56   1
  10  -1  -3 33404.4 3416.77   1
   1   9   3 44091.5 3901.62   1
   9 -10   3 38973.9 3644.37   1
  -9  -1  -3 36882.2 3598.87   1
  10  -9  -3 46499.8 3876.80   1
   1 -10   3 37117.6 3524.15   2
  -1  -9  -3 41565.0 3850.77   2
  -9  10  -3 44757.4 3901.24   1
 -10   9   3 49870.6 4082.19   1
  -9  -1  -2 341642. 11111.9   2
   9   1   2 358331. 11342.2   1
  -1  -9  -2 366026. 11588.3   1
  10  -1  -2 436695. 12344.1   1
   1   9   2 369245. 11479.1   1
  -9  -1  -2 329740. 10984.2   1
  10  -9  -2 408189. 11736.8   1
   9 -10   2 390573. 11719.4   1
 -10   1   2 391458. 11876.7   1
   1 -10   2 331143. 10918.9   2
  -1  -9  -2 369412. 11537.0   2
 -10   9   2 399853. 11812.8   1
  -9  10  -2 376246. 11557.9   1
   9   1   1 150477. 7235.13   1
  -1  10  -1 156341. 7304.70   1
  -1  -9  -1 170055. 7807.55   1
  10  -1  -1 138940. 6950.02   1
   1   9   1 160688. 7399.87   1
  10  -9  -1 171835. 7609.55   1
  -9  -1  -1 147730. 7188.09   1
 -10   1   1 200584. 8297.69   1
   9 -10   1 175441. 7646.52   1
   9 -10   1 152258. 7572.57   2
   1 -10   1 168658. 7510.60   2
  -1  -9  -1 189527. 8009.05   2
 -10   9   1 179039. 7863.20   1
  -9  10  -1 174176. 7578.53   1
   9   1   0 48141.0 4023.63   1
   1 -10   0 46650.1 4009.55   1
  -1  10   0 45242.9 3928.73   1
  10  -1   0 42321.1 3714.55   1
   1   9   0 48788.7 3986.88   1
  10  -9   0 50802.9 4022.61   1
  -9  -1   0 48849.6 4092.11   1
 -10   1   0 52262.4 4243.88   1
   9 -10   0 46813.1 4174.90   2
   9 -10   0 43221.6 3743.72   1
   1 -10   0 48267.3 3994.85   2
  -1  -9   0 44629.0 3795.76   2
 -10   9   0 49439.6 4129.03   1
  -9  10   0 51534.8 4079.79   1
   9   1  -1 129288. 6670.29   1
   1 -10  -1 117462. 6349.70   1
  10  -1   1 107324. 6002.92   1
  -1  10   1 125345. 6570.87   1
  10  -9   1 122241. 6306.84   1
  -9  -1   1 110598. 6254.41   1
 -10   1  -1 94907.9 5745.01   1
   9 -10  -1 116101. 6507.73   2
   1 -10  -1 132796. 6700.53   2
  -1  -9   1 130389. 6696.26   2
 -10   9  -1 130303. 6694.02   1
   9 -10  -1 125904. 6370.98   1
  -9  10   1 133073. 6511.10   1
   9 -10  -2 369279. 11149.1   1
 -10   1  -2 355075. 11629.0   2
   1 -10  -2 321785. 10719.6   1
  10  -1   2 378385. 11565.5   1
  -1  10   2 340222. 11027.9   1
  10  -9   2 362253. 11016.8   1
 -10   1  -2 333613. 10900.2   1
   9 -10  -2 358095. 11683.6   2
  -1  -9   2 296763. 10357.5   2
   1 -10  -2 317003. 10596.2   2
 -10   9  -2 321683. 10875.1   1
  -9  10   2 343465. 10787.6   1
 -10   1  -3 86747.6 5711.85   2
   9 -10  -3 100260. 5522.55   1
  10  -1   3 104544. 6016.87   1
  10  -9   3 92892.5 5468.60   1
   1 -10  -3 87271.1 5445.94   1
  -1  10   3 100019. 5873.90   1
   9 -10  -3 95422.2 5948.07   2
  -1  -9   3 83541.7 5333.96   2
 -10   9  -3 93709.4 5711.03   1
   1 -10  -3 97170.3 5746.63   2
  -9  10   3 88141.4 5293.59   1
 -10   9  -4 98.1930 555.006   1
 -10   1  -4 879.856 599.116   2
  10  -9   4 978.626 578.938   1
  -9  10   4 909.735 527.868   1
   1 -10  -4 1462.93 786.458   1
  -1  10   4 532.584 649.860   1
   9 -10  -4 667.215 388.732   1
 -10   1  -4 929.513 709.331   1
   9 -10  -4 458.291 500.251   2
  10  -1   4 316.114 324.377   1
  -1  -9   4 797.176 626.886   2
   1 -10  -4 656.319 702.400   2
 -10   1  -5 17975.9 2608.07   2
  10  -9   5 21414.7 2686.99   1
  10  -1   5 22555.4 2743.46   1
   1 -10  -5 20924.1 2683.50   1
   9 -10  -5 27003.3 2848.65   1
  -1  10   5 24801.0 2908.56   1
 -10   1  -5 22938.0 2795.30   1
 -10   9  -5 23270.6 2870.70   1
  -1  -9   5 19214.0 2599.57   2
   1 -10  -5 26654.8 3006.92   2
  -9  10   5 23904.7 2907.84   1
  -9  10   6 68110.4 4777.75   1
  10  -9   6 64730.8 4689.87   1
 -10   1  -6 56240.7 4638.88   2
  10  -1   6 72848.9 4950.63   1
   1 -10  -6 66576.7 4751.62   1
  -1  10   6 66093.3 4726.37   1
   9 -10  -6 72841.9 4771.89   1
 -10   1  -6 60456.1 4546.18   1
 -10   9  -6 61692.5 4736.31   1
  -1  -9   6 66191.8 4892.74   2
   1 -10  -6 74684.5 5040.83   2
   1 -10  -7 10027.4 1803.76   2
 -10   9  -7 11093.0 2011.98   1
  10  -1   7 14341.2 2203.36   1
 -10   1  -7 8696.59 1783.34   2
   1 -10  -7 13039.4 2139.07   1
  -9  10   7 10281.5 1949.40   1
   9 -10  -7 14096.8 2077.32   1
  10  -9   7 11516.0 2037.70   1
  -1  10   7 12841.5 1996.94   1
 -10   1  -7 10486.6 1937.13   1
  -1  -9   7 11157.4 2045.90   2
  -9  10   8 68381.8 4883.05   1
 -10   1  -8 49106.0 4294.19   2
  10  -1   8 62376.5 4592.42   1
   1 -10  -8 59269.8 4487.51   1
  -1  10   8 53000.9 4268.49   1
   9 -10  -8 59130.6 4452.70   1
 -10   1  -8 58190.3 4600.10   1
 -10   9  -8 53541.5 4400.78   1
  10  -9   8 49579.1 4133.17   1
   1 -10  -8 57395.1 4505.57   2
  10  -1   9 134883. 6742.09   1
 -10   1  -9 124272. 7052.60   2
   1 -10  -9 124339. 6644.23   1
  -1  10   9 129232. 6721.08   1
   9 -10  -9 133365. 6928.25   1
 -10   1  -9 114945. 6375.81   1
 -10   9  -9 120645. 6657.62   1
  10  -9   9 113789. 6480.14   1
   1 -10  -9 135917. 7154.57   2
  -9  10  10 153966. 7531.21   1
  10  -1  10 151324. 7196.55   1
 -10   1 -10 130419. 7122.76   2
   1 -10 -10 145016. 7255.68   1
  -1  10  10 142995. 7122.87   1
 -10   1 -10 146005. 7263.27   1
   9 -10 -10 123333. 6676.21   1
  10  -9  10 112319. 6486.03   1
 -10   9 -10 131594. 7076.83   1
   1 -10 -10 145178. 7514.81   2
  -9  10  11 72937.9 5241.11   1
   9 -10 -11 96080.8 5838.52   1
 -10   9 -11 80716.2 5538.53   1
   1 -10 -11 88724.1 5856.20   2
  10   0   0 62046.0 4735.31   1
 -10   0   0 50705.6 4265.80   1
  10 -10   0 60054.0 4489.01   1
   0 -10   0 57327.8 4457.90   2
 -10  10   0 46483.1 4010.20   1
  10   0   1 159772. 7577.60   1
  10   0  -1 148618. 7363.40   1
   0 -10  -1 132933. 7034.84   1
   0  10   1 151856. 7503.73   1
  10 -10   1 173268. 7760.52   1
 -10   0  -1 122985. 6728.63   1
 -10   0   1 175102. 7985.08   1
  10 -10  -1 173266. 7554.74   1
   0 -10   1 150890. 7293.72   2
   0 -10  -1 163652. 7579.76   2
 -10  10  -1 155848. 7503.46   1
 -10  10   1 169071. 7606.01   1
  10   0   2 395002. 12021.2   1
   0 -10  -2 330791. 11197.6   1
   0  10   2 364143. 11637.8   1
  10 -10   2 397152. 11850.4   1
 -10   0  -2 304125. 10850.7   1
  10 -10  -2 398418. 11837.5   1
   0 -10   2 315892. 10839.2   2
   0 -10  -2 421998. 12384.2   2
 -10  10  -2 380638. 11944.3   1
 -10  10   2 394414. 11803.9   1
 -10   0  -3 41100.9 3809.82   2
  10   0   3 40481.8 3960.81   1
   0 -10  -3 47232.0 4042.11   1
  10 -10   3 41853.1 3781.62   1
   0  10   3 45049.6 3993.14   1
 -10   0  -3 35597.7 3529.26   1
  10 -10  -3 50644.7 4078.23   1
   0 -10   3 60417.5 4597.83   2
 -10  10  -3 49495.5 4147.34   1
   0 -10  -3 50606.9 4207.27   2
 -10  10   3 58231.2 4457.67   1
   0 -10  -4 10315.5 1783.59   2
 -10  10  -4 10069.0 1866.73   1
 -10   0  -4 6062.42 1535.59   2
  10 -10  -4 9186.43 1735.35   1
 -10  10   4 8141.54 1775.05   1
  10 -10   4 8097.52 1715.38   1
   0 -10  -4 6350.53 1573.50   1
   0  10   4 7602.55 1642.46   1
 -10   0  -4 7966.41 1608.20   1
  10   0   4 8860.46 1673.01   1
   0 -10   4 6825.14 1596.49   2
 -10   0  -5 16475.3 2429.83   2
  10   0   5 18551.6 2560.67   1
  10 -10   5 16987.5 2406.10   1
   0 -10  -5 17176.6 2507.07   1
   0  10   5 20313.2 2689.40   1
 -10   0  -5 15047.0 2242.24   1
   0 -10   5 15516.9 2362.54   2
 -10  10  -5 19428.4 2694.90   1
   0 -10  -5 16512.9 2486.47   2
  10 -10  -5 22187.6 2714.25   1
 -10  10   5 17842.7 2430.89   1
 -10   0  -6 21361.2 2715.41   2
  10   0   6 20531.9 2645.40   1
  10 -10   6 18882.1 2579.32   1
   0 -10  -6 25505.6 2954.32   1
   0  10   6 20741.8 2635.98   1
 -10   0  -6 18167.4 2574.64   1
   0 -10   6 18815.6 2582.46   2
 -10  10  -6 20360.8 2772.09   1
   0 -10  -6 23632.1 3011.63   2
 -10  10   6 18785.7 2528.33   1
  10 -10  -6 24406.3 2772.09   1
  10 -10   7 30726.2 3367.68   1
  10 -10  -7 34805.0 3470.23   1
  10   0   7 39077.9 3709.40   1
 -10   0  -7 31719.8 3466.52   2
   0 -10  -7 36822.9 3679.33   1
   0  10   7 35908.5 3489.10   1
 -10   0  -7 47054.6 4105.25   1
   0 -10   7 27956.8 3315.86   2
 -10  10  -7 37387.6 3702.58   1
   0 -10  -7 38553.8 3770.22   2
 -10  10   7 43951.0 3865.07   1
   0 -10  -8 5109.37 1459.68   2
 -10  10  -8 5981.51 1523.67   1
 -10   0  -8 5791.74 1510.61   2
 -10  10   8 9904.33 1806.81   1
  10 -10   8 5085.79 1445.25   1
   0 -10  -8 5462.17 1503.84   1
  10 -10  -8 6265.41 1489.36   1
  10   0   8 6215.97 1467.55   1
 -10   0  -8 6934.57 1633.97   1
   0  10   8 6992.84 1543.05   1
 -10   0  -9 49517.9 4317.89   2
  10 -10  -9 63612.9 4764.30   1
   0 -10  -9 62346.0 4778.12   1
   0  10   9 56236.9 4443.71   1
 -10  10  -9 45378.0 4231.21   1
  10 -10   9 43438.5 4059.48   1
   0 -10  -9 52789.5 4532.02   2
 -10  10   9 49607.1 4212.01   1
 -10  10 -10 5835.83 1606.84   1
   5 -11  11 25164.5 3145.02   2
  -5  -6 -10 213700. 8920.32   1
  -6  -5 -10 206197. 8811.66   1
   5   6  10 202234. 8531.98   1
   6   5  10 233518. 9041.45   1
   5 -11  10 179718. 8591.00   2
  -5  -6 -10 223219. 8985.66   2
  -6  -5 -10 239582. 9281.97   2
  -5  -6  -9 73296.8 5172.58   1
  -6  -5  -9 66914.6 5038.90   1
   5   6   9 84480.0 5326.36   1
   6   5   9 85423.2 5379.31   1
   6 -11   9 77959.1 5379.75   2
   5 -11   9 68081.6 5067.92   2
  -5  -6  -9 77798.8 5337.25   2
  -6  -5  -9 72085.9 5160.49   2
  11  -6  -8 1191.76 545.134   1
  -5  -6  -8 904.770 661.850   2
   5   6   8 1352.90 722.401   1
  -6  -5  -8 360.477 448.802   2
   6   5   8 1435.42 599.650   1
  -5  -6  -8 1664.03 758.498   1
  -6  -5  -8 1657.11 920.764   1
   6 -11   8 1656.76 878.238   2
   5 -11   8 1327.28 844.496   2
  11  -6  -7 52558.4 4270.16   1
  -5  -6  -7 45204.2 3976.95   1
  -6  -5  -7 42234.8 3922.54   1
   5   6   7 43209.9 3787.76   1
   6   5   7 46701.1 4026.39   1
   6 -11   7 40748.5 3786.14   2
   5 -11   7 37109.4 3781.62   2
 -11   6   7 34416.2 3601.94   1
  11  -5  -7 41220.5 3782.08   1
  -5  -6  -7 42704.3 3949.40   2
  -6  -5  -7 46220.7 4055.73   2
  11  -6  -6 105425. 6114.79   1
  -5  -6  -6 98530.5 5872.55   1
  -6  -5  -6 106386. 6185.56   1
   5   6   6 99635.9 5853.09   1
   6   5   6 103764. 6036.03   1
   6 -11   6 107172. 6274.13   2
   5 -11   6 96305.0 6016.31   2
 -11   5   6 101376. 6004.19   1
  11  -5  -6 93175.2 5767.03   1
  -5  -6  -6 82316.4 5468.67   2
  -6  -5  -6 87656.1 5606.55   2
  11  -6  -5 37515.3 3599.27   1
  -5  -6  -5 41711.8 3805.17   1
  -6  -5  -5 44528.7 4034.69   1
   5   6   5 45617.0 3929.02   1
   6   5   5 49419.3 4113.04   1
   6 -11   5 45531.2 4065.80   2
 -11   5   5 50094.7 4161.11   1
   5 -11   5 42770.8 3874.20   2
 -11   6   5 63072.2 4726.57   1
  11  -5  -5 33791.9 3455.14   1
  -5  -6  -5 49301.9 4186.88   2
  -6  11  -5 39382.1 3781.55   1
  -6  -5  -5 48070.7 4084.13   2
  -5  11  -4 29939.3 3159.13   1
  11  -6  -4 26721.8 2993.74   1
   6 -11   4 28061.5 3009.26   1
   6   5   4 30757.7 3203.95   1
  -5  -6  -4 29821.8 3212.39   1
  -6  -5  -4 26266.3 3116.20   1
   5   6   4 27744.3 3082.67   1
 -11   5   4 31467.9 3285.87   1
   6 -11   4 31485.8 3291.68   2
   5 -11   4 30114.6 3336.48   2
 -11   6   4 26476.9 3100.90   1
  11  -5  -4 33091.8 3345.87   1
  -5  -6  -4 33578.8 3526.58   2
  -6  -5  -4 30319.2 3183.27   2
  -6  11  -4 35110.0 3483.78   1
  11  -6  -3 141479. 6903.30   1
  -6  11  -3 159794. 7498.32   1
  -5  11  -3 155040. 7189.70   1
   6 -11   3 125673. 6570.60   1
  -5  -6  -3 145078. 7197.29   1
  -6  -5  -3 157038. 7500.42   1
   5   6   3 154378. 7206.93   1
   6   5   3 158738. 7362.34   1
   5 -11   3 146740. 7142.88   1
 -11   5   3 119791. 6425.14   1
   6 -11   3 160190. 7491.13   2
   5 -11   3 152435. 7393.07   2
 -11   6   3 128822. 6767.16   1
  11  -5  -3 128340. 6540.77   1
  -5  -6  -3 157453. 7524.48   2
  -6  -5  -3 132234. 6850.06   2
  -6  11  -2 352691. 11183.9   1
   5 -11   2 313395. 10625.7   1
  -5  11  -2 338368. 11027.2   1
  -5  -6  -2 347927. 11315.2   1
  -6  -5  -2 345396. 11313.8   1
   6 -11   2 323429. 10643.2   1
   5   6   2 325643. 10747.8   1
   6   5   2 345107. 11077.4   1
 -11   5   2 439151. 12174.7   1
   6 -11   2 367230. 11537.2   2
   5 -11   2 320431. 10812.6   2
 -11   6   2 299264. 10356.4   1
  11  -5  -2 363350. 11236.7   1
  -5  -6  -2 375343. 11702.9   2
  -6  -5  -2 322082. 10896.1   2
  11  -6  -2 308690. 10328.2   1
  -6  11  -1 60421.0 4413.91   1
  -5  11  -1 55798.1 4406.59   1
  -5  -6  -1 50053.1 4191.56   1
  -6  -5  -1 55470.6 4471.94   1
   5   6   1 61209.7 4400.02   1
   6   5   1 64099.5 4580.01   1
 -11   5   1 50491.4 4004.50   1
   6 -11   1 62020.3 4671.51   2
 -11   6   1 56262.5 4340.08   1
  11  -5  -1 46216.4 3927.61   1
   5 -11   1 65236.3 4682.40   2
   6 -11   1 54950.0 4295.44   1
  -5  -6  -1 62003.0 4592.10   2
  11  -6  -1 67208.2 4633.33   1
  -6  -5  -1 60842.4 4631.69   2
  -6  11   0 19943.3 2521.30   1
  -5  11   0 23767.6 2782.77   1
   6 -11   0 23261.6 2702.75   1
   5 -11   0 17309.5 2462.24   1
  11  -5   0 20871.8 2590.22   1
 -11   5   0 13483.4 2042.95   1
 -11   6   0 15301.3 2289.87   1
   6 -11   0 21594.2 2741.34   2
   5 -11   0 20036.1 2640.42   2
  11  -6   0 22628.2 2716.54   1
  -5  -6   0 21922.3 2657.39   2
  -6  -5   0 26327.8 2951.71   2
  -5  -6   1 7380.37 1541.00   2
  -6  -5   1 11672.9 1940.84   2
  11  -6   1 9894.78 1792.67   1
   5 -11  -1 7591.53 1545.57   1
  -6  11   1 8564.83 1775.19   1
  -5  11   1 10133.7 1810.13   1
  11  -5   1 8836.70 1660.98   1
   6 -11  -1 10093.5 1814.49   2
   5 -11  -1 8358.67 1701.79   2
 -11   5  -1 9131.61 1761.73   1
 -11   6  -1 8269.09 1658.70   1
  -6  11   2 285828. 9782.34   1
  -5  11   2 308253. 10274.5   1
   6 -11  -2 321879. 10615.0   1
   5 -11  -2 259539. 9555.72   1
  11  -5   2 240330. 9082.57   1
 -11   5  -2 267565. 9710.48   1
 -11   6  -2 248015. 9178.17   1
   6 -11  -2 296188. 10310.6   2
  11  -6   2 284041. 9718.53   1
   5 -11  -2 311029. 10447.4   2
  -5  -6   2 279655. 9963.13   2
  -6  11   3 80009.9 5140.76   1
  -5  11   3 84247.4 5300.73   1
   6 -11  -3 78421.1 5252.11   1
   5 -11  -3 80986.1 5294.41   1
  11  -5   3 79167.9 5024.67   1
 -11   5  -3 83551.6 5329.43   1
 -11   6  -3 64971.1 4593.32   1
  11  -6   3 80771.0 5065.42   1
   6 -11  -3 83019.3 5346.98   2
   5 -11  -3 78735.1 5242.96   2
  -6  11   4 18001.2 2441.44   1
  -5  11   4 14053.0 2177.87   1
   6 -11  -4 17804.9 2417.76   1
   5 -11  -4 17092.8 2384.94   1
  11  -5   4 14616.9 2232.79   1
 -11   5  -4 18265.7 2513.38   1
  11  -6   4 19370.4 2554.03   1
 -11   6  -4 18329.4 2539.03   1
   6 -11  -4 16336.1 2476.56   2
   5 -11  -4 15240.2 2284.89   2
  -6  11   5 86673.7 5380.37   1
   6 -11  -5 84670.2 5399.48   1
  -5  11   5 85482.7 5413.02   1
   5 -11  -5 82397.9 5323.97   1
  11  -5   5 83245.4 5262.13   1
  11  -6   5 92735.0 5529.11   1
 -11   5  -5 98533.2 5792.93   1
 -11   6  -5 70895.9 4917.27   1
   6 -11  -5 81406.9 5486.53   2
   5 -11  -5 83973.4 5390.26   2
  -6  11   6 93544.6 5669.76   1
   6 -11  -6 103581. 5991.10   1
  -5  11   6 92426.8 5713.39   1
   5 -11  -6 92194.0 5593.85   1
  11  -5   6 82385.1 5324.54   1
  11  -6   6 66089.5 4692.07   1
 -11   5  -6 96769.2 5720.92   1
 -11   6  -6 108250. 5941.52   1
   6 -11  -6 88050.6 5693.17   2
   5 -11  -6 87466.9 5486.72   2
  -6  11   7 29652.2 3189.88   1
   6 -11  -7 30759.9 3239.47   1
  -5  11   7 30673.8 3290.03   1
   5 -11  -7 30540.9 3195.45   1
  11  -5   7 33754.8 3386.79   1
  11  -6   7 29817.3 3160.92   1
 -11   5  -7 33112.4 3275.86   1
 -11   6  -7 34203.8 3412.11   1
   6 -11  -7 26435.7 3111.50   2
   5 -11  -7 30024.4 3273.91   2
  -6  11   8 25081.8 2876.16   1
   6 -11  -8 23064.9 2732.54   1
  -5  11   8 21891.3 2731.61   1
   5 -11  -8 22393.6 2631.12   1
  11  -5   8 21262.7 2641.40   1
  11  -6   8 23100.9 2862.95   1
 -11   5  -8 22696.7 2750.35   1
 -11   6  -8 26014.7 3026.48   1
   6 -11  -8 23728.3 2952.01   2
   5 -11  -8 21318.4 2748.10   2
  -6  11   9 69593.4 4918.08   1
   6 -11  -9 71285.3 5011.69   1
  -5  11   9 59914.4 4584.37   1
   5 -11  -9 70711.6 4883.59   1
  11  -5   9 68451.0 4738.18   1
  11  -6   9 77569.5 5131.99   1
 -11   5  -9 60044.3 4541.75   1
 -11   6  -9 63386.2 4639.16   1
   6 -11  -9 61675.2 4900.81   2
   5 -11  -9 54352.6 4557.42   2
  -6  11  10 262344. 9719.89   1
   6 -11 -10 230064. 9176.35   1
  -5  11  10 223759. 9015.07   1
   5 -11 -10 229680. 8942.84   1
  11  -6  10 234451. 9305.57   1
 -11   5 -10 251103. 9490.02   1
 -11   6 -10 256680. 9484.38   1
   5 -11 -10 216754. 9428.37   2
  11  -6  11 76373.6 5181.62   1
 -11   6 -11 73753.6 5101.61   1
   4 -11  11 636.721 555.579   2
  -7  -4 -10 11263.0 2070.19   2
  -7  -4 -10 14269.0 2316.70   1
  -4  -7 -10 11804.0 2019.61   1
   4   7  10 14781.1 2276.15   1
   7   4  10 13627.7 2154.04   1
   4 -11  10 8951.97 1948.63   2
  -4  -7 -10 14797.9 2326.83   2
  -7  -4  -9 17336.9 2456.92   2
  11  -7  -9 14989.5 2399.17   1
  -4  -7  -9 18581.0 2628.87   1
  -7  -4  -9 17486.3 2533.89   1
   4   7   9 14698.3 2289.06   1
   4 -11   9 15975.2 2396.00   2
   7   4   9 19701.9 2603.06   1
  -4  -7  -9 18390.0 2658.90   2
  -7  -4  -8 568521. 14867.9   2
  11  -7  -8 542672. 14601.4   1
  -4  -7  -8 575891. 14917.6   1
  -7  -4  -8 551775. 14684.8   1
   4   7   8 531669. 14028.4   1
   7 -11   8 507387. 14122.6   2
   4 -11   8 453877. 13762.4   2
   7   4   8 557583. 14472.8   1
 -11   7   8 535421. 14834.9   1
  -4  -7  -8 506550. 14371.8   2
   4   7   7 69.0405 426.189   1
  -4  -7  -7 509.336 427.376   2
 -11   7   7 443.382 656.408   1
  -7  -4  -7 564.826 510.320   2
   7   4   7 340.508 447.014   1
  11  -7  -7 580.899 530.190   1
  -4  -7  -7-222.586 387.761   1
  -7  -4  -7 811.712 620.765   1
   7 -11   7 454.011 347.000   2
   4 -11   7 412.726 510.100   2
   4   7   6 3477.11 1101.53   1
  -4  -7  -6 4993.58 1426.45   2
 -11   7   6 4001.87 1251.63   1
  -7  -4  -6 3474.83 1202.27   2
  -7  11  -6 4874.77 1415.14   1
   7   4   6 3971.32 1110.36   1
  11  -7  -6 3767.05 1046.58   1
  -4  -7  -6 4512.16 1305.25   1
  -7  -4  -6 4218.56 1210.94   1
   7 -11   6 4660.72 1189.87   2
   4 -11   6 3265.46 1123.59   2
  -7  -4  -5 31725.3 3347.89   2
  11  -7  -5 40522.6 3639.30   1
  -4  -7  -5 29944.7 3287.50   1
  -7  -4  -5 35184.9 3525.03   1
   4   7   5 34932.1 3509.92   1
 -11   4   5 38827.2 3710.16   1
  11  -4  -5 44692.4 3886.90   1
   7 -11   5 35962.5 3571.03   2
   7 -11   5 34529.6 3451.85   1
   4 -11   5 40275.3 3771.50   2
   7   4   5 35568.9 3545.02   1
 -11   7   5 33056.9 3426.59   1
  -7  11  -5 34873.3 3570.64   1
  -4  -7  -5 39192.6 3801.51   2
  11  -7  -4 218512. 8769.18   1
  -4  -7  -4 227587. 9175.60   1
  -7  -4  -4 240106. 9388.93   1
   4   7   4 248172. 9380.59   1
 -11   4   4 284584. 10225.0   1
   7 -11   4 279896. 10227.9   2
   4 -11   4 276123. 10054.1   2
   7   4   4 255058. 9631.13   1
 -11   7   4 256925. 9731.02   1
   7 -11   4 252548. 9521.92   1
  -4  -7  -4 257554. 9775.60   2
  -7  11  -4 268366. 9813.67   1
  -7  -4  -4 250078. 9568.51   2
   4   7   3 1547.91 643.261   1
  -4  -7  -3 502.722 577.268   2
 -11   7   3 1978.44 933.708   1
  -7  -4  -3 1420.23 894.938   2
  11  -7  -3 697.852 502.194   1
  -7  11  -3 1293.50 846.017   1
   7   4   3 1419.95 794.877   1
  -4  11  -3 1145.84 641.320   1
   7 -11   3 1350.37 735.697   1
  -4  -7  -3 479.787 662.896   1
  -7  -4  -3 1778.29 925.124   1
  11  -4  -3 1337.70 765.721   1
   7 -11   3 1162.94 717.614   2
   4 -11   3 638.185 667.724   2
 -11   4   3 1693.10 828.355   1
  -4  11  -2 37044.0 3539.22   1
  11  -7  -2 35906.2 3444.10   1
   4 -11   2 37997.2 3607.27   1
   7 -11   2 34908.6 3436.57   1
  -4  -7  -2 38912.3 3643.07   1
  -7  -4  -2 35022.5 3489.45   1
   4   7   2 39256.5 3699.87   1
  11  -4  -2 46374.6 3909.48   1
 -11   4   2 26375.1 2998.13   1
   7 -11   2 41437.7 3860.63   2
   4 -11   2 36654.6 3498.10   2
   7   4   2 41756.8 3791.82   1
 -11   7   2 50317.8 4091.26   1
  -4  -7  -2 38320.6 3555.39   2
  -7  -4  -2 35525.5 3520.50   2
  -7  11  -2 39200.1 3692.44   1
  -4  -7  -1 6294.83 1442.57   2
 -11   7   1 5573.82 1410.87   1
  -7  -4  -1 7144.42 1569.85   2
   7 -11   1 6571.14 1538.40   1
   4 -11   1 6124.87 1470.50   1
  -7  11  -1 6768.45 1603.27   1
   7   4   1 6563.61 1433.62   1
  -4  11  -1 7421.29 1634.19   1
  -7  -4  -1 6030.87 1523.59   1
  11  -4  -1 5438.77 1345.63   1
  11  -7  -1 6332.80 1458.08   1
   7 -11   1 5660.22 1452.93   2
   4 -11   1 4922.50 1318.87   2
 -11   4   1 5960.18 1319.77   1
   4   7   1 5425.70 1321.67   1
  11  -7   0 510708. 13557.2   1
  -7  11   0 488116. 13567.0   1
  -4  11   0 534649. 14066.8   1
   4 -11   0 528804. 14246.8   1
   7 -11   0 489857. 13328.3   1
  11  -4   0 590961. 14508.8   1
 -11   4   0 670273. 15357.9   1
   7 -11   0 511491. 14260.3   2
   7   4   0 546179. 14306.9   1
 -11   7   0 529722. 14130.8   1
   4 -11   0 501674. 13610.2   2
  -4  -7   0 635817. 15269.8   2
  -7  -4   0 597138. 15130.2   2
  -4  -7   1 1246.35 803.529   2
 -11   7  -1 2062.99 990.868   1
   4 -11  -1 1587.04 835.403   1
  -7  11   1 358.748 501.056   1
  -4  11   1 810.627 589.420   1
  11  -7   1 580.497 406.714   1
  11  -4   1 1344.84 721.954   1
   7 -11  -1 541.011 582.653   2
 -11   4  -1 1370.26 801.354   1
   4 -11  -1 642.885 574.591   2
   7 -11  -1 527.293 573.230   1
  -7  11   2 45623.7 3738.84   1
  -4  11   2 44257.8 3835.58   1
   4 -11  -2 40286.2 3755.02   1
  11  -4   2 45655.7 3820.60   1
 -11   4  -2 60374.8 4517.32   1
   7 -11  -2 38988.4 3900.04   2
 -11   7  -2 40762.3 3730.41   1
   4 -11  -2 42599.8 3817.25   2
  -4  -7   2 45133.8 4018.49   2
  11  -7   2 43791.6 3734.16   1
   7 -11  -2 46698.6 3922.67   1
 -11   7  -3 10364.3 1838.45   1
  -4  -7   3 6853.64 1579.28   2
  11  -7   3 8960.91 1683.46   1
   4 -11  -3 6411.37 1513.19   1
  -7  11   3 6577.84 1487.95   1
  -4  11   3 7553.46 1623.07   1
  11  -4   3 8196.28 1670.34   1
   7 -11  -3 8431.88 1708.19   1
   7 -11  -3 6673.19 1572.82   2
 -11   4  -3 9626.32 1783.29   1
   4 -11  -3 8062.18 1662.86   2
  -7  11   4 252132. 9359.37   1
  -4  11   4 274602. 9778.57   1
   4 -11  -4 258640. 9446.07   1
  11  -4   4 241959. 9155.43   1
 -11   4  -4 245867. 9075.61   1
 -11   7  -4 269280. 9581.38   1
   7 -11  -4 235629. 9464.36   2
  11  -7   4 265595. 9443.79   1
   4 -11  -4 266123. 9708.80   2
  11  -7   5-176.019 500.877   1
   7 -11  -5-344.640 351.029   1
   4 -11  -5-330.672 624.406   1
  11  -4   5-153.346 434.621   1
  -7  11   5 210.354 620.917   1
  -4  11   5-37.0241 343.497   1
 -11   4  -5 296.699 530.560   1
   7 -11  -5 223.195 456.964   2
   4 -11  -5-250.120 603.025   2
 -11   7  -5 442.487 314.758   1
   7 -11  -6 6398.31 1580.46   1
  11  -4   6 5640.11 1340.68   1
   4 -11  -6 6398.21 1410.99   1
  -7  11   6 4823.83 1242.49   1
  -4  11   6 6207.18 1499.99   1
 -11   4  -6 6062.87 1435.01   1
  11  -7   6 9147.95 1740.94   1
   7 -11  -6 5859.86 1480.46   2
   4 -11  -6 6332.30 1484.89   2
 -11   7  -6 5503.49 1427.99   1
  -7  11   7 23150.8 2729.86   1
   7 -11  -7 24504.5 2955.15   1
   4 -11  -7 21779.8 2722.84   1
  -4  11   7 25348.2 2922.68   1
  11  -4   7 28907.7 3074.65   1
 -11   4  -7 23220.5 2765.43   1
  11  -7   7 23426.6 2841.08   1
 -11   7  -7 28423.3 3043.34   1
   7 -11  -7 23325.3 2903.84   2
   4 -11  -7 21160.6 2727.26   2
  -7  11   8 551403. 14212.0   1
   7 -11  -8 572882. 14736.5   1
   4 -11  -8 552239. 14204.3   1
  -4  11   8 592207. 14959.0   1
  11  -4   8 596643. 14647.5   1
  11  -7   8 507903. 13876.4   1
 -11   4  -8 501052. 13782.0   1
 -11   7  -8 551912. 14495.8   1
   4 -11  -8 497896. 14078.1   2
  11  -4   9 371.629 473.422   1
   7 -11  -9-10.9250 261.680   1
   4 -11  -9-115.226 466.052   1
  -7  11   9 324.477 449.426   1
  11  -7   9-129.995 326.894   1
  -4  11   9-428.322 652.655   1
 -11   4  -9 546.208 478.201   1
 -11   7  -9-80.7532 460.736   1
   4 -11  -9 350.012 564.770   2
  -7  11  10 31334.0 3311.07   1
   7 -11 -10 36412.7 3562.48   1
   4 -11 -10 42531.0 3717.36   1
  -4  11  10 40089.0 3612.47   1
  11  -4  10 35614.1 3550.92   1
  11  -7  10 40351.4 3854.21   1
 -11   4 -10 33243.5 3488.88   1
 -11   7 -10 30574.8 3305.26   1
   4 -11 -10 25791.8 3157.36   2
  11  -7  11 6777.57 1579.39   1
 -11   7 -11 5351.61 1373.58   1
   4 -11 -11 5137.26 1486.68   2
  11  -8 -10 59332.8 4824.39   1
   3 -11  10 48526.8 4469.16   2
  -8  -3  -9 152264. 7479.03   2
  -3  -8  -9 134356. 7084.33   1
  -8  -3  -9 120166. 6696.07   1
  11  -8  -9 132773. 7046.22   1
   3   8   9 131941. 6843.61   1
   8   3   9 138415. 7039.20   1
 -11   8   9 141863. 7465.60   1
  -3  -8  -9 143030. 7358.87   2
  -3  -8  -8 159.441 424.070   2
  -8  -3  -8-428.238 438.560   2
 -11   8   8 225.136 336.315   1
   8   3   8 628.953 455.265   1
  -3  -8  -8 472.990 548.697   1
  -8  -3  -8 822.931 582.292   1
  11  -8  -8 518.946 421.807   1
   3 -11   8 684.900 668.201   2
   3   8   8 698.190 681.574   1
  -8  -3  -7 120025. 6776.04   2
  -3  -8  -7 140373. 7314.63   1
  11  -8  -7 144472. 7187.46   1
  -8  -3  -7 155885. 7519.53   1
   3   8   7 137287. 6928.83   1
   3 -11   7 138508. 7224.38   2
   8   3   7 143890. 7222.04   1
  -8  11  -7 130629. 7227.34   1
 -11   8   7 103825. 6282.49   1
  -3  -8  -7 152761. 7347.43   2
  -8  -3  -6 325141. 11091.1   2
  -3  -8  -6 313118. 10975.6   1
  11  -8  -6 370044. 11689.0   1
   8 -11   6 275728. 10270.8   1
  -8  -3  -6 362673. 11645.7   1
   3   8   6 326117. 10964.9   1
   8 -11   6 291545. 10481.3   2
   3 -11   6 309323. 10800.1   2
   8   3   6 351881. 11384.4   1
 -11   8   6 303973. 10921.2   1
  -8  11  -6 302532. 10880.2   1
  -3  -8  -6 374113. 11620.4   2
  -8  -3  -5 44627.0 4050.86   2
  -3  -8  -5 38667.5 3831.16   1
  11  -8  -5 39540.5 3746.93   1
  -8  -3  -5 41543.2 3842.82   1
   3   8   5 45228.4 3976.13   1
   8 -11   5 35370.3 3555.78   1
   8 -11   5 41438.7 3909.96   2
   3 -11   5 39036.1 3755.07   2
   8   3   5 43377.5 3998.34   1
 -11   8   5 34128.6 3440.30   1
  -8  11  -5 40138.1 3821.24   1
  -3  -8  -5 46213.3 4054.81   2
  -8  -3  -4 143667. 7279.60   2
  -3  -8  -4 136203. 7130.89   1
  11  -8  -4 144784. 7000.83   1
  -8  -3  -4 188407. 8289.62   1
   3   8   4 156779. 7413.84   1
  11  -3  -4 156997. 7556.24   1
 -11   3   4 152639. 7530.12   1
   8 -11   4 146770. 7232.38   1
   8 -11   4 150059. 7474.83   2
   3 -11   4 133589. 7064.70   2
 -11   8   4 154004. 7536.98   1
   8   3   4 173180. 7869.85   1
  -3  -8  -4 172217. 7853.75   2
  -8  11  -4 148744. 7302.25   1
  -8  -3  -3 13678.0 2239.17   2
  -3  -8  -3 12209.0 2054.59   2
  -8  11  -3 12309.5 2026.28   1
  11  -8  -3 12968.5 2107.58   1
  -3  -8  -3 11861.3 2061.77   1
   8   3   3 10375.0 2012.15   1
   3   8   3 12382.8 2070.98   1
  11  -3  -3 10474.0 1948.53   1
  -8  -3  -3 10730.4 1970.56   1
   3 -11   3 14446.5 2285.45   2
   8 -11   3 10924.1 1951.45   1
   8 -11   3 13195.4 2125.31   2
 -11   8   3 15320.5 2303.48   1
 -11   3   3 9783.72 1861.44   1
  -8  -3  -2 169179. 7925.49   2
  11  -8  -2 189636. 7915.84   1
  -3  -8  -2 150969. 7562.56   1
  -8  -3  -2 168367. 7842.05   1
   3   8   2 158442. 7541.45   1
  11  -3  -2 165251. 7745.34   1
 -11   3   2 132799. 6963.30   1
   8 -11   2 175842. 8072.05   2
   3 -11   2 176203. 7859.14   2
 -11   8   2 165419. 7842.79   1
   8   3   2 171814. 7803.76   1
  -3  -8  -2 180110. 7896.98   2
   8 -11   2 166808. 7523.09   1
  -8  11  -2 159053. 7499.07   1
  -3  -8  -1 6455.26 1491.49   2
 -11   8   1 7627.41 1463.63   1
  -8  -3  -1 5502.24 1422.09   2
  -8  11  -1 6740.10 1552.82   1
   3 -11   1 6217.60 1438.91   1
  11  -8  -1 7050.58 1457.85   1
   8   3   1 6956.26 1632.60   1
  -3  11  -1 8748.89 1706.16   1
  11  -3  -1 10013.2 1934.80   1
   8 -11   1 7773.44 1617.31   1
  -8  -3  -1 8260.33 1690.71   1
   8 -11   1 8163.99 1789.90   2
   3   8   1 9061.94 1761.97   1
 -11   3   1 3310.50 1152.75   1
   3 -11   1 7445.44 1473.25   2
  -3  -8   0 6366.97 1532.18   2
 -11   8   0 6215.78 1477.81   1
  11  -8   0 5200.06 1357.70   1
  -8  11   0 6597.74 1597.50   1
   3 -11   0 5916.19 1446.45   1
  11  -3   0 7599.87 1647.06   1
   8   3   0 6155.44 1512.71   1
  -3  11   0 6504.32 1511.65   1
   8 -11   0 5451.27 1361.85   1
   8 -11   0 6400.00 1576.73   2
 -11   3   0 7108.45 1548.28   1
   3 -11   0 7006.12 1648.99   2
  -8  11   1 42832.8 3800.95   1
  11  -8   1 40119.9 3638.10   1
  -3  11   1 37555.9 3689.00   1
   3 -11  -1 33909.9 3395.87   1
   8 -11  -1 40019.7 3630.55   1
  11  -3   1 35098.0 3498.21   1
 -11   3  -1 38396.3 3518.17   1
   8 -11  -1 35491.4 3622.63   2
 -11   8  -1 38678.4 3687.13   1
   3 -11  -1 34773.3 3466.51   2
  -3  -8   1 34262.7 3423.24   2
  -8  11   2 138625. 6871.29   1
  11  -8   2 138598. 6666.91   1
   3 -11  -2 131147. 6620.73   1
  -3  11   2 123906. 6610.86   1
   8 -11  -2 125449. 6537.71   1
  11  -3   2 131837. 6786.90   1
 -11   3  -2 149489. 6936.98   1
   8 -11  -2 121248. 6728.20   2
 -11   8  -2 121999. 6495.71   1
   3 -11  -2 141155. 6976.66   2
  -3  -8   2 127573. 6742.07   2
  -8  11   3 160871. 7307.01   1
   3 -11  -3 136239. 6889.96   1
  -3  11   3 157975. 7421.17   1
  11  -3   3 166318. 7602.21   1
   8 -11  -3 157386. 7288.93   1
 -11   3  -3 144848. 6949.11   1
   8 -11  -3 150336. 7464.34   2
 -11   8  -3 144261. 6991.43   1
   3 -11  -3 135589. 6931.96   2
  -3  -8   3 154766. 7511.49   2
  11  -8   3 168293. 7396.48   1
 -11   8  -4 3675.51 949.927   1
  11  -3   4 4651.61 1270.70   1
  -8  11   4 3611.83 1126.38   1
   3 -11  -4 3569.09 1074.00   1
  11  -8   4 3413.44 1175.59   1
  -3  11   4 4033.76 1161.37   1
   8 -11  -4 4476.71 1284.91   1
 -11   3  -4 3053.29 1044.91   1
   8 -11  -4 3823.01 1177.56   2
   3 -11  -4 3709.48 1116.38   2
  -3  -8   4 3933.04 1186.35   2
  -8  11   5 189645. 7982.80   1
   3 -11  -5 177976. 7901.82   1
  -3  11   5 186887. 8086.09   1
  11  -3   5 190393. 8018.03   1
 -11   3  -5 198248. 8279.40   1
 -11   8  -5 178925. 7960.02   1
   8 -11  -5 159960. 7868.10   2
   3 -11  -5 173344. 7877.75   2
  11  -8   5 217031. 8570.49   1
   8 -11  -5 190764. 8060.83   1
  -8  11   6 290316. 9903.61   1
   3 -11  -6 236787. 9352.79   1
  -3  11   6 276654. 9981.24   1
  11  -3   6 287199. 10014.2   1
 -11   3  -6 342477. 10898.2   1
 -11   8  -6 273749. 9819.71   1
   8 -11  -6 269609. 10448.4   2
  11  -8   6 261957. 9545.16   1
   3 -11  -6 301397. 10474.0   2
   8 -11  -6 300783. 10144.0   1
  -8  11   7 84602.4 5360.39   1
   8 -11  -7 88058.6 5515.77   1
   3 -11  -7 100867. 5914.27   1
  -3  11   7 81558.1 5363.87   1
  11  -3   7 76376.0 5037.30   1
 -11   3  -7 94650.2 5679.98   1
 -11   8  -7 95042.0 5676.27   1
  11  -8   7 98983.6 5837.06   1
   3 -11  -7 89498.6 5728.47   2
  -8  11   8 115955. 6439.89   1
   8 -11  -8 127277. 6663.72   1
   3 -11  -8 106791. 6146.65   1
  11  -3   8 94187.8 5789.47   1
  -3  11   8 109305. 6307.65   1
 -11   3  -8 105971. 6104.09   1
  11  -8   8 124133. 6555.34   1
 -11   8  -8 119256. 6571.10   1
   3 -11  -8 106321. 6324.78   2
   8 -11  -9 17485.9 2461.70   1
  -8  11   9 17423.9 2568.46   1
  11  -3   9 20201.0 2658.28   1
   3 -11  -9 17585.0 2468.10   1
  -3  11   9 15361.2 2304.06   1
 -11   3  -9 17531.5 2462.45   1
  11  -8   9 13580.0 2209.74   1
 -11   8  -9 16570.4 2418.77   1
   3 -11  -9 16211.7 2467.76   2
  11  -8  10 153484. 7570.67   1
 -11   8 -10 164185. 7862.27   1
   3 -11 -10 151680. 7705.80   2
  11  -9 -10 47501.1 4255.78   1
   2 -11   9 23864.8 3123.95   2
 -11   9   9 20082.8 2797.67   1
  -2  -9  -8 492.573 461.159   2
  -9  11  -8 1787.14 940.819   1
  -9  -2  -8 1544.61 751.614   2
 -11   9   8 1357.36 683.938   1
  -2  -9  -8 2288.55 1030.15   1
   9   2   8 1604.65 946.199   1
  -9  -2  -8 1724.03 1022.81   1
  11  -9  -8 941.999 493.217   1
   2   9   8 355.407 439.639   1
   2 -11   8 772.729 602.158   2
  -9  -2  -7 24845.1 3063.47   2
   9 -11   7 20382.0 2804.93   1
  -2  -9  -7 20353.2 2798.97   1
   2   9   7 20132.3 2675.30   1
  -9  -2  -7 20002.5 2723.28   1
  11  -9  -7 25837.0 3054.96   1
   2 -11   7 19355.1 2759.67   2
  -9  11  -7 17453.5 2607.14   1
 -11   9   7 21484.6 2854.48   1
  -2  -9  -7 25297.5 3068.64   2
   9   2   7 23546.1 2866.53   1
  -9  -2  -6 201999. 8851.08   2
   9 -11   6 215659. 8974.59   1
  -2  -9  -6 228498. 9314.03   1
   2   9   6 239117. 9288.62   1
  -9  -2  -6 227460. 9295.00   1
  11  -9  -6 249762. 9455.64   1
   2 -11   6 257025. 9911.51   2
  -9  11  -6 213959. 9340.83   1
 -11   9   6 168130. 8100.52   1
  -2  -9  -6 247727. 9562.67   2
   9   2   6 240698. 9347.93   1
  -9  -2  -5 214199. 8975.74   2
  -2  -9  -5 182930. 8362.01   1
   9 -11   5 156757. 7662.45   1
   2   9   5 178490. 8092.26   1
  -9  -2  -5 169064. 7979.32   1
  11  -9  -5 145234. 7309.87   1
   2 -11   5 166995. 7996.65   2
  -9  11  -5 184797. 8442.78   1
 -11   9   5 186781. 8248.25   1
  -2  -9  -5 164097. 7734.15   2
   9   2   5 167143. 7854.86   1
  -9  -2  -4 64196.0 4884.75   2
  -2  -9  -4 59115.4 4774.81   1
   2   9   4 67805.7 5019.76   1
  11  -9  -4 85226.5 5304.69   1
  -9  -2  -4 54937.4 4423.63   1
   9 -11   4 73104.7 5099.51   1
   2 -11   4 79898.1 5306.59   2
 -11   9   4 73012.2 5123.35   1
  -2  -9  -4 71695.7 5009.11   2
  -9  11  -4 73794.3 5292.08   1
   9   2   4 72701.4 5172.97   1
  -9  -2  -3 38374.5 3853.56   2
  -2  -9  -3 35525.1 3665.39   1
  11  -2  -3 39750.8 3829.67   1
   2   9   3 40700.3 3838.28   1
  11  -9  -3 39680.7 3706.21   1
  -9  -2  -3 37678.5 3755.83   1
   9 -11   3 48975.5 4123.22   1
   9 -11   3 44720.4 4095.81   2
   2 -11   3 43460.0 3931.93   2
 -11   9   3 45955.6 4085.70   1
  -2  -9  -3 41854.5 3868.85   2
  -9  11  -3 44659.6 3899.93   1
   9   2   3 39266.1 3821.15   1
  -9  -2  -2 200092. 8700.96   2
  -2  -9  -2 244288. 9771.61   1
  11  -9  -2 261367. 9519.89   1
  11  -2  -2 223964. 9142.78   1
   2   9   2 216243. 9012.83   1
  -9  -2  -2 218138. 9117.49   1
 -11   2   2 336327. 11136.8   1
   9 -11   2 285061. 10069.0   1
   9 -11   2 239083. 9705.68   2
   2 -11   2 285704. 10070.0   2
 -11   9   2 254231. 9630.04   1
  -2  -9  -2 270203. 9973.23   2
  -9  11  -2 248249. 9541.80   1
   9   2   2 234830. 9456.21   1
  -2  -9  -1 1704.16 769.260   2
   9 -11   1 1380.92 811.040   1
 -11   9   1 818.337 585.838   1
  -9  11  -1 2091.04 738.609   1
  11  -2  -1 631.553 435.944   1
  11  -9  -1 1125.85 820.296   1
   9   2   1 1340.91 839.402   1
  -9  -2  -1 585.143 608.871   1
   9 -11   1 1089.96 793.617   2
 -11   2   1 955.145 665.942   1
   2 -11   1 726.104 577.169   2
  -2  -9   0 8332.72 1750.76   2
 -11   9   0 7817.15 1546.54   1
  11  -2   0 7633.66 1646.66   1
  -9  11   0 6966.26 1592.32   1
   9 -11   0 7112.52 1567.01   1
   2 -11   0 5844.43 1540.17   1
  11  -9   0 8667.81 1704.82   1
  -2  11   0 6345.09 1485.55   1
   9   2   0 7133.90 1563.93   1
   9 -11   0 6496.94 1612.53   2
 -11   2   0 6107.03 1523.74   1
   2 -11   0 6705.92 1495.03   2
   9 -11  -1 87434.6 5415.65   1
  11  -9   1 85274.2 5316.78   1
   2 -11  -1 80682.5 5383.38   1
  -2  11   1 76927.0 5348.69   1
  11  -2   1 57525.0 4507.63   1
 -11   2  -1 76627.3 5263.07   1
   9 -11  -1 61720.4 5026.00   2
   2 -11  -1 85168.4 5370.79   2
 -11   9  -1 89500.0 5626.21   1
  -2  -9   1 87227.1 5573.50   2
  -9  11   1 81702.0 5264.07   1
   9 -11  -2 94546.7 5529.09   1
  11  -9   2 107114. 5980.01   1
   2 -11  -2 74948.4 5180.63   1
  -2  11   2 86824.4 5549.00   1
  11  -2   2 104538. 6021.63   1
 -11   2  -2 92789.3 5717.12   1
   9 -11  -2 84376.0 5747.76   2
 -11   9  -2 90692.6 5687.68   1
   2 -11  -2 105361. 6027.57   2
  -2  -9   2 89744.5 5670.41   2
  -9  11   2 97553.8 5679.50   1
  11  -9   3 160522. 7434.90   1
   9 -11  -3 159239. 7323.69   1
   2 -11  -3 121913. 6686.07   1
  -2  11   3 144228. 7252.18   1
  11  -2   3 130220. 6777.17   1
 -11   2  -3 152537. 7346.75   1
   9 -11  -3 123392. 7306.14   2
 -11   9  -3 163060. 7646.74   1
   2 -11  -3 152313. 7418.05   2
  -2  -9   3 135139. 7121.40   2
  -9  11   3 171049. 7643.23   1
  11  -9   4 18698.4 2445.24   1
 -11   2  -4 7385.49 1527.00   2
   2 -11  -4 15462.4 2407.95   1
  11  -2   4 15829.9 2348.52   1
  -2  11   4 17446.9 2424.16   1
   9 -11  -4 15439.0 2309.95   1
 -11   2  -4 13592.9 2128.59   1
   9 -11  -4 12590.4 2302.44   2
 -11   9  -4 16357.2 2403.76   1
   2 -11  -4 15520.9 2388.86   2
  -2  -9   4 9821.38 1831.97   2
  -9  11   4 13921.6 2182.47   1
  -9  11   5 111157. 6192.73   1
   2 -11  -5 91307.5 5769.19   1
  11  -2   5 108733. 6274.75   1
  -2  11   5 95238.4 5948.87   1
   9 -11  -5 107673. 5937.91   1
 -11   2  -5 107292. 6135.34   1
 -11   9  -5 105423. 6154.97   1
  -2  -9   5 100341. 6240.68   2
   2 -11  -5 89233.1 5790.79   2
  11  -9   5 111211. 6113.94   1
  -9  11   6 248950. 9387.57   1
  11  -2   6 252150. 9541.22   1
   2 -11  -6 228738. 9187.55   1
  -2  11   6 239407. 9279.52   1
   9 -11  -6 234912. 8952.28   1
 -11   2  -6 254561. 9597.44   1
 -11   9  -6 245443. 9455.93   1
   2 -11  -6 246754. 9480.02   2
  11  -9   6 249620. 9439.74   1
  -9  11   7 31132.7 3254.01   1
 -11   2  -7 19372.6 2877.74   2
  11  -2   7 29298.5 3227.81   1
   2 -11  -7 31838.8 3403.23   1
  -2  11   7 32478.8 3376.35   1
   9 -11  -7 33721.5 3359.41   1
 -11   2  -7 38658.9 3610.19   1
 -11   9  -7 31576.8 3300.68   1
  11  -9   7 37014.2 3580.59   1
   2 -11  -7 32644.6 3468.74   2
 -11   2  -8 6924.42 1681.39   2
  -9  11   8 8615.45 1750.81   1
   2 -11  -8 11917.1 2039.13   1
  -2  11   8 8726.29 1839.40   1
   9 -11  -8 10600.6 1909.27   1
 -11   2  -8 10434.6 1955.75   1
  11  -2   8 10154.9 1852.61   1
  11  -9   8 9864.97 1906.24   1
 -11   9  -8 7881.69 1680.25   1
   2 -11  -8 11074.8 1973.36   2
  11  -9   9 4356.94 1308.48   1
 -11   9  -9 4896.31 1316.47   1
 -10  11  -8 123017. 7028.54   1
 -10  11  -7 5388.88 1468.83   1
 -10  -1  -7 5259.38 1377.63   2
  -1 -10  -7 4955.92 1433.14   1
   1  10   7 5868.21 1454.35   1
  10 -11   7 4501.05 1365.56   1
   1 -11   7 3740.04 1179.97   2
 -10  11  -6 8501.38 1781.92   1
  10 -11   6 7410.44 1736.95   1
 -10  -1  -6 6532.69 1480.15   2
 -11  10   6 8827.95 1847.64   1
  -1 -10  -6 10256.8 2023.06   1
  10   1   6 9137.70 1834.90   1
 -10  -1  -6 9389.15 1939.64   1
   1  10   6 8627.90 1782.22   1
  11 -10  -6 9266.12 1856.38   1
   1 -11   6 9272.01 1891.83   2
  -1 -10  -5 7983.61 1712.09   2
 -10  11  -5 6101.70 1524.23   1
 -10  -1  -5 4775.24 1357.84   2
 -11  10   5 5436.82 1429.94   1
  10 -11   5 6698.40 1574.42   1
  -1 -10  -5 5472.66 1462.77   1
  10   1   5 5635.54 1501.73   1
 -10  -1  -5 6044.53 1527.97   1
   1  10   5 6389.62 1527.86   1
  11 -10  -5 8040.51 1691.63   1
   1 -11   5 3271.09 1159.30   2
  10   1   4 245679. 9841.28   1
 -10  -1  -4 248192. 9993.14   2
  -1 -10  -4 238401. 9863.94   1
  10 -11   4 269999. 10005.4   1
   1  10   4 273496. 10269.0   1
 -10  -1  -4 251626. 9913.79   1
  11 -10  -4 345503. 11001.1   1
   1 -11   4 292182. 10620.7   2
 -10  11  -4 292033. 10653.7   1
  -1 -10  -4 273326. 10160.7   2
 -11  10   4 292075. 10412.9   1
  -1 -10  -3-134.853 450.613   2
 -10  11  -3-59.9975 580.651   1
 -11  10   3 207.513 389.680   1
  -1 -10  -3 690.849 614.066   1
  10 -11   3 365.301 595.339   1
  10   1   3-398.508 539.853   1
 -10  -1  -3 97.5822 475.002   1
   1  10   3-346.905 512.402   1
  11 -10  -3-35.0670 399.778   1
   1 -11   3 811.302 648.876   2
 -11  10   2 1860.15 861.572   1
 -10  11  -2 2391.02 947.122   1
  10   1   2 1453.97 790.794   1
  11 -10  -2 2281.33 941.653   1
  10 -11   2 2110.94 841.893   1
   1  10   2 2224.98 984.738   1
 -10  -1  -2 1194.95 741.328   1
   1 -11   2 1404.27 755.828   2
  -1 -10  -2 2377.48 1098.45   2
 -11  10   1 2437.02 976.861   1
 -10  11  -1 2338.56 973.251   1
  11 -10  -1 1731.26 747.164   1
  10   1   1 1558.28 907.875   1
 -10  -1  -1 1393.13 841.958   1
  10 -11   1 1959.54 855.291   1
 -11   1   1 1377.68 787.018   1
   1 -11   1 1197.92 583.839   2
  11  -1  -1 793.693 672.343   1
  -1 -10  -1 1449.84 732.308   2
  10   1   0 429735. 13164.0   1
  11  -1   0 406234. 12769.9   1
  11 -10   0 485674. 13185.4   1
 -11   1   0 375664. 12528.4   1
  10 -11   0 485266. 13372.4   1
   1 -11   0 493786. 13627.3   2
  -1 -10   0 478648. 13580.6   2
 -11  10   0 447248. 13052.0   1
 -10  11   0 452219. 13039.4   1
 -11  10  -1 2851.82 1023.80   1
 -10  11   1 3077.27 973.920   1
  11 -10   1 3330.52 1119.46   1
  -1  11   1 2036.73 936.296   1
 -11   1  -1 2276.28 945.177   1
  11  -1   1 2851.79 1066.35   1
  10 -11  -1 3297.44 1019.96   1
   1 -11  -1 2160.12 884.111   2
  -1 -10   1 2843.28 1001.75   2
  10 -11  -2 87.7456 432.824   1
 -11  10  -2 43.7629 371.507   1
 -10  11   2 1010.40 833.492   1
  11 -10   2-181.839 484.117   1
   1 -11  -2 938.800 798.121   1
  -1  11   2 440.043 398.183   1
 -11   1  -2 577.424 575.929   1
  11  -1   2 18.7527 495.312   1
  -1 -10   2 1329.55 742.201   2
   1 -11  -2-432.007 567.664   2
 -11  10  -3 7817.35 1722.62   1
 -10  11   3 7419.66 1571.58   1
  10 -11  -3 7679.47 1570.33   1
  11 -10   3 7909.19 1628.53   1
   1 -11  -3 4273.43 1312.13   1
  -1  11   3 6698.10 1594.25   1
 -11   1  -3 5287.89 1458.12   1
  11  -1   3 6497.76 1530.41   1
  -1 -10   3 6294.18 1612.14   2
   1 -11  -3 9256.54 1786.18   2
 -11   1  -4 119764. 7008.08   2
  11 -10   4 177313. 7986.22   1
  11  -1   4 215368. 8866.50   1
   1 -11  -4 157161. 7699.40   1
  -1  11   4 186374. 8378.84   1
 -11   1  -4 191352. 8552.67   1
 -11  10  -4 207052. 8663.35   1
  -1 -10   4 155684. 7683.90   2
   1 -11  -4 199176. 8508.23   2
 -10  11   4 187510. 8179.02   1
  10 -11  -4 186368. 8034.75   1
 -11  10  -5 8574.23 1669.86   1
 -11   1  -5 5754.98 1536.09   2
 -10  11   5 6513.83 1560.67   1
   1 -11  -5 6109.31 1429.33   1
  10 -11  -5 7015.86 1646.92   1
  -1  11   5 7182.55 1542.00   1
  11 -10   5 8852.14 1849.73   1
 -11   1  -5 5761.57 1479.73   1
  11  -1   5 6750.65 1550.44   1
  -1 -10   5 4931.87 1429.38   2
   1 -11  -5 6738.70 1565.45   2
 -11  10  -6 1149.70 921.097   1
 -11   1  -6 391.092 482.505   2
 -10  11   6 1324.65 810.465   1
   1 -11  -6 1831.20 986.256   1
  11 -10   6 686.831 703.220   1
  10 -11  -6 1149.78 768.772   1
  -1  11   6 429.888 535.063   1
 -11   1  -6 713.296 511.111   1
  11  -1   6 1233.15 703.376   1
  -1 -10   6 455.157 490.107   2
   1 -11  -6 1425.74 805.283   2
 -11  10  -7 8505.07 1676.94   1
 -11   1  -7 8521.63 1815.05   2
  11 -10   7 8818.30 1806.93   1
  11   0   0 20527.4 2807.97   1
   0 -11   0 28068.3 3177.61   2
 -11  11   0 24651.7 3074.23   1
  11   0   1 15199.0 2377.52   1
  11 -11   1 16872.8 2455.63   1
 -11   0  -1 14668.6 2434.83   1
   0 -11   1 16030.1 2423.09   2
   0 -11  -1 18363.5 2652.30   2
 -11  11  -1 17048.3 2527.93   1
  11   0   2 136365. 7231.00   1
   0 -11   2 129461. 7011.12   2
 -11  11  -2 135915. 7091.61   1
  11   0   3 67726.4 4979.41   1
   0 -11  -3 64426.1 5043.08   1
   0  11   3 70614.3 5273.06   1
 -11   0  -3 73723.4 5418.90   1
   0 -11   3 71003.4 5124.72   2
  11   0   4 27427.7 3170.85   1
   0 -11  -4 24323.2 3129.64   1
   0  11   4 25108.4 3092.20   1
 -11   0  -4 22003.4 2927.61   1
   0 -11   4 18966.3 2731.80   2
   0 -11  -5 72861.2 5426.08   1
   0  11   5 80481.0 5575.19   1
   0 -11   5 81873.4 5710.20   2
  -6  -6  -7-691.151 406.027   2
   6   6   7-285.056 304.313   1
  -6  -6  -7 118.949 493.737   1
   6 -12   7 739.229 520.298   2
  -6  -6  -6 39153.6 3890.63   1
   6   6   6 35445.0 3575.14   1
   6 -12   6 45335.4 4077.80   2
 -12   6   6 42117.7 4044.34   1
  12  -6  -6 40084.9 3814.30   1
  -6  -6  -6 50929.6 4412.90   2
 -12   6   5 176.598 675.446   1
  -6  -6  -5 971.212 555.486   2
   6   6   5 635.544 686.877   1
  12  -6  -5 118.397 335.619   1
  -6  -6  -5-201.236 581.703   1
   6 -12   5-729.919 871.163   2
  -6  -6  -4 383127. 12613.2   1
   6   6   4 456861. 13339.2   1
 -12   6   4 369121. 12101.6   1
   6 -12   4 503809. 14150.4   2
  12  -6  -4 545787. 14287.2   1
  -6  -6  -4 417860. 13162.3   2
  -6  -6  -3 64.3671 440.000   2
   6   6   3-124.639 469.439   1
  12  -6  -3 258.715 505.850   1
  -6  12  -3 8.97376 423.929   1
  -6  -6  -3-297.954 369.592   1
   6 -12   3 1160.98 605.851   2
 -12   6   3 13.4543 443.579   1
   6 -12   3 436.915 324.815   1
  -6  -6  -2 3486.23 1118.98   2
   6   6   2 4945.52 1296.01   1
  12  -6  -2 3691.25 1161.67   1
  -6  12  -2 5335.73 1447.53   1
   6 -12   2 4500.19 1311.72   1
   6 -12   2 5393.44 1401.40   2
 -12   6   2 4792.30 1306.73   1
  12  -6  -1 432.792 597.629   1
   6 -12   1 326.176 533.279   1
  -6  -6  -1 139.309 322.282   2
  -6  12  -1 79.8212 431.922   1
   6 -12   1-164.167 448.464   2
 -12   6   1 708.456 797.694   1
  -6  12   0 197361. 8445.94   1
  12  -6   0 198615. 8392.10   1
   6 -12   0 199484. 8612.22   2
  -6  12   1 232.207 381.089   1
   6 -12  -1-757.342 705.923   2
  12  -6   1 2.29065 288.195   1
   6 -12  -1 61.8844 457.345   1
 -12   6  -1 502.731 536.357   1
   6 -12  -2 644.715 528.035   1
  -6  12   2 1578.99 798.786   1
  12  -6   2 1910.30 882.858   1
   6 -12  -2 1152.48 681.453   2
 -12   6  -2 1284.60 590.537   1
   6 -12  -3-556.383 660.591   1
  -6  12   3 398.596 483.076   1
  12  -6   3-170.399 457.157   1
   6 -12  -3 612.158 750.498   2
 -12   6  -3-209.897 680.991   1
  -6  12   4 316523. 10920.7   1
   6 -12  -4 349164. 11623.2   1
  12  -6   4 346897. 11076.6   1
   6 -12  -4 318721. 11253.0   2
   6 -12  -5-116.933 366.586   1
  -6  12   5 304.494 576.741   1
  12  -6   5-555.977 724.182   1
   6 -12  -5-1115.30 857.558   2
 -12   6  -5-432.661 673.985   1
  -6  12   6 19187.8 2623.45   1
   6 -12  -6 21777.0 2848.84   1
  12  -6   6 18851.5 2583.25   1
 -12   6  -6 21518.2 2771.48   1
   6 -12  -6 19530.2 2701.91   2
   6 -12  -7-280.090 490.781   2
   6 -12  -8 293268. 11161.9   2
  12  -7  -7 114638. 6583.67   1
  -5  -7  -7 125491. 7002.72   1
  -7  -5  -7 118466. 6859.66   1
   5   7   7 115747. 6504.13   1
   7   5   7 120736. 6720.22   1
   5 -12   7 129189. 7024.85   2
  -7  -5  -7 110850. 6507.98   2
  12  -7  -6 217096. 9128.26   1
  -5  -7  -6 218852. 9295.27   1
  -7  -5  -6 237405. 9771.06   1
   5   7   6 222131. 9016.59   1
   7   5   6 230402. 9277.41   1
   7 -12   6 244645. 9646.86   2
   5 -12   6 224622. 9350.69   2
  -5  -7  -6 286223. 10404.2   2
  -7  -5  -6 265390. 9984.06   2
  12  -7  -5 135551. 7090.15   1
  -5  -7  -5 110132. 6548.33   1
  -7  -5  -5 115951. 6839.94   1
   5   7   5 117619. 6614.07   1
   7   5   5 128626. 6916.81   1
 -12   5   5 129665. 7031.53   1
  12  -5  -5 147160. 7442.36   1
   7 -12   5 108986. 6444.59   2
   5 -12   5 135407. 7076.51   2
 -12   7   5 106788. 6440.10   1
  -5  -7  -5 135322. 7162.35   2
  -7  -5  -5 138011. 7210.44   2
   5   7   4 3134.62 1142.51   1
 -12   7   4 3835.20 1302.78   1
  -5  -7  -4 4352.98 1294.88   2
  -7  -5  -4 4427.57 1351.45   2
  -7  12  -4 2752.30 988.055   1
   7   5   4 4221.62 1264.43   1
   7 -12   4 4368.90 1289.91   1
  -5  -7  -4 2239.49 1109.60   1
  -7  -5  -4 2894.47 1137.94   1
  12  -7  -4 3356.25 1084.64   1
   7 -12   4 3901.50 1246.19   2
   5 -12   4 6073.23 1587.41   2
  12  -5  -4 2530.45 1047.54   1
 -12   5   4 3741.48 1224.65   1
   5   7   3 2150.15 953.059   1
 -12   7   3 1875.82 852.577   1
  -5  -7  -3 1931.83 1025.40   2
  -7  -5  -3 2204.17 1055.76   2
   7   5   3 1148.47 744.773   1
  -7  12  -3 1241.18 680.045   1
  -5  -7  -3 832.144 677.344   1
   7 -12   3 1075.16 490.957   1
  12  -7  -3 1369.37 850.790   1
  -7  -5  -3 1255.89 853.785   1
  12  -5  -3 1531.54 718.380   1
   7 -12   3 2962.33 1125.28   2
   5 -12   3 1671.76 997.172   2
 -12   5   3 1208.14 773.991   1
  -5  12  -2 163067. 7830.64   1
   7 -12   2 136287. 7040.45   1
  12  -5  -2 157480. 7562.61   1
   7   5   2 159521. 7718.78   1
 -12   5   2 202949. 8648.35   1
   7 -12   2 173126. 8060.56   2
 -12   7   2 162926. 7734.68   1
   5 -12   2 181771. 8044.72   2
  -5  -7  -2 135986. 7299.54   2
   5 -12   2 153899. 7642.43   1
  12  -7  -2 205340. 8491.92   1
  -7  -5  -2 158941. 7902.06   2
  -7  12  -2 166978. 7944.16   1
  -7  12  -1 33704.6 3515.67   1
  -5  12  -1 36183.2 3616.79   1
   7 -12   1 30901.6 3292.62   1
   5 -12   1 29443.6 3325.29   1
  12  -5  -1 34540.7 3399.46   1
 -12   5   1 41194.0 3860.52   1
   7 -12   1 36770.2 3724.20   2
 -12   7   1 39445.5 3747.22   1
   5 -12   1 39574.5 3835.53   2
  12  -7  -1 35974.0 3443.20   1
  -5  -7  -1 31287.2 3469.69   2
  -7  -5  -1 27583.7 3303.54   2
  -7  12   0 32200.6 3373.27   1
  -5  12   0 28013.2 3120.98   1
   5 -12   0 27294.8 3251.61   1
   7 -12   0 27771.8 3069.34   1
  12  -5   0 28988.2 3190.35   1
 -12   5   0 33372.0 3458.82   1
 -12   7   0 37967.1 3618.16   1
   7 -12   0 32193.3 3516.89   2
   5 -12   0 31702.8 3390.04   2
  12  -7   0 34951.4 3432.27   1
  -5  -7   0 27888.5 3318.23   2
  -7  12   1 131889. 6748.15   1
  -5  12   1 124612. 6721.39   1
   5 -12  -1 107001. 6423.87   1
  12  -5   1 127220. 6705.87   1
 -12   5  -1 132548. 6883.92   1
 -12   7  -1 142865. 7034.06   1
   7 -12  -1 134417. 6873.08   1
   7 -12  -1 115031. 6819.93   2
   5 -12  -1 131506. 6984.21   2
  12  -7   1 144560. 7030.93   1
  -5  -7   1 117025. 6662.95   2
  -7  12   2 78277.7 5112.21   1
  -5  12   2 64523.8 4885.16   1
   5 -12  -2 69386.8 5111.75   1
  12  -5   2 70059.7 4948.76   1
 -12   5  -2 72666.4 5062.38   1
 -12   7  -2 77528.4 5175.87   1
   7 -12  -2 68764.3 5118.98   2
  12  -7   2 83100.0 5313.24   1
   5 -12  -2 76902.7 5300.48   2
   7 -12  -2 67844.1 4973.37   1
  -7  12   3 14558.8 2330.06   1
  -5  12   3 16775.4 2452.29   1
   5 -12  -3 17354.1 2502.44   1
   7 -12  -3 16238.6 2542.69   1
  12  -5   3 16409.1 2414.74   1
 -12   5  -3 15855.6 2399.99   1
 -12   7  -3 18793.9 2480.17   1
  12  -7   3 13869.2 2116.14   1
   7 -12  -3 14207.8 2377.93   2
   5 -12  -3 15310.2 2428.86   2
   5 -12  -4 9378.34 1915.49   1
  -7  12   4 10780.5 1862.34   1
  -5  12   4 6901.02 1556.25   1
  12  -5   4 9342.98 1740.06   1
   5 -12  -4 10376.2 1977.54   2
  12  -7   4 10114.4 1753.12   1
   7 -12  -4 8386.60 1820.40   2
 -12   5  -4 10914.6 1853.00   1
 -12   7  -4 12643.4 1978.42   1
  -7  12   5 15058.1 2292.72   1
   7 -12  -5 15230.6 2282.84   1
  -5  12   5 13535.2 2175.70   1
   5 -12  -5 17359.3 2468.20   1
  12  -5   5 16043.9 2321.57   1
 -12   5  -5 12897.8 2075.54   1
  12  -7   5 14737.1 2176.18   1
 -12   7  -5 12616.6 2127.30   1
   7 -12  -5 11834.3 2147.81   2
   5 -12  -5 13433.7 2307.65   2
  -7  12   6 377107. 11836.9   1
   7 -12  -6 407094. 12513.2   1
  -5  12   6 395308. 12091.8   1
   5 -12  -6 410067. 12531.7   1
  12  -5   6 364700. 11632.7   1
  12  -7   6 408130. 12207.0   1
 -12   5  -6 400822. 11938.5   1
 -12   7  -6 441910. 12694.1   1
   7 -12  -6 321072. 11737.7   2
   5 -12  -6 381712. 12290.5   2
   7 -12  -7 62585.0 5032.52   2
   5 -12  -7 63228.2 4917.81   2
   5 -12  -8 21012.7 2773.21   2
  12  -8  -8 3066.31 1194.25   1
  -4  -8  -7 60408.1 4896.10   1
   4   8   7 63507.7 4738.78   1
 -12   8   7 75968.3 5420.85   1
  12  -8  -6 192816. 8585.89   1
  -4  -8  -6 220981. 9513.19   1
  -8  -4  -6 241538. 9730.18   1
   4   8   6 270370. 10122.7   1
   4 -12   6 258566. 10159.5   2
   8   4   6 251891. 9792.14   1
 -12   8   6 323721. 11376.2   1
  -4  -8  -6 207969. 8983.52   2
  -8  -4  -6 283362. 10480.3   2
  -8  -4  -5 11544.3 2102.08   2
  12  -8  -5 13775.4 2171.97   1
  -8  12  -5 11735.8 2069.66   1
  -8  -4  -5 11826.9 2147.83   1
  -4  -8  -5 12195.8 2150.73   1
   4   8   5 10928.1 2036.80   1
   8 -12   5 13005.5 2235.45   1
   8 -12   5 15094.6 2302.68   2
   4 -12   5 14634.8 2359.87   2
   8   4   5 11645.5 2176.08   1
 -12   8   5 14414.7 2269.45   1
  -4  -8  -5 14296.9 2281.85   2
  12  -8  -4 80776.7 5270.26   1
  -4  -8  -4 69807.9 5271.09   1
  -8  -4  -4 60924.4 4880.23   1
   4   8   4 78594.3 5431.39   1
  12  -4  -4 67651.8 5083.95   1
   8 -12   4 70060.5 5154.13   1
   8 -12   4 77420.4 5292.91   2
   4 -12   4 81752.1 5522.02   2
   8   4   4 76625.5 5349.24   1
 -12   8   4 89858.5 5672.09   1
  -4  -8  -4 79956.4 5470.24   2
  -8  12  -4 75748.9 5511.88   1
  -8  -4  -4 66658.2 5116.82   2
  12  -8  -3 76862.0 5145.98   1
  -4  -8  -3 56335.3 4652.67   1
  -8  -4  -3 47549.3 4299.86   1
   4   8   3 57557.1 4660.04   1
  12  -4  -3 46072.2 4174.80   1
 -12   4   3 45097.6 4124.36   1
   8 -12   3 66242.8 4998.42   2
   4 -12   3 64569.9 4880.40   2
   8   4   3 52358.9 4400.02   1
 -12   8   3 67290.6 4922.03   1
   8 -12   3 51068.6 4372.34   1
  -4  -8  -3 73910.7 5181.03   2
  -8  12  -3 57859.6 4691.42   1
  -8  -4  -3 60279.2 4799.99   2
  12  -8  -2 138854. 6963.87   1
  12  -4  -2 119994. 6701.01   1
 -12   4   2 143211. 7475.34   1
   8 -12   2 140256. 7399.50   2
   8   4   2 137340. 7261.32   1
   4 -12   2 149309. 7352.06   2
  -4  -8  -2 145353. 7321.96   2
  -8  12  -2 134439. 6920.84   1
  -8  -4  -2 143666. 7468.68   2
   8 -12   2 123640. 6662.65   1
  12  -8  -1 34842.3 3479.10   1
   8 -12   1 40715.3 3687.07   1
  -4  12  -1 36236.5 3630.45   1
  12  -4  -1 33623.3 3533.19   1
 -12   4   1 34912.4 3601.40   1
   8 -12   1 42035.0 4010.12   2
   4 -12   1 44124.8 3952.39   2
 -12   8   1 43627.0 3998.29   1
  -4  -8  -1 37104.8 3757.07   2
  -8  12  -1 36841.0 3678.07   1
  -4  -8   0 94.3907 415.846   2
 -12   8   0 609.540 548.248   1
  -8  12   0 188.350 425.966   1
   4 -12   0 77.7383 668.774   1
  -4  12   0 1207.34 879.036   1
  12  -4   0 1222.18 822.434   1
  12  -8   0 431.951 325.878   1
   8 -12   0-266.861 593.627   1
   8 -12   0 448.550 718.240   2
 -12   4   0-170.017 286.418   1
   4 -12   0 480.854 413.590   2
  -8  12   1 11106.5 2018.50   1
 -12   8  -1 9880.94 1867.19   1
   8 -12  -1 10692.2 1894.89   1
   4 -12  -1 9998.04 1839.10   1
  -4  12   1 9839.26 1957.03   1
  12  -4   1 13291.1 2122.35   1
   8 -12  -1 10480.6 2041.82   2
 -12   4  -1 7873.64 1618.57   1
  -4  -8   1 11193.8 2123.35   2
   4 -12  -1 11345.3 1979.44   2
  12  -8   1 11219.0 1972.45   1
  -8  12   2 140076. 7065.06   1
  -4  12   2 132663. 7015.48   1
  12  -4   2 146136. 7311.54   1
   8 -12  -2 148026. 7112.80   1
 -12   4  -2 143627. 7039.98   1
   8 -12  -2 125175. 7060.32   2
 -12   8  -2 138961. 7041.00   1
   4 -12  -2 131161. 6895.97   2
  -4  -8   2 136521. 7250.39   2
  12  -8   2 140857. 6944.47   1
  -8  12   3 77114.9 5276.91   1
  -4  12   3 71264.2 5136.82   1
   4 -12  -3 73710.9 5238.68   1
  12  -4   3 88392.9 5587.60   1
 -12   4  -3 74507.4 5063.99   1
   8 -12  -3 77960.5 5268.84   1
 -12   8  -3 65483.8 4812.46   1
   8 -12  -3 67470.5 5091.00   2
   4 -12  -3 70583.1 5040.11   2
  12  -8   3 74472.6 5003.25   1
  12  -8   4 2876.90 1012.75   1
  12  -4   4 2094.76 870.482   1
   4 -12  -4 1649.82 828.449   1
  -8  12   4 3527.75 1205.50   1
  -4  12   4 3605.98 1283.15   1
 -12   4  -4 1391.89 741.658   1
   8 -12  -4 2452.61 938.383   2
   8 -12  -4 2340.55 763.761   1
   4 -12  -4 2866.45 1063.70   2
 -12   8  -4 3553.84 1179.79   1
  -8  12   5 131018. 6654.16   1
  -4  12   5 137372. 7034.94   1
   4 -12  -5 115683. 6485.03   1
  12  -4   5 121479. 6528.68   1
 -12   4  -5 120811. 6429.02   1
 -12   8  -5 136014. 6741.36   1
  12  -8   5 151948. 7264.87   1
   8 -12  -5 112653. 6848.23   2
   4 -12  -5 129440. 6954.18   2
   8 -12  -5 125554. 6707.90   1
   4 -12  -6 154309. 7482.35   1
  -4  12   6 174263. 7960.15   1
   4 -12  -6 169197. 8006.16   2
   4 -12  -7 62635.3 4933.79   2
  -9  12  -6 10039.3 2008.11   1
  -9  -3  -6 7743.93 1734.07   2
  -3  -9  -6 9343.49 1930.03   1
   3   9   6 10923.7 2109.02   1
 -12   9   5 2676.13 1112.26   1
  -9  -3  -5 1780.28 875.043   2
  -9  12  -5 3178.37 1152.90   1
   9   3   5 2352.24 963.305   1
  12  -9  -5 2424.43 909.462   1
  -3  -9  -5 2657.54 1120.10   1
   9 -12   5 2305.85 1076.78   1
  -9  -3  -5 2422.51 1037.40   1
   3   9   5 2510.53 1015.18   1
  -9  -3  -4 311123. 11574.2   2
  12  -9  -4 426487. 12520.0   1
  -3  -9  -4 392339. 12944.1   1
  -9  -3  -4 332097. 11880.0   1
   3   9   4 415431. 12993.6   1
   9 -12   4 395804. 12605.0   1
   9 -12   4 450944. 13434.7   2
   3 -12   4 506495. 14079.6   2
   9   3   4 408503. 12750.2   1
 -12   9   4 409076. 12748.8   1
  -3  -9  -4 477545. 13640.2   2
  -9  12  -4 429643. 13244.8   1
  -3  -9  -3 7805.57 1755.21   2
 -12   9   3 10933.0 2002.27   1
  -9  -3  -3 6335.04 1530.60   2
  -9  12  -3 8068.93 1778.43   1
  12  -9  -3 9630.19 1836.77   1
   9   3   3 8988.32 1803.60   1
  -9  -3  -3 5730.10 1436.70   1
   9 -12   3 8411.33 1868.03   2
   3   9   3 8495.44 1872.42   1
   9 -12   3 7895.09 1692.27   1
   3 -12   3 7985.48 1713.61   2
  -3  -9  -2 402.620 699.307   2
 -12   9   2 606.584 572.755   1
  -9  12  -2 754.492 477.798   1
  12  -9  -2 1248.85 719.435   1
  12  -3  -2 1087.47 793.218   1
   9   3   2 332.819 418.660   1
   9 -12   2 784.230 637.229   2
 -12   3   2-5.06958 325.832   1
   3 -12   2 1803.20 958.719   2
   9 -12   2 54.1320 443.208   1
  -3  -9  -1 1296.31 697.922   2
 -12   9   1 1907.18 962.794   1
  12  -9  -1 556.684 384.703   1
   9 -12   1 2180.57 968.225   1
  -9  12  -1 1641.06 851.889   1
  12  -3  -1 1202.73 785.937   1
   9 -12   1 1522.49 780.604   2
 -12   3   1 1178.58 746.019   1
   3 -12   1 536.557 485.007   2
  12  -9   0 143404. 7030.19   1
  -3  12   0 122330. 6914.92   1
  12  -3   0 125215. 6786.73   1
 -12   3   0 132959. 7081.39   1
   9 -12   0 122445. 7041.00   2
   3 -12   0 143889. 7146.50   2
 -12   9   0 118680. 6615.86   1
  -3  -9   0 116836. 6725.87   2
  -9  12   0 143797. 7254.38   1
   9 -12   0 138163. 7051.30   1
 -12   9  -1 158.873 553.986   1
  12  -3   1 283.386 585.356   1
  -9  12   1 1182.57 825.659   1
   3 -12  -1-438.805 589.415   1
  -3  12   1 69.1858 446.458   1
   9 -12  -1 152.496 532.994   1
  12  -9   1 1204.73 716.099   1
   9 -12  -1 268.680 560.630   2
 -12   3  -1-412.082 442.471   1
   3 -12  -1-211.611 463.923   2
  -3  -9   1 82.7249 468.612   2
 -12   9  -2 7031.19 1638.74   1
  12  -3   2 7487.60 1611.65   1
  -9  12   2 9280.34 1816.86   1
   3 -12  -2 6479.77 1545.64   1
  -3  12   2 8112.69 1753.39   1
  12  -9   2 8717.03 1668.73   1
   9 -12  -2 9420.19 1817.59   1
 -12   3  -2 6240.96 1557.14   1
   9 -12  -2 7750.90 1790.63   2
   3 -12  -2 7697.72 1623.46   2
  -3  -9   2 7073.32 1707.11   2
 -12   9  -3 1295.43 751.898   1
  12  -3   3 1463.68 789.331   1
  -9  12   3 1496.58 805.711   1
   3 -12  -3 1033.30 650.626   1
  12  -9   3 1247.90 642.429   1
  -3  12   3 1546.84 881.168   1
 -12   3  -3 904.017 523.038   1
   9 -12  -3 1317.76 814.964   2
   9 -12  -3 1126.70 676.855   1
   3 -12  -3 1382.24 765.597   2
  -3  -9   3 745.980 717.899   2
   3 -12  -4 310746. 10998.8   1
  -3  12   4 309520. 10988.9   1
 -12   3  -4 284622. 10310.4   1
   9 -12  -4 287456. 11203.2   2
   3 -12  -4 309677. 10984.1   2
 -12   3  -5 1268.25 779.792   2
   3 -12  -5 2695.86 1089.93   1
  -3  12   5 3001.03 1030.83   1
 -12   3  -6 200.372 608.607   2
  10   2   4 5710.48 1369.04   1
 -10  -2  -4 3480.13 1064.82   1
   2  10   4 5415.00 1444.24   1
 -10  -2  -3 115600. 6910.68   1
  10   2   3 120049. 6831.60   1
  10   2   2 98040.3 6353.04   1
  12  -2  -1 40438.2 3930.46   1
  12  -2   0 13590.4 2275.22   1
 -12   2   0 10384.0 2011.62   1
  -2 -10   0 15240.2 2426.33   2
  12  -2   1 1402.25 794.919   1
 -12   2  -1 329.498 293.861   1
  10 -12  -1 619.215 502.498   2
  -2 -10   1 573.272 475.847   2
   2 -12  -2 96660.9 6327.19   1
  -2  12   2 104751. 6474.01   1
  12  -2   2 107798. 6459.94   1
  10 -12  -2 107503. 6746.49   2
  -2 -10   2 105873. 6454.47   2
   2 -12  -3 18753.6 2709.37   1
  -2  12   3 20261.8 2844.04   1
  -2 -10   3 18172.1 2651.84   2
   2 -12  -4 23117.2 3055.59   1
  -2  12   4 25188.3 3021.78   1
  -7  -6  -3 113440. 6789.56   2
  -6  -7  -2 75570.5 5453.34   2
  -7  13  -2 74443.1 5468.61   1
  -6  -7  -1 2867.26 1158.86   2
   7 -13   1 3611.42 1211.32   1
  -7  13  -1 3915.15 1226.14   1
  -6  13  -1 3433.31 1164.76   1
  -7  13   0 134.425 336.247   1
  -6  13   0 122.395 367.133   1
   6 -13   0 441.275 500.992   1
   7 -13   0 117.867 422.428   1
  -6  13   1 3635.35 1156.91   1
   6 -13  -1 2671.19 1132.16   1
  -5  13   0 124415. 7129.74   1
   5 -13  -1 1129.34 790.993   1
  -5  13   1 371.625 529.525   1
   0   0   0    0.00    0.00   0

;
_shelx_hkl_checksum              7029
loop_
_space_group_symop_operation_xyz
'x, y, z'
'-y, x-y, z'
'-x+y, -x, z'
'-y, -x, -z+1/2'
'-x+y, y, -z+1/2'
'x, x-y, -z+1/2'
'-x, -y, -z'
'y, -x+y, -z'
'x-y, x, -z'
'y, x, z-1/2'
'x-y, -y, z-1/2'
'-x, -x+y, z-1/2'
loop_
_atom_site_label
_atom_site_type_symbol
_atom_site_fract_x
_atom_site_fract_y
_atom_site_fract_z
_atom_site_U_iso_or_equiv
_atom_site_adp_type
_atom_site_occupancy
_atom_site_site_symmetry_order
_atom_site_calc_flag
_atom_site_refinement_flags_posn
_atom_site_refinement_flags_adp
_atom_site_refinement_flags_occupancy
Co1 Co 0.6667 0.3333 0.2500 0.01213(18) Uani 1 6 d S T P
Fe1 Fe 1.0000 0.0000 0.0000 0.01085(18) Uani 1 6 d S T P
O1 O 0.88328(13) 0.34319(11) 0.16813(8) 0.0236(3) Uani 1 1 d . . .
O2 O 1.01287(11) 0.20884(13) 0.08291(6) 0.0200(2) Uani 1 1 d . . .
C1 C 0.87336(17) 0.20972(17) 0.12067(10) 0.0190(3) Uani 1 1 d . . .
H1 H 0.7555 0.1037 0.1125 0.038(7) Uiso 1 1 calc R . .
C2 C 1.3333 0.6667 0.1515(16) 0.221(9) Uani 1 3 d S T P
N1 N 1.2779(5) 0.5558(10) 0.2500 0.159(9) Uani 0.334 2 d S T P
loop_
_atom_site_aniso_label
_atom_site_aniso_U_11
_atom_site_aniso_U_22
_atom_site_aniso_U_33
_atom_site_aniso_U_23
_atom_site_aniso_U_13
_atom_site_aniso_U_12
Co1 0.01029(19) 0.01029(19) 0.0158(3) 0.000 0.000 0.00515(9)
Fe1 0.00937(19) 0.00937(19) 0.0138(3) 0.000 0.000 0.00469(9)
O1 0.0200(4) 0.0185(4) 0.0313(6) -0.0067(3) 0.0060(3) 0.0088(3)
O2 0.0173(4) 0.0178(4) 0.0258(5) -0.0035(3) 0.0026(3) 0.0096(3)
C1 0.0169(4) 0.0183(5) 0.0237(6) -0.0048(3) 0.0000(3) 0.0101(4)
C2 0.0288(13) 0.0288(13) 0.61(3) 0.000 0.000 0.0144(7)
N1 0.039(3) 0.016(3) 0.41(3) 0.000 -0.090(9) 0.0079(13)
loop_
_atom_type_symbol
_atom_type_description
_atom_type_scat_dispersion_real
_atom_type_scat_dispersion_imag
_atom_type_scat_source
C C 0.0030 0.0010 'International Tables Vol C Tables 4.2.6.8 and 6.1.1.4'
H H 0.0000 0.0000 'International Tables Vol C Tables 4.2.6.8 and 6.1.1.4'
N N 0.0050 0.0030 'International Tables Vol C Tables 4.2.6.8 and 6.1.1.4'
O O 0.0090 0.0050 'International Tables Vol C Tables 4.2.6.8 and 6.1.1.4'
Fe Fe 0.3380 0.7600 'International Tables Vol C Tables 4.2.6.8 and 6.1.1.4'
Co Co 0.3460 0.8760 'International Tables Vol C Tables 4.2.6.8 and 6.1.1.4'
loop_
_geom_angle_atom_site_label_1
_geom_angle_atom_site_label_2
_geom_angle_atom_site_label_3
_geom_angle
_geom_angle_site_symmetry_1
_geom_angle_site_symmetry_3
O1 Co1 O1 93.46(4) 4_665 6
O1 Co1 O1 83.77(5) 4_665 3_665
O1 Co1 O1 176.12(4) 6 3_665
O1 Co1 O1 176.12(4) 4_665 2_655
O1 Co1 O1 89.43(6) 6 2_655
O1 Co1 O1 93.46(4) 3_665 2_655
O1 Co1 O1 93.46(4) 4_665 5_655
O1 Co1 O1 93.46(4) 6 5_655
O1 Co1 O1 89.43(6) 3_665 5_655
O1 Co1 O1 83.77(5) 2_655 5_655
O1 Co1 O1 89.44(6) 4_665 .
O1 Co1 O1 83.77(5) 6 .
O1 Co1 O1 93.46(4) 3_665 .
O1 Co1 O1 93.46(4) 2_655 .
O1 Co1 O1 176.12(4) 5_655 .
O2 Fe1 O2 180.0 . 7_755
O2 Fe1 O2 88.61(4) . 9_545
O2 Fe1 O2 91.39(4) 7_755 9_545
O2 Fe1 O2 91.39(4) . 3_765
O2 Fe1 O2 88.61(4) 7_755 3_765
O2 Fe1 O2 180.00(6) 9_545 3_765
O2 Fe1 O2 91.39(4) . 2_645
O2 Fe1 O2 88.61(4) 7_755 2_645
O2 Fe1 O2 88.61(4) 9_545 2_645
O2 Fe1 O2 91.39(4) 3_765 2_645
O2 Fe1 O2 88.61(4) . 8_665
O2 Fe1 O2 91.39(4) 7_755 8_665
O2 Fe1 O2 91.39(4) 9_545 8_665
O2 Fe1 O2 88.61(4) 3_765 8_665
O2 Fe1 O2 180.00(10) 2_645 8_665
C1 O1 Co1 124.97(8) . .
C1 O2 Fe1 125.10(8) . .
O1 C1 O2 124.14(12) . .
N1 C2 N1 51.8(8) 3_775 .
N1 C2 N1 51.8(8) 3_775 2_755
N1 C2 N1 51.8(8) . 2_755
N1 N1 N1 60.001(1) 3_775 2_755
N1 N1 C2 64.1(4) 3_775 4_775
N1 N1 C2 64.1(4) 2_755 4_775
N1 N1 C2 64.1(4) 3_775 .
N1 N1 C2 64.1(4) 2_755 .
C2 N1 C2 119.4(9) 4_775 .
loop_
_geom_bond_atom_site_label_1
_geom_bond_atom_site_label_2
_geom_bond_distance
_geom_bond_site_symmetry_2
Co1 O1 2.0696(9) 4_665
Co1 O1 2.0696(10) 6
Co1 O1 2.0696(10) 3_665
Co1 O1 2.0696(9) 2_655
Co1 O1 2.0696(9) 5_655
Co1 O1 2.0696(10) .
Fe1 O2 2.0148(9) .
Fe1 O2 2.0148(9) 7_755
Fe1 O2 2.0148(9) 9_545
Fe1 O2 2.0148(9) 3_765
Fe1 O2 2.0148(9) 2_645
Fe1 O2 2.0148(9) 8_665
O1 C1 1.2413(13) .
O2 C1 1.2603(13) .
C2 N1 1.562(19) 3_775
C2 N1 1.562(19) .
C2 N1 1.562(19) 2_755
N1 N1 1.365(12) 3_775
N1 N1 1.366(12) 2_755
N1 C2 1.562(19) 4_775
