#------------------------------------------------------------------------------
#$Date: 2017-04-04 16:05:38 +0300 (Tue, 04 Apr 2017) $
#$Revision: 194820 $
#$URL: file:///home/coder/svn-repositories/cod/cif/4/34/55/4345505.cif $
#------------------------------------------------------------------------------
#
# This file is available in the Crystallography Open Database (COD),
# http://www.crystallography.net/
#
# All data on this site have been placed in the public domain by the
# contributors.
#
data_4345505
loop_
_publ_author_name
'Sun, Xiao-Fen'
'Wang, Zhongxia'
'Li, Peng-Fei'
'Liao, Wei-Qiang'
'Ye, Heng-Yun'
'Zhang, Yi'
_publ_section_title
;
 Tunable Dielectric Responses Triggered by Dimensionality Modification in
 Organic-Inorganic Hybrid Phase Transition Compounds (C5H6N)CdnCl2n+1 (n =
 1 and 2).
;
_journal_issue                   6
_journal_name_full               'Inorganic chemistry'
_journal_page_first              3506
_journal_page_last               3511
_journal_paper_doi               10.1021/acs.inorgchem.6b03074
_journal_volume                  56
_journal_year                    2017
_chemical_formula_moiety         'Cd2 Cl5, C5 H6 N'
_chemical_formula_sum            'C5 H6 Cd2 Cl5 N'
_chemical_formula_weight         482.18
_space_group_crystal_system      orthorhombic
_space_group_IT_number           62
_space_group_name_Hall           '-P 2ac 2n'
_space_group_name_H-M_alt        'P n m a'
_symmetry_space_group_name_Hall  '-P 2ac 2n'
_symmetry_space_group_name_H-M   'P n m a'
_atom_sites_solution_hydrogens   geom
_audit_creation_method           SHELXL-2014/7
_cell_angle_alpha                90
_cell_angle_beta                 90
_cell_angle_gamma                90
_cell_formula_units_Z            4
_cell_length_a                   20.19(5)
_cell_length_b                   15.23(4)
_cell_length_c                   3.793(9)
_cell_measurement_reflns_used    2323
_cell_measurement_temperature    293(2)
_cell_measurement_theta_max      27.481
_cell_measurement_theta_min      2.017
_cell_volume                     1166(5)
_computing_structure_refinement  'SHELXL-2014/7 (Sheldrick, 2014)'
_diffrn_ambient_temperature      293(2)
_diffrn_measured_fraction_theta_full 0.960
_diffrn_measured_fraction_theta_max 0.962
_diffrn_measurement_device_type  'Rigaku, SCXmini'
_diffrn_measurement_method       '\w scans'
_diffrn_radiation_type           MoK\a
_diffrn_radiation_wavelength     0.71073
_diffrn_reflns_av_R_equivalents  0.0434
_diffrn_reflns_av_unetI/netI     0.0438
_diffrn_reflns_Laue_measured_fraction_full 0.960
_diffrn_reflns_Laue_measured_fraction_max 0.962
_diffrn_reflns_limit_h_max       24
_diffrn_reflns_limit_h_min       -26
_diffrn_reflns_limit_k_max       19
_diffrn_reflns_limit_k_min       -19
_diffrn_reflns_limit_l_max       4
_diffrn_reflns_limit_l_min       -4
_diffrn_reflns_number            5894
_diffrn_reflns_point_group_measured_fraction_full 0.960
_diffrn_reflns_point_group_measured_fraction_max 0.962
_diffrn_reflns_theta_full        25.242
_diffrn_reflns_theta_max         27.481
_diffrn_reflns_theta_min         2.017
_diffrn_source                   'fine-focus sealed tube'
_exptl_absorpt_coefficient_mu    4.745
_exptl_crystal_colour            colourless
_exptl_crystal_density_diffrn    2.747
_exptl_crystal_description       RIBBON
_exptl_crystal_F_000             896.0
_refine_diff_density_max         3.487
_refine_diff_density_min         -2.891
_refine_diff_density_rms         0.517
_refine_ls_extinction_method     none
_refine_ls_goodness_of_fit_ref   1.160
_refine_ls_hydrogen_treatment    constr
_refine_ls_matrix_type           full
_refine_ls_number_parameters     64
_refine_ls_number_reflns         1328
_refine_ls_number_restraints     0
_refine_ls_restrained_S_all      1.160
_refine_ls_R_factor_all          0.0565
_refine_ls_R_factor_gt           0.0488
_refine_ls_shift/su_max          0.000
_refine_ls_shift/su_mean         0.000
_refine_ls_structure_factor_coef Fsqd
_refine_ls_weighting_details
'w=1/[\s^2^(Fo^2^)+(0.0968P)^2^] where P=(Fo^2^+2Fc^2^)/3'
_refine_ls_weighting_scheme      calc
_refine_ls_wR_factor_gt          0.1274
_refine_ls_wR_factor_ref         0.1503
_reflns_Friedel_coverage         0.000
_reflns_number_gt                1165
_reflns_number_total             1328
_reflns_threshold_expression     'I > 2\s(I)'
_cod_data_source_file            ic6b03074_si_005.cif
_cod_data_source_block           1
_cod_depositor_comments
'Adding full bibliography for 4345502--4345505.cif.'
_cod_original_cell_volume        1167(5)
_cod_database_code               4345505
_shelx_shelxl_version_number     2014/7
_shelx_space_group_comment
;
The symmetry employed for this shelxl refinement is uniquely defined
by the following loop, which should always be used as a source of
symmetry information in preference to the above space-group names.
They are only intended as comments.
;
_shelx_res_file
;

    1.res created by SHELXL-2014/7

TITL 1 in Pnma
CELL 0.71073  20.1909  15.2346   3.7932  90.000  90.000  90.000
ZERR   12.00   0.0457   0.0414   0.0091   0.000   0.000   0.000
LATT 1
SYMM 0.5-X, -Y, 0.5+Z
SYMM -X, 0.5+Y, -Z
SYMM 0.5+X, 0.5-Y, 0.5-Z
SFAC C  H  N  Cl Cd
UNIT 12  12  12  12  12
L.S. 20
ACTA
BOND $H
FMAP 2
PLAN 20
HTAB N1 Cl2_$3
HTAB C1 Cl3_$2
HTAB C2 Cl3_$1
HTAB C2 Cl1
HTAB N1 Cl2_$3
HTAB C1 Cl3_$2
HTAB C2 Cl3_$1
HTAB C2 Cl1
HTAB N1 Cl2_$3
HTAB C1 Cl3_$2
HTAB C2 Cl3_$1
HTAB C2 Cl1
HTAB N1 Cl2_$3
HTAB C1 Cl3_$2
HTAB C2 Cl3_$1
HTAB C2 Cl1
HTAB N1 Cl2_$3
HTAB C1 Cl3_$2
HTAB C2 Cl3_$1
HTAB C2 Cl1
CONF
HTAB
HTAB C2 Cl1
EQIV $1 -x+1/2, -y, z-1/2
HTAB C2 Cl3_$1
EQIV $2 x-1/2, y, -z+3/2
HTAB C1 Cl3_$2
EQIV $3 x-1/2, y, -z+1/2
HTAB N1 Cl2_$3
HTAB C2 Cl1
HTAB C2 Cl3_$1
HTAB C1 Cl3_$2
HTAB N1 Cl2_$3
HTAB C2 Cl1
HTAB C2 Cl3_$1
HTAB C1 Cl3_$2
HTAB N1 Cl2_$3
HTAB C2 Cl1
HTAB C2 Cl3_$1
HTAB C1 Cl3_$2
HTAB N1 Cl2_$3
HTAB C2 Cl1
HTAB C2 Cl3_$1
HTAB C1 Cl3_$2
HTAB N1 Cl2_$3
WGHT    0.096800
FVAR       0.29445
MOLE 1
CD1   5    0.312085    0.083167    0.198842    11.00000    0.01038    0.00675 =
         0.00948   -0.00004   -0.00011   -0.00055
CL1   4    0.219001    0.089359   -0.301663    11.00000    0.01008    0.00754 =
         0.01203    0.00033   -0.00035   -0.00008
CL3   4    0.396896    0.057124    0.697527    11.00000    0.01060    0.01468 =
         0.01088   -0.00089   -0.00078    0.00015
CL2   4    0.321878    0.250000    0.195208    10.50000    0.03426    0.00576 =
         0.02520    0.00000    0.00218    0.00000
C2    1    0.089374    0.172771    0.212959    11.00000    0.01596    0.02197 =
         0.00641    0.00293    0.00120   -0.00158
AFIX  43
H2    2    0.112229    0.120338    0.181914    11.00000   -1.20000
AFIX   0
C1    1    0.024350    0.171241    0.309558    11.00000    0.02691    0.05947 =
         0.02573   -0.00046    0.00421   -0.01677
AFIX  43
H1    2    0.002627    0.118016    0.341862    11.00000   -1.20000
AFIX   0
C3    1    0.120785    0.250000    0.162096    10.50000    0.01043    0.03262 =
         0.01734    0.00000    0.00103    0.00000
AFIX  43
H3    2    0.164851    0.250001    0.090742    10.50000   -1.20000
AFIX   0
N1    3   -0.009207    0.250000    0.359363    10.50000    0.02696    0.10059 =
         0.03034    0.00000    0.00829    0.00000
AFIX  43
H1A   2   -0.050235    0.250001    0.420256    10.50000   -1.20000
AFIX   0
HKLF 4

REM  1 in Pnma
REM R1 =  0.0488 for    1165 Fo > 4sig(Fo)  and  0.0565 for all    1328 data
REM     64 parameters refined using      0 restraints

END

WGHT      0.0968      0.0000

REM Instructions for potential hydrogen bonds
HTAB C2 Cl1
HTAB C2 Cl3_$1
HTAB C1 Cl3_$2
HTAB N1 Cl2_$3

REM Highest difference peak  3.487,  deepest hole -2.891,  1-sigma level  0.517
Q1    1   0.3132  0.0836  0.4005  11.00000  0.05    3.49
Q2    1   0.0499  0.2500  0.1295  10.50000  0.05    1.64
Q3    1   0.0884  0.1595  0.0872  11.00000  0.05    1.61
Q4    1   0.0726  0.1672  0.3152  11.00000  0.05    1.58
Q5    1  -0.0162  0.2500 -0.0943  10.50000  0.05    1.55
Q6    1   0.0238  0.0798  0.1063  11.00000  0.05    1.48
Q7    1  -0.0111  0.2500  0.1386  10.50000  0.05    1.47
Q8    1   0.2198  0.0892 -0.1064  11.00000  0.05    1.46
Q9    1   0.4035  0.0729  0.8600  11.00000  0.05    1.37
Q10   1   0.0702  0.2500 -0.1168  10.50000  0.05    1.30
Q11   1   0.0347  0.2500 -0.0941  10.50000  0.05    1.29
Q12   1   0.0826  0.1102 -0.1893  11.00000  0.05    1.23
Q13   1   0.0336  0.0891  0.6231  11.00000  0.05    1.17
Q14   1   0.0601  0.2500  0.6324  10.50000  0.05    1.16
Q15   1   0.0369  0.0777 -0.1175  11.00000  0.05    1.13
Q16   1   0.0556  0.0816  0.4074  11.00000  0.05    1.09
Q17   1   0.0835  0.1681  0.5950  11.00000  0.05    1.05
Q18   1   0.4560  0.0763  0.6190  11.00000  0.05    1.05
Q19   1   0.4374 -0.0002  0.9848  11.00000  0.05    1.04
Q20   1   0.0201  0.2500  0.6202  10.50000  0.05    1.04
;
_shelx_res_checksum              82731
_shelx_hkl_file
;
   2   0   0    9.77    1.07
  -2   0   0   -0.18    0.90
  -2   0   0   12.45    2.32
   2   0   0   -0.62    1.40
   3   0   0    1.91    2.59
  -3   0   0    0.63    1.41
  -3   0   0    2.27    2.91
   3   0   0    2.86    3.36
   4   0   0   54.09    3.85
  -4   0   0   41.89    3.76
  -4   0   0   42.86    5.50
   4   0   0   40.41    4.81
   5   0   0    4.51    3.78
  -5   0   0    4.18    4.28
  -5   0   0    6.18    3.95
   5   0   0   10.16    6.89
  -6   0   0 2313.69   77.79
  -6   0   0 2213.89   75.38
   6   0   0 2110.68   72.06
   7   0   0    3.28    2.67
  -7   0   0    0.64    2.94
  -7   0   0    3.33    5.69
  -8   0   0 6600.17  232.43
  -9   0   0    1.47    2.51
  -9   0   0   -2.64    6.65
 -12   0   0   31.28    6.54
 -13   0   0    1.82    6.23
 -13   0   0    0.99    4.68
 -14   0   0 2821.52   97.33
 -14   0   0 3309.26  115.12
 -15   0   0    3.02    5.31
 -16   0   0 1086.63   41.15
 -16   0   0 1127.89   43.31
 -17   0   0    4.06    8.30
 -17   0   0   -0.64    8.07
 -18   0   0  254.36   18.86
 -18   0   0  264.47   44.67
 -19   0   0    0.35    4.35
 -19   0   0   -3.37    7.92
 -20   0   0    2.46    3.75
 -20   0   0    4.42    8.55
 -21   0   0    2.00    4.47
 -21   0   0    2.34   11.12
 -23   0   0    3.74    8.73
 -25   0   0    0.02   15.11
   1   1   0   -0.28    0.97
  -1  -1   0   -0.87    1.05
  -1   1   0   -1.61    1.38
   1  -1   0   -1.10    1.02
  -1   1   0   -0.08    0.81
   1  -1   0   -0.32    0.77
  -1  -1   0   -0.86    1.34
   1   1   0   -0.61    1.00
  -2  -1   0   -0.46    1.28
   2  -1   0    0.54    2.07
   2  -1   0   -0.41    1.49
   2   1   0   -0.77    1.86
   3   1   0    0.86    2.07
  -3  -1   0    1.27    1.10
  -3   1   0    1.92    3.05
   3  -1   0    1.42    2.62
  -3   1   0    2.10    2.30
   3  -1   0    0.49    2.02
  -3  -1   0    3.00    3.90
   3   1   0    5.02    5.05
   4   1   0 4119.67  137.12
   5   1   0    4.95    3.81
  -5  -1   0    2.00    2.56
  -5   1   0    3.21    3.92
  -5   1   0    3.63    4.55
   5  -1   0    0.99    2.61
  -5  -1   0    6.00    6.50
   5   1   0    2.65    5.98
  -6   1   0  498.25   16.55
  -6  -1   0  444.03   13.61
  -6   1   0  449.02   13.05
  -6   1   0  434.05   16.44
   6  -1   0  390.73   11.98
  -6  -1   0  443.53   14.72
   6   1   0  421.49   13.68
  -7   1   0    0.48    2.20
   7   1   0   -0.85    3.63
  -7  -1   0   -1.06    3.02
  -7   1   0    0.86    3.37
  -7   1   0   -0.26    2.88
  -7  -1   0    0.43    4.54
  -8   1   0  258.77   13.33
   8   1   0  234.73   12.56
  -8  -1   0  243.64   11.05
  -8   1   0  244.23   12.27
  -8   1   0  232.66   18.03
  -8  -1   0  240.05   21.50
   9   1   0    2.47    2.94
  -9  -1   0   -0.66    2.68
  -9   1   0   -2.08    3.66
  -9  -1   0   -1.03    7.31
  10   1   0 2786.83   94.54
 -10   1   0 3064.14  110.17
 -10  -1   0 3003.56  109.52
  11   1   0    0.23   32.48
 -11   1   0   -2.25    4.67
 -11  -1   0   -2.12   36.25
 -12   1   0 3146.42  111.90
 -12   1   0 2908.19  104.93
 -12  -1   0 3075.82  110.81
 -13   1   0    4.22    6.23
 -13   1   0  -11.97    9.45
 -13  -1   0   -0.89    9.45
 -14   1   0  963.94   37.92
 -14   1   0  960.84   39.00
 -14  -1   0  944.02   39.87
 -15   1   0    0.41    5.35
 -15  -1   0    3.25    7.33
 -15   1   0    2.02    5.49
 -15  -1   0    4.39    6.90
 -16   1   0   94.36   11.11
 -16  -1   0   97.75   13.74
 -16   1   0  100.51   15.06
 -16  -1   0  112.48   32.31
 -17   1   0   -0.70    5.41
 -17  -1   0    0.83    5.56
 -17   1   0   -1.00    8.30
 -17  -1   0    1.63    6.57
 -18   1   0  501.15   28.34
 -18  -1   0  519.20   28.23
 -18   1   0  538.19   30.82
 -18  -1   0  522.04   35.24
 -19   1   0    0.51    4.52
 -19  -1   0    1.25    4.75
 -19   1   0    3.91    5.90
 -19  -1   0    1.88    6.90
 -20   1   0  737.79   56.17
 -20  -1   0  758.72   57.16
 -20   1   0  823.64   65.89
 -20  -1   0  710.44   63.06
 -21   1   0    1.96    4.97
 -21  -1   0    5.35    8.24
 -21   1   0    3.87   11.02
 -21  -1   0   -5.55    9.81
 -22  -1   0  919.91   58.39
 -23   1   0   -0.26    9.92
 -23  -1   0   -1.51   10.54
 -24   1   0   13.90   17.40
 -24  -1   0    4.53    9.05
 -25   1   0    5.50   15.92
 -25  -1   0    1.00    8.70
 -26  -1   0  149.08   18.88
   1   2   0    1.00    2.90
  -1  -2   0    2.46    2.48
  -1   2   0    3.92    4.15
   1  -2   0   -0.02    2.86
   1  -2   0    0.43    1.14
  -1  -2   0    3.95    3.46
   1   2   0    2.03    2.50
   1  -2   0    4.68    2.62
   3   2   0   -1.39    3.46
  -3  -2   0    0.29    1.61
  -3   2   0   -0.70    3.82
   3  -2   0   -0.41    2.91
  -3   2   0   -0.04    2.67
   3  -2   0    1.30    1.31
  -3  -2   0    0.61    3.55
   3   2   0   -1.28    3.78
   4   2   0   72.57    8.98
  -4  -2   0   72.79    7.38
  -4   2   0   79.22    8.71
   4  -2   0   71.13    6.33
  -4   2   0   75.85    6.01
   4  -2   0   71.86    6.81
  -4  -2   0   75.23    8.79
   4   2   0   77.64    9.25
   5   2   0   -0.57    3.38
  -5  -2   0    1.86    2.54
  -5   2   0    4.29    6.53
   5  -2   0    0.46    3.04
  -5   2   0   -0.37    3.62
   5  -2   0   -0.28    2.65
  -5  -2   0    4.72    8.78
   5   2   0    0.66    4.34
  -6  -2   0   34.29    4.27
  -6   2   0   38.13    5.14
  -6   2   0   40.73    5.16
   6  -2   0   32.08    3.68
  -6  -2   0   37.45    8.86
   7   2   0    0.40    2.52
  -7  -2   0    0.25    1.81
  -7   2   0    2.34    3.45
   7  -2   0    1.37    3.90
  -7   2   0    2.95    3.32
  -7  -2   0    3.38    5.75
   8   2   0  947.22   34.05
  -8   2   0  934.28   33.92
  -8  -2   0 1035.30   38.81
   9   2   0    0.73    1.84
  -9   2   0   -1.33    4.15
  -9  -2   0    1.58    4.78
  10   2   0 1833.82   63.90
 -10   2   0 1875.68   65.27
 -10   2   0 1859.96   65.80
 -10  -2   0 1949.87   69.68
  11   2   0    1.64    5.27
 -11   2   0   -1.11    4.55
 -11   2   0   -2.04    7.79
 -11  -2   0   -0.73    9.05
  12   2   0  210.96   13.99
 -12   2   0  217.36   14.75
 -12   2   0  212.58   16.29
 -12  -2   0  227.66   16.16
  13   2   0    1.08    3.48
 -13   2   0    0.94    5.66
 -13   2   0    2.92    5.60
 -13  -2   0   -0.45    7.66
  14   2   0  421.46   24.47
 -14   2   0  449.00   22.28
 -14   2   0  453.76   35.03
 -14  -2   0  441.96   39.30
  15   2   0    0.81    1.90
 -15   2   0    0.41    5.66
 -15   2   0   -0.50    7.93
 -15  -2   0    4.26    7.07
 -16   2   0  114.44   15.51
 -16   2   0  112.90   14.10
 -16  -2   0  107.72   20.40
 -17   2   0    0.79    5.61
 -17   2   0    1.71    4.34
 -17  -2   0    3.23    3.61
 -18   2   0   46.07    8.94
 -18  -2   0   39.88    8.73
 -18   2   0   50.53   24.60
 -18  -2   0   43.56   21.91
 -19   2   0    1.20    4.91
 -19  -2   0    2.38    6.27
 -19   2   0    3.94   10.44
 -19  -2   0    0.44    5.03
 -20   2   0  159.65   16.40
 -20  -2   0  175.01   14.93
 -20   2   0  188.64   59.82
 -20  -2   0  162.20   39.81
 -21   2   0    0.37    3.29
 -21  -2   0   -1.38    4.42
 -21   2   0    2.07    9.23
 -21  -2   0    0.44    5.49
 -22   2   0  164.98   18.88
 -22   2   0  177.00   43.65
 -22  -2   0  174.35   55.18
 -23   2   0    3.95    7.44
 -23  -2   0    2.58    6.88
 -25   2   0    1.88    7.26
 -25  -2   0    1.20    8.98
 -26   2   0  104.27   31.08
 -26  -2   0   81.38   52.07
   0   3   0    8.94    5.59
   0  -3   0    8.44    2.92
   0  -3   0   10.00    3.55
   0   3   0   12.42    3.12
   1   3   0    2.78    3.72
  -1  -3   0    2.68    2.83
  -1   3   0    5.63    6.39
   1  -3   0    4.95    4.38
  -1  -3   0    3.80    5.60
   1   3   0    5.26    3.63
   1  -3   0    3.26    4.12
  -1   3   0    4.26    2.47
   3   3   0    5.04    5.22
  -3  -3   0    4.26    6.62
  -3   3   0   14.26    9.34
   3  -3   0    9.99    6.52
  -3   3   0    4.21    3.86
   3  -3   0    1.39    3.13
  -3  -3   0    9.54   12.22
   3   3   0    7.25    4.82
   4   3   0 2059.51   43.55
  -4  -3   0 2019.74   42.88
  -4   3   0 2058.52   44.25
   4  -3   0 1943.09   41.41
  -4   3   0 1967.30   41.25
   4  -3   0 2065.43   43.20
  -4  -3   0 2118.88   72.71
   4   3   0 2037.22   44.00
   5   3   0    2.15    3.53
  -5  -3   0    2.21    3.02
  -5   3   0    4.03    5.34
   5  -3   0    1.13    3.64
  -5   3   0    4.39    3.19
   5  -3   0    2.26    3.08
  -5  -3   0   -0.44    6.73
  -6  -3   0   77.74    7.47
  -6   3   0   77.59    7.42
   6  -3   0   77.38   10.92
  -6  -3   0   84.41   16.71
   7   3   0   -0.05    3.72
  -7  -3   0    0.83    2.01
  -7   3   0    3.05    5.86
   7  -3   0   -0.51    2.98
  -7  -3   0   -0.23    5.48
   8   3   0   13.90    8.19
  -8   3   0   15.80    6.34
  -8   3   0   16.52   11.19
  -8  -3   0   16.67    7.79
   9   3   0    2.42    2.96
  -9   3   0   -0.41    5.08
  -9   3   0    1.19    3.23
  -9  -3   0    1.39    5.83
  10   3   0 3940.33  140.55
 -10   3   0 3920.29  140.37
 -10   3   0 4138.23  147.03
 -10  -3   0 4008.49  142.44
  11   3   0    1.35    3.23
 -11   3   0  -53.42    7.37
 -11   3   0  -26.23    8.74
 -11  -3   0    2.75    7.48
  12   3   0 9999.99  332.65
  13   3   0    3.23    5.18
 -13   3   0  -21.57   10.22
 -13  -3   0    1.60    4.23
  14   3   0 2767.97   95.75
 -14   3   0 2834.01   98.71
 -14   3   0 2786.73  101.19
 -14  -3   0 2730.47   97.03
  15   3   0    7.71   11.04
 -15   3   0    0.25    3.17
 -15   3   0  -14.33    7.55
 -15  -3   0    1.96    6.34
  16   3   0   26.64   20.37
 -16   3   0   28.56    8.50
 -16   3   0   45.38   26.60
 -16  -3   0   33.54   19.26
  17   3   0    0.26    2.43
 -17   3   0   -1.58    6.16
 -17   3   0   -4.20    9.45
 -17  -3   0    4.18    7.08
  18   3   0  612.93   31.35
 -18   3   0  665.62   33.86
 -18   3   0  679.88   41.56
 -18  -3   0  627.60   41.45
 -19   3   0   -3.00    5.37
 -19   3   0    5.23    6.38
 -19  -3   0    0.12    4.55
 -20   3   0 2943.63  114.18
 -20  -3   0 2880.01  111.34
 -20   3   0 3172.35  320.92
 -20  -3   0 2942.21  117.69
 -21   3   0   -1.76    5.94
 -21  -3   0    9.20    5.05
 -21   3   0   -0.19   10.59
 -21  -3   0    8.06    5.72
 -22  -3   0 3291.38  189.88
 -23   3   0   -1.39    8.38
 -23  -3   0    8.08   11.20
 -24   3   0  339.71   31.23
 -24  -3   0  276.05   69.99
 -25   3   0    4.80   11.05
 -25  -3   0    5.65   11.26
   0  -4   0 2437.12   83.07
   0  -4   0 2466.15   83.71
   0   4   0 2350.28   79.05
   1   4   0    2.64    3.61
  -1  -4   0    3.67    7.62
  -1   4   0    0.83    3.61
   1  -4   0    8.89    7.19
  -1  -4   0   10.08    9.95
   1   4   0    4.42    5.27
   1  -4   0    6.24    6.43
  -1   4   0    3.70    4.55
  -2  -4   0 1915.38   41.36
  -2   4   0 2041.96   44.90
   2  -4   0 1903.06   41.93
  -2  -4   0 1967.80   42.69
   2   4   0 1992.96   42.75
   2  -4   0 2025.86   43.03
   3   4   0    1.06    2.46
  -3  -4   0    2.26    4.65
  -3   4   0    1.13    7.40
   3  -4   0    1.12    4.65
  -3   4   0   -0.74    4.26
   3  -4   0    2.35    4.19
  -3  -4   0   -1.21    6.07
   3   4   0   -0.18    4.35
   4   4   0  498.23   15.04
  -4  -4   0  485.99   18.23
  -4   4   0  518.25   16.76
   4  -4   0  475.70   14.52
   4  -4   0  546.21   17.33
  -4  -4   0  513.01   23.12
   5   4   0    0.21    2.52
  -5  -4   0   -0.22    2.56
  -5   4   0    3.10    7.88
   5  -4   0    1.51    2.08
  -5  -4   0   -1.30    5.92
  -6   4   0   71.80    6.94
  -6   4   0   91.93   12.44
  -6  -4   0   70.15    9.02
   7   4   0    0.28    1.98
  -7   4   0   -0.32    5.70
  -7   4   0    1.85    2.77
  -7  -4   0   -2.94    6.32
   8   4   0 1346.31   47.95
  -8   4   0 1395.23   50.08
  -8   4   0 1396.44   50.15
  -8  -4   0 1384.03   51.05
   9   4   0    1.69    2.88
  -9   4   0   -0.30   11.72
  -9   4   0    1.50    6.03
  -9  -4   0   -2.23    6.36
  10   4   0  775.86   31.73
 -10   4   0  799.31   33.31
 -10   4   0  828.45   33.53
 -10  -4   0  824.93   35.94
  11   4   0    1.10    3.03
 -11   4   0   -1.89    8.25
 -11   4   0    1.23    7.90
 -11  -4   0    5.39    9.50
  12   4   0  206.23   12.64
 -12   4   0  231.35   16.00
 -12   4   0  236.02   17.55
 -12  -4   0  212.08   18.41
  13   4   0    3.33    6.00
 -13   4   0   -2.54    6.29
 -13   4   0    2.18    5.73
 -13  -4   0    2.36    9.15
  14   4   0   10.16    4.96
 -14   4   0    9.14    8.04
 -14   4   0   16.58    8.09
 -14  -4   0    5.78    7.09
  15   4   0    1.88    3.42
 -15   4   0    0.45    6.24
 -15   4   0    2.12    3.11
 -15  -4   0    2.78    4.94
  16   4   0   90.61   17.72
 -16   4   0   99.30   14.68
 -16   4   0  119.63   36.80
 -16  -4   0  102.05   26.79
  17   4   0    2.05    3.39
 -17   4   0    1.42    6.79
 -17   4   0    4.78    3.70
 -17  -4   0    4.49    8.55
  18   4   0  265.23   21.47
 -18   4   0  263.89   21.72
 -18   4   0  286.35   28.65
 -18  -4   0  234.75   23.44
  19   4   0   -0.10    5.21
 -19   4   0   -0.01    5.57
 -19   4   0    4.10    7.81
 -19  -4   0    3.14    9.51
  20   4   0    6.62    6.11
 -20   4   0   13.60    6.92
 -20   4   0   11.53    6.33
 -20  -4   0   13.40   11.09
 -21   4   0    5.19    8.82
 -21   4   0    4.53    7.14
 -21  -4   0   -0.10    6.36
 -22   4   0  261.49   61.37
 -22  -4   0  212.05   22.34
 -23   4   0    3.16    6.55
 -23  -4   0    0.26    8.39
 -24   4   0  345.25   36.96
 -24  -4   0  338.46   43.71
 -25   4   0   -0.24    9.39
 -25  -4   0    3.48    5.47
   0   5   0   -0.86    7.84
   0  -5   0    0.06    5.42
   0   5   0   -0.25    3.56
   1   5   0    2.97    4.38
  -1   5   0   -0.35    5.61
  -1  -5   0    3.23    4.86
   1   5   0    1.99    3.50
   1  -5   0    0.74    4.25
   2  -5   0 7312.56  242.84
   3   5   0    1.17    6.22
  -3   5   0    3.87    9.08
   3  -5   0    0.69    1.97
  -3  -5   0    0.62    3.47
   3  -5   0    1.12    3.72
   4   5   0  752.33   29.20
  -4   5   0  797.41   31.93
   4  -5   0  881.84   32.65
  -4  -5   0  853.17   32.84
   5   5   0    2.03    4.12
  -5   5   0   -0.69    6.56
  -5   5   0    1.56    1.99
  -5  -5   0    1.28    4.20
  -6   5   0  357.45   18.07
  -6   5   0  341.00   18.71
  -6  -5   0  369.92   19.38
   7   5   0    0.50    4.88
  -7   5   0    2.01    5.53
  -7   5   0    1.84    2.77
  -7  -5   0    4.93    6.70
   8   5   0   58.56    6.54
  -8   5   0   55.84   15.84
  -8   5   0   60.12    7.03
  -8  -5   0   54.45    9.26
   9   5   0   -1.02    5.35
  -9   5   0    1.18    7.48
  -9   5   0    0.66    4.61
  -9  -5   0    4.82    6.11
  10   5   0 1523.47   57.33
 -10   5   0 1565.05   59.25
 -10   5   0 1536.78   57.30
 -10  -5   0 1545.37   59.60
  11   5   0    5.49    4.69
 -11   5   0   -2.04   10.23
 -11   5   0    4.01    3.25
 -11  -5   0   -1.97   10.28
  12   5   0 5232.86  155.68
 -12   5   0 5039.33  149.89
 -12   5   0 5460.59  161.95
 -12  -5   0 5558.33  167.33
  13   5   0    1.15    3.18
 -13   5   0   -4.95    6.46
 -13   5   0    0.72    4.12
 -13  -5   0   -0.98   10.21
  14   5   0  100.65   10.78
 -14   5   0  107.89   12.91
 -14   5   0  111.76   17.09
 -14  -5   0  116.89   19.10
  15   5   0   -1.69    5.28
 -15   5   0    0.36    6.16
 -15   5   0   -1.16    6.63
 -15  -5   0    3.28    6.56
  16   5   0  149.82   11.86
 -16   5   0  159.27   31.45
 -16   5   0  194.68   25.66
 -16  -5   0  170.49   43.20
  17   5   0    1.46    2.42
 -17   5   0   -1.75    6.61
 -17   5   0    2.66    5.72
 -17  -5   0   -0.01   10.19
  18   5   0  131.02   13.73
 -18   5   0  135.75   15.34
 -18   5   0  140.86   17.37
 -18  -5   0  149.57   29.37
  19   5   0    3.15    4.82
 -19   5   0   -3.43    5.65
 -19   5   0   -1.08    7.46
 -19  -5   0    2.45    7.02
  20   5   0  589.25   62.56
 -20   5   0  669.80   70.91
 -20   5   0  700.60   77.41
 -20  -5   0  579.96   65.99
  21   5   0    1.49    6.45
 -21   5   0   -5.91    6.17
 -21   5   0    2.15    4.78
 -21  -5   0    0.82    5.97
 -22   5   0 1186.16   73.99
 -22  -5   0 1095.93   69.19
 -23   5   0    4.84    5.86
 -23  -5   0    5.96    6.32
 -24   5   0    3.61   10.59
 -24  -5   0    6.47    9.38
 -25   5   0    2.70    6.72
 -25  -5   0    4.20    5.21
   1   6   0    2.49    5.46
  -1   6   0    3.18    7.68
  -1  -6   0    6.71    7.43
   1  -6   0    4.54    6.25
   3   6   0   -1.54    5.85
  -3   6   0    6.79   10.64
  -3  -6   0    1.75    1.75
   3  -6   0    0.26    4.06
   4   6   0   25.36    6.52
  -4   6   0    9.95    7.41
  -4  -6   0   15.77    9.03
   4  -6   0   12.57    4.99
   5   6   0    0.22    3.30
  -5   6   0   -2.45    7.75
  -5   6   0    2.00    4.84
  -5  -6   0    2.09    6.85
  -6   6   0 3214.43  115.33
  -6  -6   0 3390.63  124.13
   7   6   0    2.71    4.50
  -7   6   0    2.94   10.26
  -7   6   0    3.19    5.02
  -7  -6   0   -1.44    7.32
   8   6   0 5929.30  207.46
  -8   6   0 6170.32  216.41
   9   6   0   12.46    8.87
  -9   6   0    1.08    5.06
  -9   6   0    1.92    5.34
  -9  -6   0    0.93    7.30
  10   6   0 5263.94  177.71
 -10   6   0 4846.31  171.48
 -10   6   0 4940.61  166.58
 -10  -6   0 4473.72  159.65
  11   6   0    0.47    3.63
 -11   6   0   -2.43   12.79
 -11   6   0    1.47    3.85
 -11  -6   0    0.82    9.22
  12   6   0  149.05   11.86
 -12   6   0  150.95   15.57
 -12   6   0  152.25   20.74
 -12  -6   0  164.55   18.48
  13   6   0    4.24    6.98
 -13   6   0   -3.27    6.82
 -13   6   0    1.74    3.67
 -13  -6   0    2.26   10.23
 -14  -6   0 1605.31   60.01
  15   6   0    2.73    6.01
 -15   6   0   -0.41    6.59
 -15   6   0   -6.61    6.61
 -15  -6   0    7.31   17.22
  16   6   0 1893.39   78.57
 -16   6   0 2046.95   85.86
 -16   6   0 2107.13   89.59
 -16  -6   0 2014.11   86.17
  17   6   0    2.82    3.67
 -17   6   0   -3.25    6.97
 -17   6   0   -0.32    6.52
 -17  -6   0   -1.90   11.22
  18   6   0  104.48   14.77
 -18   6   0   94.45   16.12
 -18   6   0  107.98   16.19
 -18  -6   0  101.70   18.31
  19   6   0    2.81    3.35
 -19   6   0    4.39    6.45
 -19   6   0    4.07    8.59
 -19  -6   0   -2.36    7.42
  20   6   0   16.73   12.52
 -20   6   0   16.35    9.87
 -20   6   0   21.94   13.35
 -20  -6   0   16.27    7.86
 -21   6   0    0.33    6.81
 -21   6   0   -2.64    7.42
 -21  -6   0    3.29    9.09
 -22   6   0 1340.77  102.50
 -22  -6   0 1258.28  100.96
 -23   6   0   -2.75    7.68
 -23  -6   0    4.78   11.00
 -24   6   0 2083.50  151.27
 -24  -6   0 1779.00  113.23
   0   7   0   -2.03    7.47
   0  -7   0    0.92    7.90
   1   7   0   -2.21    6.58
  -1   7   0    3.19    4.64
  -1  -7   0   -0.15    5.51
   1  -7   0    0.39    5.21
   2   7   0  490.86   26.21
  -2   7   0  532.49   25.14
  -2  -7   0  518.49   21.77
   2  -7   0  512.75   21.62
   3   7   0    0.89    4.24
  -3   7   0    0.33    8.43
  -3  -7   0    1.13    6.29
   3  -7   0    2.85    4.53
   4   7   0 1471.05   53.31
  -4   7   0 1548.07   57.18
   4  -7   0 1492.21   53.14
   5   7   0    3.47    4.65
  -5   7   0    2.74    8.42
  -5  -7   0    5.68    9.84
   5  -7   0    0.97    4.28
  -6   7   0 1190.09   47.76
  -6   7   0 1241.99   47.48
  -6  -7   0 1115.11  118.02
   7   7   0    3.55    4.51
  -7   7   0    2.30   10.07
  -7   7   0    1.09    3.39
  -7  -7   0    3.20   10.16
  -8   7   0  957.60   40.53
  -8   7   0  951.38   37.13
  -8  -7   0  982.29   42.65
   9   7   0    0.84    5.28
  -9   7   0   -2.80   10.87
  -9   7   0    1.10    2.59
  -9  -7   0    0.63    8.37
 -10   7   0 2338.62   83.25
 -10   7   0 2236.20   78.44
 -10  -7   0 2327.48   84.68
  11   7   0   -0.52    6.63
 -11   7   0   -0.42   12.64
 -11   7   0   -0.06    6.43
 -11  -7   0    7.54   10.14
  12   7   0 1726.30   56.91
 -12   7   0 1760.24   59.09
 -12   7   0 1697.13   67.17
 -12  -7   0 1556.73   55.86
  13   7   0    1.46    5.25
 -13   7   0   -3.29    7.97
 -13   7   0    2.51    5.51
 -13  -7   0    3.77   10.04
  14   7   0  407.03   19.74
 -14   7   0  453.93   23.84
 -14   7   0  438.28   23.23
 -14  -7   0  465.23   31.33
  15   7   0    2.34    6.77
 -15   7   0   -0.09    5.39
 -15   7   0    0.38    3.46
 -15  -7   0    5.29   11.04
  16   7   0  100.93   10.75
 -16   7   0   80.70   26.46
 -16   7   0   95.99   22.21
 -16  -7   0   97.91   16.66
  17   7   0    3.65    3.99
 -17   7   0    0.10    6.35
 -17   7   0   -0.17    4.90
 -17  -7   0   -0.77    7.53
  18   7   0  957.81   42.08
 -18   7   0 1011.77   46.76
 -18   7   0  965.06   50.61
 -18  -7   0  966.05   64.35
  19   7   0    0.79    4.41
 -19   7   0   -3.40    6.56
 -19   7   0    3.45    5.18
 -19  -7   0   -0.78    5.27
 -20   7   0 1308.90   71.54
 -20   7   0 1253.00   69.20
 -20  -7   0 1240.16   73.04
 -21   7   0   -5.74    6.36
 -21   7   0    2.79    4.44
 -21  -7   0    1.22    9.53
 -22   7   0  298.04   23.22
 -22  -7   0  235.29   56.84
 -23   7   0   -0.85    3.52
 -23  -7   0    5.67    8.63
 -24   7   0   22.47   28.98
 -24  -7   0   29.40   22.39
   0   8   0 3529.76  128.34
   0  -8   0 2846.93  103.27
   1   8   0    2.57    5.91
  -1   8   0    4.04    7.66
  -1  -8   0    3.36    5.49
   1  -8   0    2.26    5.68
   2   8   0  309.91   18.37
  -2   8   0  318.08   19.41
  -2  -8   0  326.05   16.31
   2  -8   0  321.50   16.99
   3   8   0    1.21    8.62
  -3   8   0   -0.44    8.55
  -3  -8   0   -0.36    6.17
   3  -8   0    4.20    6.73
   4   8   0  105.89   10.21
  -4   8   0  111.81   11.70
  -4  -8   0  117.94   11.99
   4  -8   0  115.72    9.47
   5   8   0    0.38    5.97
  -5   8   0    2.70    8.17
  -5  -8   0    5.66    4.15
   5  -8   0    1.69    4.81
   6   8   0   18.68   22.31
  -6   8   0   14.52    9.17
  -6  -8   0   21.45    6.96
   6  -8   0   19.41    5.26
   7   8   0    3.09    6.32
  -7   8   0    2.79    8.55
  -7  -8   0    3.37    7.42
   8   8   0  528.85   24.89
  -8   8   0  506.36   24.94
  -8   8   0  515.83   22.58
  -8  -8   0  498.15   26.70
   9   8   0    4.53    4.06
  -9   8   0   -3.19   10.88
  -9   8   0    1.22    2.75
  -9  -8   0   -1.21    8.83
  10   8   0 1829.29   60.14
 -10   8   0 1752.85   59.93
 -10   8   0 1740.39   56.71
 -10  -8   0 1776.47   63.21
  11   8   0    1.39    4.75
 -11   8   0    3.70    8.63
 -11   8   0    3.44    7.64
 -11  -8   0    5.23    8.98
  12   8   0   16.49    8.03
 -12   8   0   20.62    9.87
 -12   8   0   22.84    8.49
 -12  -8   0   10.41   10.98
  13   8   0    4.08    7.06
 -13   8   0    0.90    8.26
 -13   8   0   -0.36    6.12
 -13  -8   0    1.65   12.04
  14   8   0  577.01   26.50
 -14   8   0  650.08   31.94
 -14   8   0  590.83   30.49
 -14  -8   0  595.51   33.89
  15   8   0    3.09    3.03
 -15   8   0    1.63    8.29
 -15   8   0    2.48    4.08
  16   8   0   30.98   14.72
 -16   8   0   21.91    9.07
 -16   8   0   34.06   16.13
 -16  -8   0   33.28   21.64
  17   8   0    3.53    4.33
 -17   8   0    0.09    3.21
 -17   8   0    0.53    5.50
 -17  -8   0    4.93   11.60
  18   8   0  109.83   33.61
 -18   8   0  129.00   16.11
 -18   8   0  129.35   15.46
 -18  -8   0  134.25   22.52
  19   8   0    2.11    4.84
 -19   8   0    0.09    7.38
 -19   8   0    1.68    3.68
 -19  -8   0    3.84   11.64
  20   8   0  167.30   23.77
 -20   8   0  184.93   48.08
 -20   8   0  183.21   17.38
 -20  -8   0  191.05   75.85
 -21   8   0    5.25    9.39
 -21   8   0   -2.23    5.70
 -21  -8   0   -1.05   11.35
 -22   8   0  118.20   21.05
 -22   8   0  116.03   21.54
 -22  -8   0  111.02   38.95
 -23   8   0   -1.89    5.61
 -23  -8   0   -1.30   11.90
   0   9   0    2.86    7.83
   0  -9   0    0.98    5.86
   1   9   0    4.01    8.10
  -1   9   0    0.71    7.65
  -1  -9   0    4.46    6.40
   1  -9   0   -1.83    5.73
   2   9   0 1563.05   60.23
  -2   9   0 1537.62   59.62
  -2  -9   0 1471.64   55.51
   2  -9   0 1587.38   59.73
   3   9   0    0.89    4.98
  -3   9   0   -2.13    8.56
  -3  -9   0   -0.46    6.52
   3  -9   0    2.33    5.10
   4   9   0 2584.90   94.71
  -4   9   0 2560.82   94.67
  -4  -9   0 2543.21   92.79
   4  -9   0 2610.47   94.21
   5   9   0    1.33    6.72
  -5   9   0   -0.36    9.32
  -5  -9   0    1.63    4.58
   5  -9   0   -0.86    4.50
   6   9   0  533.63   25.06
  -6   9   0  503.32   28.46
  -6  -9   0  525.86   25.75
   6  -9   0  522.69   23.37
   7   9   0    3.55    4.27
  -7   9   0    1.34   11.17
  -7  -9   0   -1.67    8.43
   7  -9   0    3.59    6.59
   8   9   0  115.12   15.83
  -8   9   0  108.46   15.46
  -8  -9   0  108.71   14.19
   9   9   0    5.51    8.65
  -9   9   0   -1.45   11.93
  -9   9   0    2.13    5.47
  -9  -9   0    1.74    9.59
  10   9   0 2546.55   81.77
 -10   9   0 2552.99   83.14
 -10   9   0 2525.86   81.26
 -10  -9   0 2676.50   88.47
  11   9   0    3.68   11.58
 -11   9   0   -1.71   13.08
 -11   9   0    1.81    5.88
 -11  -9   0    6.03    8.89
  12   9   0 4187.72  142.61
 -12   9   0 4353.61  145.96
 -12   9   0 4140.40  136.72
 -12  -9   0 4109.62  138.85
  13   9   0    2.44    4.97
 -13   9   0   -3.83   16.55
 -13   9   0    1.85    4.47
 -13  -9   0    5.92   13.29
  14   9   0 2467.76  101.23
 -14   9   0 2467.61  102.80
 -14   9   0 2401.73   98.17
 -14  -9   0 2536.89  108.26
  15   9   0    2.56    2.84
 -15   9   0   -2.63    8.58
 -15   9   0    1.30    4.21
 -15  -9   0   -4.37   10.37
  16   9   0   10.83    7.19
 -16   9   0   14.25    9.02
 -16   9   0   12.74    5.97
 -16  -9   0    5.30   10.00
  17   9   0    0.88    3.88
 -17   9   0   -0.19    6.85
 -17   9   0    1.42    4.86
 -17  -9   0    4.54   12.37
  18   9   0  816.98   84.73
 -18   9   0  862.95   90.93
 -18   9   0  840.64   88.20
 -18  -9   0  992.79  105.33
  19   9   0    3.45    5.28
 -19   9   0   -2.20    8.33
 -19   9   0   -4.21    6.09
 -19  -9   0    1.38    6.34
 -20   9   0 2484.52  106.06
 -20   9   0 2319.08  163.83
 -20  -9   0 2454.52  180.12
 -21   9   0   -4.58    7.54
 -21   9   0   -1.60    5.83
 -21  -9   0    1.49    8.80
 -22  -9   0 1592.97  112.33
 -23  -9   0    4.52    9.50
   0  10   0  320.59   18.94
   0 -10   0  334.66   17.99
   1  10   0    1.92    6.74
  -1  10   0    3.09    6.80
  -1 -10   0    2.50    5.76
   1 -10   0    4.97    5.73
   2  10   0 1709.77   64.09
  -2  10   0 1641.11   61.78
  -2 -10   0 1645.01   65.49
   2 -10   0 1667.71   60.97
   3  10   0    2.36    6.27
  -3  10   0    3.60    7.06
  -3 -10   0   -1.87    7.49
   3 -10   0   -2.78    5.76
   4  10   0  922.47   48.29
  -4  10   0  892.46   38.22
  -4 -10   0  888.78   36.69
   4 -10   0  905.12   35.89
   5  10   0   -1.16    9.40
  -5  10   0    5.02   15.25
  -5 -10   0    5.26   10.61
   5 -10   0   -0.58    5.61
   6  10   0  368.93   20.64
  -6  10   0  392.13   27.41
  -6 -10   0  384.62   20.90
   6 -10   0  378.21   19.59
   7  10   0    4.59    7.37
  -7  10   0   -1.11   12.70
  -7 -10   0    1.78   10.86
   7 -10   0    1.46    5.23
   8  10   0  975.92   37.33
  -8  10   0 1017.71   40.04
  -8 -10   0 1024.38   43.92
   8 -10   0 1005.22   36.30
   9  10   0    1.27    3.80
  -9  10   0   -1.18   11.81
  -9 -10   0    4.30    8.48
   9 -10   0    2.37    5.36
  10  10   0   76.74   20.87
 -10  10   0   77.11   14.09
 -10 -10   0   59.75   15.09
  11  10   0    1.98    5.20
 -11  10   0   -1.42   12.98
 -11  10   0    2.40    4.71
 -11 -10   0   -5.90    9.54
  12  10   0  230.23   17.10
 -12  10   0  226.88   20.16
 -12  10   0  218.25   23.07
 -12 -10   0  219.45   19.54
  13  10   0    0.94    4.40
 -13  10   0   -3.26   11.66
 -13  10   0   -0.16    4.55
 -13 -10   0    1.08   10.54
  14  10   0  178.32   22.87
 -14  10   0  193.35   20.23
 -14  10   0  188.23   29.10
 -14 -10   0  185.87   19.40
  15  10   0    2.35    4.03
 -15  10   0    2.14    9.90
 -15  10   0   -0.25    6.15
 -15 -10   0    3.65   10.48
  16  10   0  219.07   15.96
 -16  10   0  237.05   23.76
 -16  10   0  227.77   17.79
 -16 -10   0  216.42   23.56
  17  10   0    1.18    4.29
 -17  10   0    0.04    7.36
 -17  10   0   -1.51    5.29
 -17 -10   0    6.73   13.17
  18  10   0  197.34   21.77
 -18  10   0  202.80   27.41
 -18  10   0  189.86   15.65
 -18 -10   0  209.09   27.35
  19  10   0    2.61    5.98
 -19  10   0    4.73   11.90
 -19  10   0    1.17    3.58
 -19 -10   0   -1.19   11.08
  20  10   0   90.32   24.12
 -20  10   0  125.25   20.27
 -20  10   0  107.08   33.28
 -20 -10   0  109.47   44.59
 -21  10   0    0.94    8.31
 -21 -10   0   -2.38   13.17
 -22 -10   0  158.94   68.64
   0  11   0   10.28   11.08
   0 -11   0    4.38    8.93
   1  11   0    6.52   12.34
  -1  11   0   -2.88   11.19
  -1 -11   0   -2.21    7.63
   1 -11   0    0.11    6.47
   2  11   0 1519.48   54.45
  -2  11   0 1491.27   54.09
  -2 -11   0 1488.19   58.15
   2 -11   0 1527.68   51.17
   3  11   0    6.07    9.44
  -3  11   0   -0.13   12.11
  -3 -11   0    2.40    9.17
   3 -11   0    8.50   10.59
   4  11   0 1398.06   51.66
  -4  11   0 1358.16   48.95
  -4 -11   0 1332.90   46.59
   4 -11   0 1344.83   45.68
   5  11   0    1.74   10.00
  -5  11   0    5.59   16.83
  -5 -11   0    2.43    8.52
   5 -11   0   -1.88    6.02
   6  11   0  283.68   18.25
  -6  11   0  285.98   28.68
  -6 -11   0  272.59   17.68
   6 -11   0  294.02   17.27
   7  11   0    1.77    6.62
  -7  11   0   -2.18   11.38
  -7 -11   0    1.99    8.35
   7 -11   0    1.76    5.36
   8  11   0   17.66    9.22
  -8  11   0   18.13   14.71
  -8 -11   0   19.00   14.23
   8 -11   0   24.79    9.39
   9  11   0    4.34    7.87
  -9  11   0    9.17   16.14
  -9 -11   0    1.72    9.74
   9 -11   0    0.90    5.87
  10  11   0  838.12   36.00
 -10  11   0  787.27   37.08
 -10 -11   0  744.61   36.52
  10 -11   0  790.47   34.46
  11  11   0    3.20    9.44
 -11  11   0   -1.35   14.72
 -11 -11   0    8.93   10.36
  11 -11   0    5.08    8.39
  12  11   0 1892.38   86.67
 -12  11   0 1877.02   88.30
 -12 -11   0 1791.63   83.23
  13  11   0    1.70    5.19
 -13  11   0    3.54   10.56
 -13  11   0    2.43    7.80
 -13 -11   0    0.57    8.91
  14  11   0  221.99   25.14
 -14  11   0  223.41   21.67
 -14  11   0  217.17   21.13
 -14 -11   0  209.08   22.50
  15  11   0    2.98    3.97
 -15  11   0   -1.80   10.95
 -15  11   0   -0.27    5.92
 -15 -11   0   -0.84   11.84
  16  11   0  124.62   18.85
 -16  11   0  143.84   25.70
 -16  11   0  124.53   25.73
 -16 -11   0  106.50   20.39
  17  11   0    1.77    4.77
 -17  11   0    0.04    8.22
 -17  11   0   -1.13    4.93
 -17 -11   0    6.10    9.98
  18  11   0  157.50   17.04
 -18  11   0  186.30   27.22
 -18  11   0  140.83   31.27
 -18 -11   0  161.11   24.90
  19  11   0    1.48    4.70
 -19  11   0   -0.62    8.94
 -19  11   0    0.77    3.72
 -19 -11   0    6.22   11.07
 -20  11   0  313.13   28.27
 -20 -11   0  304.98   33.36
 -21  11   0    2.73    8.53
 -21 -11   0    0.63   16.88
   0 -12   0 8596.45  268.65
   1  12   0   11.13   18.32
  -1 -12   0   12.15   12.59
   2  12   0 2173.40   77.98
   3  12   0   -0.52   10.64
  -3  12   0    5.14   13.07
  -3 -12   0    3.08    9.30
   3 -12   0    9.08   11.84
   4  12   0  205.24   33.62
  -4  12   0  232.44   30.90
  -4 -12   0  196.42   17.25
   5  12   0   -2.51   10.60
  -5  12   0   -1.81   11.14
  -5 -12   0    0.55    5.68
   5 -12   0    5.26    6.12
   6  12   0 2157.21   77.54
  -6  12   0 2064.51   76.77
  -6 -12   0 2085.02   75.30
   7  12   0    8.78    9.08
  -7  12   0    2.84    7.73
  -7 -12   0   10.23   10.15
   7 -12   0    6.52    8.04
   8  12   0 4307.05  147.28
  -8  12   0 4293.39  188.39
  -8 -12   0 4122.67  138.89
   8 -12   0 4173.73  138.11
   9  12   0    4.94   10.34
  -9  12   0    4.90   50.57
  -9 -12   0    4.16   11.06
   9 -12   0    3.92    6.80
  10  12   0 1864.00   86.34
 -10  12   0 1747.00   82.30
 -10 -12   0 1697.55   79.56
  10 -12   0 1798.77   81.62
  11  12   0    3.92    8.99
 -11  12   0   -0.42   11.30
 -11 -12   0    6.03    9.64
  11 -12   0    1.79    5.89
  12  12   0   41.61   19.66
 -12  12   0   32.99    9.17
 -12 -12   0   41.29   14.02
  12 -12   0   35.47   10.77
  13  12   0    3.08    5.03
 -13  12   0   -2.19   10.65
 -13 -12   0    1.90   10.30
  13 -12   0    5.91   10.63
  14  12   0  434.20   55.30
 -14  12   0  470.94   55.80
 -14 -12   0  481.60   56.66
  15  12   0   -0.10    6.48
 -15  12   0    0.70   13.09
 -15 -12   0    4.08   12.53
  16  12   0 1217.44   72.10
 -16  12   0 1291.85   78.85
 -16  12   0 1231.51   71.70
 -16 -12   0 1350.20   81.59
  17  12   0    1.66    7.82
 -17  12   0   -1.33   12.04
 -17  12   0    1.93    4.06
 -17 -12   0    3.32   10.39
  18  12   0  479.24   32.38
 -18  12   0  540.48   36.46
 -18 -12   0  512.50   35.85
  19  12   0    2.73    3.90
 -19  12   0    4.25    8.71
 -19 -12   0   12.27   15.55
 -20  12   0  232.20   27.55
 -20 -12   0  226.50   23.36
   0  13   0    2.56    7.62
   0 -13   0    4.78    9.49
   1  13   0    4.81    6.47
  -1  13   0    7.39   13.17
  -1 -13   0   -1.78    8.51
   1 -13   0    0.73    8.38
   2  13   0    5.57    6.91
  -2  13   0   10.53    9.63
  -2 -13   0    4.73    9.44
   2 -13   0    8.97    8.92
   3  13   0    0.85    8.77
  -3  13   0   11.41   18.56
  -3 -13   0    2.48    5.99
   3 -13   0    3.86    6.87
   4  13   0 1481.66   58.58
  -4  13   0 1448.92   57.77
  -4 -13   0 1392.31   71.98
   4 -13   0 1399.95   51.95
   5  13   0    5.71    9.16
  -5  13   0    0.40   11.68
  -5 -13   0    3.01    4.50
   5 -13   0    5.91    8.17
   6  13   0  421.45   25.45
  -6  13   0  415.12   28.64
  -6 -13   0  403.05   24.54
   6 -13   0  443.66   24.28
   7  13   0   -0.20    8.20
  -7  13   0   -0.20    7.54
  -7 -13   0    3.16    7.31
   7 -13   0   -0.20    6.02
   8  13   0  950.07   50.49
  -8  13   0  878.28   59.78
  -8 -13   0  873.20   45.32
   8 -13   0  938.12   46.98
   9  13   0    5.22    4.06
  -9  13   0    1.35    7.72
  -9 -13   0    5.22   10.31
   9 -13   0    2.85    6.91
  10  13   0 1596.75  118.06
 -10  13   0 1554.73  116.76
 -10 -13   0 1482.81  114.91
  10 -13   0 1468.95  107.24
  11  13   0    2.10    5.36
 -11  13   0    0.14   12.89
 -11 -13   0    0.85   10.29
  11 -13   0    1.21    9.19
  12  13   0  468.01   57.49
 -12  13   0  453.35   53.76
 -12 -13   0  459.10   52.30
  12 -13   0  473.39   51.64
  13  13   0   -0.93    5.22
 -13  13   0   -0.05    7.32
 -13 -13   0    1.64   10.88
  13 -13   0    1.49    6.33
  14  13   0  773.49   45.58
 -14  13   0  796.54   48.41
 -14 -13   0  761.92   47.87
  14 -13   0  804.88   46.67
  15  13   0    3.38    3.33
 -15  13   0   -7.88   11.96
 -15 -13   0    8.72   17.55
  15 -13   0    3.86    6.66
  16  13   0   36.27   17.42
 -16  13   0   44.59   14.26
 -16 -13   0   32.42   13.26
  16 -13   0   34.54   10.34
  17  13   0    2.12    4.75
 -17  13   0   -4.24   10.41
 -17 -13   0    1.17   12.00
  18  13   0  794.70   49.95
 -18  13   0  858.83   56.67
 -18 -13   0  787.19   54.67
  19  13   0    1.70    7.34
 -19  13   0   10.80   14.19
 -19 -13   0    0.26    5.85
   0  14   0  347.18   29.18
   0 -14   0  334.71   23.19
   1  14   0    1.48    7.51
  -1  14   0    3.13   15.43
  -1 -14   0    3.20    7.30
   2  14   0  265.86   21.34
  -2  14   0  254.67   24.29
  -2 -14   0  253.74   21.99
   2 -14   0  266.93   18.82
   3  14   0    3.81   12.84
  -3  14   0   -0.36   11.38
  -3 -14   0    1.40   10.69
   3 -14   0   -0.50    6.25
   4  14   0    3.99    6.32
  -4  14   0    6.79   10.41
  -4 -14   0   -0.99    8.72
   4 -14   0    6.59    7.96
   5  14   0    1.90    6.33
  -5  14   0   -3.94    9.78
  -5 -14   0    0.69    4.79
   5 -14   0   -1.51    5.41
   6  14   0   81.16   15.23
  -6  14   0   83.64   16.01
  -6 -14   0   80.52   11.18
   6 -14   0   86.62   13.15
   7  14   0    3.77    6.44
  -7  14   0   -0.11   11.42
  -7 -14   0    3.01    7.54
   7 -14   0    0.44    5.98
   8  14   0  345.04   30.84
  -8  14   0  351.97   24.23
  -8 -14   0  327.30   23.55
   8 -14   0  349.97   22.03
   9  14   0    0.29    5.01
  -9  14   0   -0.33   11.12
  -9 -14   0    3.93   10.41
   9 -14   0    4.00    9.14
  10  14   0  282.83   43.00
 -10  14   0  299.99   46.95
 -10 -14   0  307.42   36.69
  10 -14   0  286.71   34.43
  11  14   0    3.36    6.78
 -11  14   0   -4.15   17.26
 -11 -14   0    5.61   13.73
  11 -14   0   -0.47    5.95
  12  14   0   25.35   13.03
 -12  14   0   23.19   21.68
 -12 -14   0   24.67   16.58
  12 -14   0   24.17    7.74
  13  14   0   -0.12    7.22
 -13  14   0   -1.27   10.70
 -13 -14   0    5.99   10.38
  13 -14   0   -0.47    6.03
  14  14   0  155.31   17.88
 -14  14   0  187.73   26.54
 -14 -14   0  171.24   25.31
  14 -14   0  175.15   20.60
  15  14   0    1.77    4.44
 -15  14   0   -0.43   11.67
 -15 -14   0   -2.94   12.06
  15 -14   0    2.79    6.53
  16  14   0  232.08   45.17
 -16  14   0  272.22   26.65
 -16 -14   0  234.34   28.44
  17  14   0   -0.14    6.84
 -17  14   0    3.19    5.10
 -17 -14   0    1.01   10.47
  18  14   0  117.10   26.00
 -18  14   0   64.39   52.38
 -18 -14   0   96.45   18.86
   0  15   0    6.21   11.53
   0 -15   0   -2.73    8.07
  -1  15   0    7.45    8.42
   1 -15   0    2.05    7.37
   2  15   0  297.25   30.72
  -2  15   0  285.17   28.09
  -2 -15   0  324.13   30.32
   2 -15   0  293.61   26.34
   3  15   0    3.63    7.65
  -3  15   0    0.24   13.79
  -3 -15   0   -0.06    8.84
   3 -15   0    3.52    6.59
   4  15   0 1516.37   74.86
  -4  15   0 1428.67   65.57
  -4 -15   0 1459.32   63.74
   5  15   0    3.29   10.14
  -5  15   0    2.38   13.54
  -5 -15   0    2.67    9.03
   6  15   0  674.48   37.48
  -6  15   0  698.33   39.59
  -6 -15   0  683.69   39.95
   7  15   0    2.83    5.83
  -7  15   0    3.50   11.79
  -7 -15   0    2.00   10.64
   7 -15   0    3.79    6.45
   8  15   0  265.92   35.29
  -8  15   0  261.44   35.11
  -8 -15   0  283.03   34.46
   8 -15   0  250.04   31.25
   9  15   0    3.40    7.03
  -9 -15   0    5.46    7.69
  10  15   0 1346.49   76.00
 -10  15   0 1381.24   77.65
 -10 -15   0 1367.44   75.20
  10 -15   0 1364.83   72.73
  11  15   0    3.66    7.43
 -11  15   0   -3.16   11.60
 -11 -15   0    9.57   16.86
  11 -15   0   -1.62    7.22
  12  15   0 1488.69  109.02
 -12  15   0 1517.12  111.36
 -12 -15   0 1439.66  106.60
  12 -15   0 1549.95  110.95
  13  15   0    5.86   11.30
 -13  15   0   -2.95   11.96
 -13 -15   0    1.98   21.93
  13 -15   0    0.15    9.94
  14  15   0 1220.48   56.84
 -14  15   0 1329.97   63.51
 -14 -15   0 1386.06   69.29
  15  15   0    1.51    4.49
 -15  15   0   -1.26   12.08
 -15 -15   0    5.03   12.44
  16  15   0  142.63   35.49
 -16  15   0  144.79   39.16
 -16 -15   0  165.82   22.18
  17  15   0    1.43    5.94
 -17  15   0   -3.08   11.26
 -17 -15   0    1.74   10.43
   0  16   0  294.49   41.85
   0 -16   0  300.63   35.15
   1 -16   0    3.00    4.27
   2  16   0  795.96   87.64
  -2  16   0  786.50   84.58
  -2 -16   0  729.73   81.98
   2 -16   0  775.96   81.50
   3  16   0    2.73    8.05
  -3  16   0    4.85   13.02
  -3 -16   0   -0.61    9.93
   4  16   0  446.82   53.60
  -4  16   0  472.19   59.51
  -4 -16   0  470.02   52.91
   4 -16   0  442.43   49.28
  -5 -16   0    3.44    6.14
   6  16   0  122.44   17.16
  -6  16   0  144.29   32.12
  -6 -16   0  126.35   36.77
   6 -16   0  127.51   15.32
   7  16   0    4.12    7.63
  -7  16   0    2.91   11.92
  -7 -16   0    3.43    9.63
   7 -16   0    7.82   13.55
   8  16   0  479.81   39.71
  -8  16   0  453.58   36.67
  -8 -16   0  467.39   36.38
   8 -16   0  468.21   34.10
   9  16   0    3.29    5.68
  -9  16   0   -1.10   11.43
  -9 -16   0    4.87    8.84
  10  16   0   77.38   18.93
 -10  16   0   75.75   16.71
 -10 -16   0   62.00   17.49
  10 -16   0   66.08   12.42
  11  16   0    2.34    7.10
 -11  16   0   -2.92   10.38
 -11 -16   0    4.35   10.63
  11 -16   0    2.07    5.76
  12  16   0  164.23   31.47
 -12  16   0  173.79   34.16
 -12 -16   0  170.07   22.52
  13  16   0    0.69    6.01
 -13  16   0   -3.17   11.95
 -13 -16   0    2.11    9.79
  14  16   0   97.61   41.99
 -14  16   0   66.33   55.34
 -14 -16   0  132.37   25.77
  15  16   0    2.38    3.97
 -15  16   0    2.26    7.97
 -15 -16   0    3.62   10.26
   0  17   0    1.23    8.93
   0 -17   0   11.56   11.94
   1  17   0    0.47   10.28
  -1  17   0    5.13    8.37
  -1 -17   0    2.45    9.35
   2  17   0  452.61   45.65
  -2  17   0  425.85   34.93
  -2 -17   0  439.63   33.99
   2 -17   0  444.37   32.53
   3  17   0    3.20    8.95
  -3  17   0    3.86    9.83
   4  17   0  982.75   67.86
  -4  17   0  914.49   62.49
  -4 -17   0  916.13   58.14
   5  17   0    4.23   14.35
  -5 -17   0    6.57    9.24
   6  17   0  538.46   47.22
  -6  17   0  496.63   44.48
  -6 -17   0  520.12   43.24
   6 -17   0  495.77   40.19
   7  17   0    0.90    7.76
  -7  17   0    3.43   12.63
   7 -17   0    2.73    6.35
   8  17   0    6.10    8.32
  -8  17   0    9.90   11.80
  -8 -17   0    4.04    8.96
   8 -17   0   11.10   10.42
   9  17   0    6.22    7.89
  -9  17   0    2.61    6.66
  -9 -17   0    0.41    4.37
   9 -17   0   -0.07    5.88
  10  17   0  418.43   35.00
 -10  17   0  393.44   41.39
 -10 -17   0  433.17   38.34
  11  17   0    1.26    9.25
 -11  17   0   -1.19   10.19
 -11 -17   0    0.28   10.23
  12  17   0  495.44   41.81
 -12  17   0  496.35   45.18
 -12 -17   0  422.49   48.57
  13  17   0    4.17    8.93
 -13  17   0   -6.80   12.67
 -13 -17   0    7.07   12.67
   0  18   0 2411.64  140.03
   0 -18   0 2333.39  100.39
   2  18   0 2428.18  141.70
  -2  18   0 2423.54  139.91
  -2 -18   0 2385.18  106.13
   2 -18   0 2343.59   99.47
   3  18   0    7.06    7.50
  -3 -18   0    2.10    7.21
   4  18   0  240.34   32.97
  -4  18   0  207.37   33.40
  -4 -18   0  226.88   32.08
   4 -18   0  216.00   19.66
   5  18   0    3.52    7.73
  -5 -18   0    1.51    9.22
   6  18   0 1587.32   94.89
  -6  18   0 1563.79   96.06
  -6 -18   0 1577.34   94.36
   7  18   0    7.51   11.41
  -7  18   0    5.21   18.22
  -7 -18   0    4.36    6.43
   8  18   0 1394.83   88.48
  -8  18   0 2269.65  175.42
  -8 -18   0 2416.32  174.80
   9  18   0    3.20    8.46
  -9  18   0   -2.30   14.91
  -9 -18   0   14.80   28.25
  10  18   0  490.31   51.60
 -10  18   0  503.62   46.13
 -10 -18   0  495.06   49.01
   0  19   0   -0.48   10.34
   0 -19   0    5.91   10.91
   1  19   0    1.50    4.91
  -1  19   0    1.07    7.44
  -1 -19   0   -0.41    7.69
   2  19   0  112.35   46.48
  -2  19   0  102.88   19.23
  -2 -19   0  101.21   40.17
   2 -19   0  111.32   17.22
   3  19   0    3.77    5.30
  -3 -19   0   -0.77    8.82
   4  19   0  336.07   44.47
  -4  19   0  326.09   30.15
  -4 -19   0  363.50   32.24
   4 -19   0  327.02   28.15
   5  19   0    2.66    8.04
  -5  19   0   -0.12    9.13
  -5 -19   0    4.29   11.67
   5 -19   0    7.95   10.49
   6  19   0  103.18   19.86
  -6  19   0   90.83   53.05
  -6 -19   0   84.94   22.83
   7  19   0   -2.53   10.52
  -7  19   0    2.67    8.56
  -7 -19   0   -0.44   10.70
   0   0   1   29.94   11.89
   0   0   1   17.14    7.01
  -1   0   1  156.75   73.60
   1   0   1  128.01    7.55
  -1   0  -1  110.16    6.43
  -1   0   1  117.95    9.50
   1   0  -1  121.54    9.03
   2   0   1 1781.08   38.18
  -2   0  -1 1701.23   36.13
   2   0  -1 1721.32   35.11
  -2   0   1 1728.82   37.67
   2   0  -1 1682.73   36.09
   3   0   1  532.64  120.19
  -3   0  -1  462.33   17.83
   3   0  -1  510.44   11.75
  -3   0   1  598.16   29.82
   3   0  -1  485.87   14.20
  -3   0  -1  498.02   13.02
   3   0   1  595.51   15.40
   5   0   1 2898.35  164.03
  -5   0  -1 3197.48  107.28
   7   0   1  145.34   10.53
  -7   0   1  165.07   52.07
  -7   0  -1  176.75   11.09
   7   0   1  130.09    8.66
   8   0   1   18.52   20.21
  -8   0   1   33.16   22.34
  -8   0  -1   20.94    5.25
   9   0   1   90.08   23.16
  -9   0   1  108.68   10.52
  -9   0  -1  106.17    9.54
  10   0   1 1956.47   74.46
 -10   0   1 1844.07   69.65
 -10   0  -1 2185.12   80.53
 -11   0   1  144.76    8.55
 -11   0   1  181.49   17.33
 -11   0  -1  178.79   12.76
 -12   0   1 1044.76   37.46
 -12   0   1 1115.90   45.21
 -12   0  -1 1138.81   44.57
 -13   0   1  127.88    6.66
 -13   0  -1  155.06   33.41
 -13   0   1  134.89   15.51
 -13   0  -1  116.64   12.54
 -15   0   1   98.81    7.33
 -15   0  -1  137.77   17.25
 -15   0   1  131.47   31.72
 -15   0  -1  128.26   14.61
 -16   0   1   78.20    7.28
 -16   0  -1   81.44   17.50
 -16   0   1   74.89   12.79
 -16   0  -1   73.55   21.84
 -17   0   1   38.94    6.00
 -17   0  -1   41.20    9.88
 -17   0   1   51.11   22.40
 -17   0  -1   47.31   21.17
 -18   0  -1 2215.40  100.93
 -18   0   1 2214.51  100.35
 -18   0  -1 2216.70  102.82
 -19   0  -1  266.86   46.30
 -19   0   1  268.52   43.28
 -19   0  -1  279.41   27.76
 -20   0  -1 1560.81   66.35
 -20   0   1 1673.49   82.63
 -20   0  -1 1703.07   78.59
 -21   0  -1   41.56   11.59
 -21   0   1   47.89   17.37
 -21   0  -1   57.43   21.27
 -22   0  -1   45.52   12.55
 -22   0   1   47.85   26.79
 -22   0  -1   45.29   24.06
 -23   0   1    0.48    8.65
 -23   0  -1   -0.93    7.74
 -24   0   1   95.99   58.17
 -24   0  -1  113.41   17.80
 -25   0   1   34.22   19.33
 -25   0  -1   19.54   14.60
  -1   1   1  263.61    8.86
  -1  -1  -1  232.00   15.87
   1  -1   1  234.37    9.82
  -1  -1  -1  249.19   15.34
  -1   1   1  209.42   15.81
   1  -1  -1  242.74   15.70
  -1   1  -1  215.16   10.09
  -1  -1   1  226.97   13.10
  -1  -1  -1  218.84   10.78
   2   1  -1  135.97    8.03
  -2   1  -1  152.82    7.25
   2   1   1  162.75    8.55
  -2   1   1  150.63   13.27
  -2  -1  -1  149.61    7.53
   2  -1  -1  139.21   11.32
   2   1  -1  142.13    6.81
  -2   1  -1  164.47   11.68
  -2   1  -1  153.11    8.27
  -2   1   1  146.88   11.66
   2  -1  -1  146.47   19.00
  -2  -1   1  142.51    9.66
  -2  -1  -1  134.97    8.28
  -2   1  -1  135.84    5.46
   2   1   1  142.71    7.27
  -3   1  -1    1.78    2.70
   3   1   1    3.70    4.69
  -3  -1  -1    4.17    4.54
  -3   1   1    2.57    2.75
   3  -1  -1    1.92    2.69
   3   1  -1    5.53    3.72
  -3   1  -1    1.13    6.04
  -3   1   1    6.36    5.05
   3  -1  -1    4.61    3.86
  -3  -1   1    5.07    4.73
   3   1  -1    2.99    3.36
  -3   1  -1    2.62    2.74
   3   1   1    2.86    5.97
   3  -1   1    1.28    2.29
   4   1   1   28.31   20.55
   4  -1  -1   19.54    3.39
   4   1  -1   24.47    2.94
  -4   1  -1   34.16    7.06
  -4   1   1   28.96    6.76
  -4  -1   1   36.77   14.64
   4   1  -1   19.81   11.44
  -4   1  -1   27.87    5.01
   4  -1   1    6.66   13.19
   4   1   1   26.41   26.31
   5   1   1  144.41    9.11
   5  -1  -1  133.01    5.98
  -5   1   1  145.64   19.32
  -5  -1   1  147.24   10.22
  -5  -1  -1  147.50   13.99
   5  -1   1  130.96    8.83
   5   1   1  141.60    8.83
   6   1   1 2933.97  100.98
  -6   1  -1 3142.04  113.32
  -6   1   1 3020.37  109.42
  -6  -1   1 2974.69  107.14
  -6   1  -1 2965.63  105.23
  -6  -1  -1 2883.22   97.57
   6  -1   1 2786.99   93.71
   6   1   1 2866.00   97.27
   7   1   1  232.94   31.91
  -7   1  -1  236.41   12.94
  -7   1   1  255.45   35.38
  -7  -1   1  226.24   13.99
  -7  -1  -1  236.37   12.88
   7  -1   1  215.62   18.29
   8   1   1 2203.54   78.07
  -8   1   1 2524.80   83.83
  -8  -1   1 2119.24   70.04
  -8   1  -1 2454.13   85.94
  -8  -1   1 2287.63   80.00
  -8  -1  -1 2157.72   74.61
   8  -1   1 2128.51   72.85
   9   1   1  159.12   12.70
  -9   1   1  177.94    8.36
  -9  -1   1  136.81    6.14
  -9   1  -1  173.61   13.38
  -9   1   1  156.73   15.39
  -9   1  -1  171.14   10.84
  -9  -1  -1  151.31   12.39
  10   1   1  546.23   43.62
 -10   1   1  662.52   24.49
 -10  -1   1  563.84   21.01
 -10   1  -1  593.06   26.88
 -10   1   1  617.03   32.22
 -10  -1   1  635.64   28.41
 -10   1  -1  617.41   28.16
 -10  -1  -1  635.80   28.20
  11   1   1   -3.79    7.10
 -11   1   1    0.73    0.93
 -11  -1   1   -0.29    1.50
 -11   1  -1    1.77    7.04
 -11   1   1   -0.27    5.88
 -11  -1   1   -2.29    5.58
 -11   1  -1    0.56    3.02
 -11  -1  -1    1.92    7.19
 -12   1  -1  213.93   20.03
 -12   1   1  194.78   19.29
 -12  -1   1  167.27   19.33
 -12  -1  -1  168.61   23.16
  13   1   1   36.97   30.92
 -13   1   1   34.24    9.80
 -13  -1   1   33.52    5.50
 -13   1   1   36.55    9.16
 -13   1  -1   38.39    7.10
 -13   1   1   42.68   13.76
 -13  -1   1   47.10   18.85
 -13   1  -1   47.74   24.00
 -13  -1  -1   42.12   10.83
  14   1   1  945.70   38.03
 -14   1   1  964.79   30.40
 -14  -1   1  986.35   31.08
 -14   1   1  988.01   31.86
 -14   1  -1 1072.32   43.14
 -14   1   1 1020.27   41.22
 -14  -1   1 1059.45   39.89
 -14   1  -1 1039.30   38.31
 -14  -1  -1  978.23   52.14
 -15   1   1   96.78   11.17
 -15  -1   1  139.14    7.40
 -15   1  -1  161.65   15.69
 -15   1   1  154.74   16.84
 -15  -1   1   90.72   13.95
 -15   1  -1  165.76   16.65
 -15  -1  -1  162.16   18.65
 -16   1   1 1759.32   59.41
 -16  -1   1 1643.74   54.32
 -16   1  -1 1795.30   65.98
 -16  -1  -1 1883.51   70.77
 -16   1   1 1728.37   64.45
 -16  -1   1 1797.83   66.07
 -16   1  -1 1853.59   69.39
 -16  -1  -1 1769.72   65.95
 -17   1   1  107.86    7.45
 -17   1  -1  139.99   14.15
 -17  -1  -1  177.44   19.40
 -17   1   1  111.06   13.68
 -17  -1   1  144.32   15.15
 -17   1  -1  168.37   22.65
 -17  -1  -1  174.84   29.99
 -18   1  -1  999.83   54.98
 -18  -1  -1 1022.47   54.01
 -18   1   1  970.66   54.20
 -18   1  -1 1034.59   52.06
 -18  -1  -1  966.85   53.25
 -19   1  -1   10.30    9.48
 -19  -1  -1    9.98    8.78
 -19   1   1   17.23   17.51
 -19  -1   1    4.31   12.96
 -19   1  -1    7.20    6.70
 -19  -1  -1    9.42   12.14
 -20   1  -1   13.44    8.05
 -20  -1  -1   16.29    8.65
 -20   1   1   20.78   14.94
 -20  -1   1   22.18   10.18
 -20   1  -1   10.56   11.06
 -20  -1  -1   14.73    7.53
 -21   1  -1   10.90   10.94
 -21  -1  -1    9.86   10.31
 -21   1   1    8.56   10.99
 -21  -1   1    4.73   12.88
 -21   1  -1   10.32    9.44
 -21  -1  -1   11.88    4.89
 -22   1  -1  208.25   23.63
 -22  -1  -1  208.80   26.54
 -22   1   1  211.75   29.27
 -22  -1   1  201.67   27.16
 -22   1  -1  198.49   26.94
 -22  -1  -1  178.10   20.65
 -23   1  -1   24.17    9.35
 -23   1   1   29.24   21.45
 -23  -1   1   28.19   13.57
 -23   1  -1   22.18   18.13
 -23  -1  -1   29.98   15.94
 -24   1   1  154.54   48.98
 -24   1  -1  223.01   20.81
 -24  -1  -1  164.57   43.86
 -25   1   1   10.52   14.98
 -25  -1   1    8.31    8.10
 -25   1  -1    5.02    5.63
 -25  -1  -1    7.55    9.29
   0   2   1    0.39    1.73
   0  -2  -1    4.02    2.46
   0   2  -1    2.10    4.07
   0  -2   1    4.46    4.48
   0  -2  -1    4.86    3.95
   0  -2   1    3.68    2.94
   0   2  -1    1.77    2.49
   0  -2  -1    2.01    4.51
   1   2   1   19.59   10.89
  -1   2   1   20.00    4.59
  -1  -2  -1   18.19    3.82
  -1   2  -1   21.91    6.05
  -1  -2   1   17.51    4.28
   1  -2   1   15.58    3.93
  -1  -2  -1   22.66   10.46
  -1   2   1   26.43   13.33
   1  -2  -1   24.44    5.59
  -1  -2   1   22.58   10.76
  -1   2  -1   17.90    2.44
   1   2  -1   17.08    5.32
  -1  -2  -1   18.49    5.45
   2   2   1  197.27    9.44
  -2  -2  -1  185.04   14.56
  -2   2   1  208.40    7.68
   2  -2  -1  203.81   11.57
   2   2  -1  200.97    8.46
  -2   2  -1  203.68   10.47
  -2  -2   1  215.57    7.93
   2  -2   1  184.65    9.42
  -2   2   1  212.56   17.89
   2  -2  -1  234.50   12.64
  -2   2  -1  203.84    5.15
  -2  -2  -1  192.48    9.46
   2   2   1  188.14    8.89
   3   2   1  221.83    9.68
   3  -2  -1  211.65   12.69
   3   2  -1  204.84   12.45
  -3   2   1  214.36   11.28
  -3  -2  -1  204.50    9.54
   3   2   1  213.11    9.10
   4   2   1 2169.93   74.65
  -4   2   1 2155.00   72.87
   4  -2  -1 1978.25   40.77
   4   2  -1 2008.40   40.99
  -4   2  -1 2202.08   77.31
  -4   2   1 2098.69   72.32
   4   2   1 2080.14   44.99
  -5   2   1  157.48   13.66
   5   2  -1  139.55    6.54
   5  -2  -1  144.39   10.96
  -5  -2   1  121.00    5.56
  -5   2  -1  141.43   10.44
  -5   2   1  190.97   21.96
  -5  -2   1  151.93   25.07
  -5   2  -1  148.63    6.43
   5  -2   1  135.55    7.39
   6   2   1 2186.78   76.13
   6   2  -1 2116.21   70.51
  -6   2   1 2051.98   68.96
  -6  -2   1 2125.05   70.91
   6  -2  -1 2037.31   68.25
  -6   2  -1 2303.35   79.60
  -6   2   1 2253.60   78.43
  -6  -2   1 2341.94   80.86
  -6   2  -1 2291.66   76.62
   6  -2   1 2118.33   71.29
   7   2   1   76.39   15.48
   7   2  -1   85.11    4.93
  -7  -2   1   64.31    3.85
   7  -2  -1   79.84    4.96
  -7   2   1   86.74    9.57
  -7  -2   1   78.25    8.71
  -7   2  -1   87.45    5.54
   7  -2   1   75.93    8.13
  -7  -2  -1   85.15   15.70
   8   2   1   11.69    7.10
   8   2  -1    7.60    2.81
  -8   2   1    1.21    3.06
   8  -2  -1    8.50    2.68
  -8   2  -1   17.79   10.71
  -8   2   1   12.24    6.39
  -8  -2   1   12.90    8.52
  -8   2  -1   10.69    6.03
  -8  -2  -1   18.54    9.27
   8  -2   1   10.67    3.45
   9   2   1   21.25   14.31
   9   2  -1   15.63    5.81
  -9  -2   1   15.11    6.17
  -9   2   1   15.19    8.23
  -9   2  -1   16.08    6.96
   9  -2  -1   13.80    3.03
  -9   2   1   17.03   10.78
  -9  -2   1   22.19   10.01
  -9   2  -1   18.17    4.79
  -9  -2  -1   16.01    6.81
   9  -2   1   10.73    6.24
  10   2  -1   66.30    5.83
  10   2   1   68.31   10.70
 -10  -2   1   61.89    6.42
 -10   2   1   70.20    7.71
 -10   2  -1   78.40    9.31
 -10   2   1   79.31   13.27
 -10  -2   1   64.33    8.81
 -10   2  -1   80.27   15.52
 -10  -2  -1   66.38   10.34
  11   2  -1    0.51    1.35
 -11   2   1    0.36    1.46
  11   2   1    0.72    3.93
 -11  -2   1   -0.33    1.62
 -11   2  -1    2.53    6.11
 -11   2   1   -0.16    4.09
 -11  -2   1   -0.84    5.49
 -11   2  -1    2.46    3.11
 -11  -2  -1    0.59    7.91
  12   2   1   73.84    8.96
 -12   2   1   81.29    7.40
 -12  -2   1   67.43    8.73
 -12   2   1   75.86    7.98
 -12   2  -1   78.03   12.17
 -12   2   1   79.26   13.44
 -12  -2   1   74.19   19.00
 -12   2  -1   76.71   10.29
 -12  -2  -1   81.55   15.27
  13   2   1   27.76   20.56
 -13   2   1   31.18    6.15
 -13  -2   1   24.52    8.88
 -13   2   1   27.51    5.73
 -13   2  -1   39.69   10.45
 -13  -2   1   28.83    4.17
 -13   2   1   31.96   13.96
 -13  -2   1   43.48   18.60
 -13   2  -1   32.55   14.11
 -13  -2  -1   32.00   10.04
  14   2   1  483.85   26.38
 -14  -2   1  482.83   17.28
 -14   2   1  516.34   20.01
 -14   2  -1  530.96   27.86
 -14  -2   1  486.08   16.84
 -14   2   1  554.29   28.97
 -14  -2   1  505.63   25.08
 -14   2  -1  513.48   24.40
 -14  -2  -1  491.61   24.94
  15   2   1   58.18   15.60
 -15   2   1   45.85    7.58
 -15   2  -1   33.85   10.01
 -15  -2   1   64.26    6.08
 -15   2   1   53.52   29.00
 -15   2  -1   59.17   21.90
 -15  -2   1   62.75   27.54
 -15  -2  -1   55.39   12.28
  16   2   1  260.75   23.55
 -16   2   1  239.69   13.01
 -16   2  -1  243.10   22.49
 -16  -2   1  251.75   12.71
 -16   2   1  250.17   35.37
 -16   2  -1  273.95   20.30
 -16  -2   1  256.18   22.11
 -16  -2  -1  230.09   33.23
  17   2   1   -2.52    7.60
 -17   2   1    2.90    5.47
 -17   2  -1    2.09    9.95
 -17  -2   1    2.23    3.33
 -17   2   1    3.33    5.31
 -17   2  -1    1.27    5.91
 -17  -2   1    0.50    6.41
 -17  -2  -1    2.97    5.46
 -18   2  -1  329.72   28.23
 -18   2   1  375.11   31.44
 -18   2  -1  343.94   37.83
 -18  -2   1  334.05   48.66
 -18  -2  -1  330.00   48.59
 -19   2  -1   65.16   14.70
 -19  -2  -1   78.99   13.52
 -19   2   1   81.91   38.05
 -19   2  -1   74.32   21.22
 -19  -2   1   71.09   35.09
 -19  -2  -1   73.30   35.63
 -20   2  -1  465.57   30.27
 -20  -2  -1  517.17   32.20
 -20   2   1  530.62   34.81
 -20   2  -1  512.01   27.78
 -20  -2   1  492.48   51.27
 -20  -2  -1  517.07   32.37
 -21   2  -1    7.00    5.67
 -21  -2  -1    5.05    7.28
 -21   2   1    9.20    8.16
 -21   2  -1    4.66   10.22
 -21  -2   1    4.72    5.29
 -21  -2  -1    5.32    8.16
 -22   2  -1    8.64   11.17
 -22  -2  -1    3.79    7.80
 -22   2   1   -1.59    9.07
 -22   2  -1    3.78    7.45
 -22  -2   1    3.98    6.82
 -22  -2  -1    3.17    5.76
 -23   2  -1    1.49    7.55
 -23  -2  -1    3.06    7.23
 -23   2   1    0.62    9.20
 -23   2  -1    1.70    5.97
 -23  -2   1    1.69   11.03
 -23  -2  -1    4.39    3.89
 -24   2   1    3.83    5.28
 -24   2  -1   -0.22    6.06
 -24  -2   1    0.71   12.72
 -24  -2  -1    6.01    7.53
 -25   2  -1    2.85    7.28
 -25  -2  -1    4.87    9.32
 -25   2   1    3.29    8.53
 -25  -2   1    5.43   12.31
 -25  -2  -1    2.89    7.40
   0   3   1  116.88   16.55
   0  -3  -1  121.07   10.14
   0   3  -1  117.43    7.88
   0  -3   1  114.47    7.08
   0  -3   1  119.60   11.45
   0   3  -1  112.74    5.27
   0  -3  -1  127.33   10.39
   1   3   1   31.71    7.44
  -1   3   1   32.52   11.23
  -1  -3  -1   26.95    4.30
  -1   3  -1   31.04    6.53
  -1  -3   1   27.28    4.54
   1  -3   1   25.73    4.21
  -1   3   1   33.28    7.92
  -1  -3   1   30.83    9.69
   1   3  -1   28.48    3.27
  -1   3  -1   28.47    5.66
  -1  -3  -1   27.59    6.75
   2   3   1 1471.81   33.43
  -2   3   1 1540.83   34.58
   2  -3  -1 1426.58   31.71
   2   3  -1 1470.70   32.79
  -2  -3   1 1460.20   31.88
  -2   3  -1 1451.12   33.15
  -2   3   1 1565.33   36.13
   2   3  -1 1492.05   32.58
  -2  -3  -1 1460.53   33.62
   3   3   1  134.09    7.77
   3  -3  -1  138.03   13.74
   3   3  -1  143.89    8.59
  -3   3  -1  145.30   10.08
  -3   3   1  141.89   12.22
  -3  -3   1  138.52    6.40
   3   3  -1  133.16    8.49
  -3  -3  -1  136.97   10.07
   4   3   1   36.29   18.89
  -4   3   1   35.85    5.89
   4  -3  -1   39.79    9.78
   4   3  -1   30.72   11.05
  -4  -3   1   34.17    4.77
  -4   3  -1   39.87    8.92
  -4   3   1   43.21   17.40
  -4  -3   1   28.01   17.67
  -4  -3  -1   29.94    7.59
   5   3   1  104.06   12.45
  -5   3   1  104.95   11.90
   5   3  -1  103.67    9.18
   5  -3  -1   97.81    6.67
  -5  -3   1  107.00    7.04
  -5   3  -1  110.34   10.99
  -5   3   1   98.02   24.85
  -5  -3   1   19.50   23.26
   5  -3   1   92.46    4.83
   6   3   1 4909.76  174.89
   6   3  -1 4995.97  175.86
  -6  -3   1 4897.05  172.63
   6  -3  -1 4976.48  175.49
   7   3   1  708.98   33.69
   7   3  -1  665.47   24.78
   7  -3  -1  709.79   25.92
  -7   3  -1  685.93   27.59
  -7  -3   1  696.59   43.21
   7  -3   1  568.71   20.78
   8   3   1 6609.19  231.67
   8  -3  -1 6101.92  211.00
   8  -3   1 6420.47  222.21
   9   3   1  237.93   16.14
   9   3  -1  265.98   13.63
  -9   3   1  242.10   14.42
  -9  -3   1  245.49   16.78
   9  -3  -1  236.30   11.01
  -9   3  -1  239.25   18.35
  -9   3   1  273.40   31.19
  -9   3  -1  257.30   14.08
  -9  -3   1  264.23   15.09
   9  -3   1  186.40   11.23
  10   3   1  446.32   21.92
  10   3  -1  453.22   17.98
 -10  -3   1  405.84   16.78
 -10   3   1  422.82   19.18
 -10   3  -1  438.88   20.66
  10  -3  -1  367.25   15.27
 -10   3   1  462.30   25.15
 -10   3  -1  447.51   21.77
 -10  -3   1  447.77   29.89
  11   3   1    1.77    6.71
  11   3  -1    1.84    2.58
 -11  -3   1    0.16    2.14
 -11   3   1    1.19    2.98
 -11   3  -1    0.28    6.62
  11  -3  -1    3.67    3.53
 -11   3   1    1.49    5.97
 -11   3  -1    0.68    2.70
 -11  -3   1    3.54    6.72
 -11  -3  -1    2.91    8.96
  12   3  -1   18.36    5.86
  12   3   1   18.13   10.21
 -12  -3   1   23.80    4.44
 -12   3   1   24.11   11.70
 -12   3  -1   14.18    7.51
 -12   3   1   21.64   13.41
 -12   3  -1   27.84    6.45
 -12  -3   1   25.12   25.48
 -12  -3  -1   24.83   10.79
  13   3  -1   19.95    7.84
  13   3   1   20.17   17.80
 -13  -3   1   13.95    4.79
 -13   3   1   19.23    4.83
 -13   3  -1    6.60    7.89
 -13   3   1   26.70   13.57
 -13   3  -1    9.99    5.10
 -13  -3   1   21.06   13.96
 -13  -3  -1   20.72   10.32
  14   3  -1 1227.04   38.11
  14   3   1 1261.81   45.90
 -14   3   1 1313.56   43.26
 -14   3  -1 1325.43   49.47
 -14   3   1 1271.74   44.39
 -14   3  -1 1329.94   44.15
 -14  -3   1 1324.65   48.58
 -14  -3  -1 1341.68   50.22
 -15   3  -1  103.36    8.62
 -15  -3   1  235.92   19.54
  16   3   1 5455.95  189.58
 -16   3   1 5550.73  179.05
 -16   3  -1 5621.29  184.81
 -16   3   1 5874.58  232.59
 -16   3  -1 5923.22  231.70
 -16  -3   1 5652.99  223.99
 -16  -3  -1 5350.22  179.72
  17   3   1  565.51   35.88
 -17   3   1  407.09   21.88
 -17   3  -1  453.03   25.73
 -17   3  -1  444.86   22.73
 -17  -3   1  522.62   30.41
 -17  -3  -1  534.30   37.67
  18   3   1 3646.72  160.13
 -18   3  -1 3773.47  165.88
 -18   3   1 4067.43  290.91
 -18   3  -1 4058.59  288.52
 -18  -3   1 3843.57  275.71
 -18  -3  -1 3705.08  167.68
  19   3   1  117.45   15.54
 -19   3  -1  120.65   15.21
 -19   3   1  126.00   45.64
 -19   3  -1  109.17    9.46
 -19  -3   1  128.16   16.43
 -19  -3  -1  120.63   37.91
 -20   3  -1   40.42   13.85
 -20   3   1   41.27   15.55
 -20   3  -1   35.12   28.86
 -20  -3   1   36.10   13.39
 -20  -3  -1   39.17   16.43
 -21   3  -1   14.46    8.69
 -21  -3  -1   12.10   10.22
 -21   3   1   19.50   12.40
 -21   3  -1   17.36    6.13
 -21  -3   1   15.81   10.54
 -21  -3  -1   18.90   11.99
 -22   3   1  357.42   44.08
 -22   3  -1  423.04   34.00
 -22  -3   1  395.99   62.67
 -22  -3  -1  293.49   27.27
 -23   3  -1   33.19   11.70
 -23  -3  -1   30.76    9.64
 -23   3   1   56.05   34.45
 -23   3  -1   43.32   30.96
 -23  -3   1   40.79   19.71
 -23  -3  -1   44.86   27.80
 -24   3  -1  669.44   46.69
 -24   3   1  729.03   55.76
 -24  -3   1  678.48   54.35
 -24  -3  -1  694.07   47.81
 -25   3   1  117.22   34.45
 -25  -3   1   91.78   54.40
 -25  -3  -1   74.48   51.09
   0   4   1    3.64    4.75
   0   4  -1    4.89    7.91
   0  -4   1    5.17    4.65
   0   4  -1    2.27    2.46
   0  -4  -1    6.10    9.70
   1   4   1   23.92   13.01
  -1   4   1   23.74    8.38
  -1   4  -1   23.81    6.57
  -1  -4   1   17.84    4.93
  -1  -4   1   20.79    4.73
   1   4  -1   15.94    9.30
  -1   4  -1   16.53    2.74
  -1  -4  -1   21.67    7.16
   1  -4  -1   19.12    6.70
   2   4   1  779.90   29.71
  -2   4   1  797.66   29.83
   2  -4  -1  747.60   28.19
   2   4  -1  775.85   29.56
  -2   4  -1  759.96   29.34
  -2   4   1  902.73   34.61
  -2  -4   1  879.08   35.94
   2   4  -1  773.10   28.11
  -2  -4  -1  789.21   30.49
   3   4   1  188.24   19.67
   3  -4  -1  169.72    9.42
   3   4  -1  174.10   11.61
  -3   4  -1  191.16   13.11
  -3   4   1  155.60   20.67
  -3  -4   1  192.39   16.24
   3   4  -1  171.62   10.72
  -3  -4  -1  191.93   12.01
   4   4   1 1948.76   68.07
  -4   4   1 2013.73   69.94
   4   4  -1 1933.14   66.43
   4  -4  -1 1890.28   64.97
  -4  -4   1 1961.13   67.33
  -4   4  -1 2048.87   71.48
  -4   4   1 1908.22   66.81
   4  -4   1 2061.45   68.15
  -4  -4  -1 1944.52   68.11
   5   4   1   98.76   18.15
  -5   4   1  108.19   17.41
   5   4  -1   94.80    7.62
   5  -4  -1  101.58    7.30
  -5  -4   1   66.41    9.16
  -5   4   1  101.61    8.44
  -5  -4   1  113.05   10.47
   5  -4   1   95.01    6.70
  -5  -4  -1  102.30   10.55
   6   4   1  926.60   35.69
   6   4  -1  909.46   34.21
  -6   4   1  936.31   34.82
  -6  -4   1  906.18   33.17
   6  -4  -1  912.27   33.33
  -6   4  -1 1011.66   42.28
  -6   4  -1  929.99   31.89
  -6   4   1  916.57   35.75
  -6  -4   1 1000.55   38.74
   6  -4   1  950.98   32.68
  -6  -4  -1  936.39   36.13
   7   4   1   74.78    7.95
   7   4  -1   81.01    9.07
  -7   4   1   78.86    9.05
  -7  -4   1   73.85    6.49
   7  -4  -1   69.63    7.25
  -7   4  -1   83.51   21.59
  -7   4   1   78.34   12.30
  -7   4  -1   74.41    7.69
  -7  -4   1   80.79    9.97
   7  -4   1   64.86    4.60
  -7  -4  -1   73.12   10.70
   8   4   1  447.48   21.56
   8   4  -1  490.69   21.31
  -8   4   1  491.69   21.86
  -8  -4   1  486.84   20.50
   8  -4  -1  457.40   19.43
  -8   4  -1  510.93   26.45
  -8   4   1  461.33   27.30
  -8  -4   1  538.24   37.05
   8  -4   1  493.58   19.67
   9   4   1   10.53    7.80
   9   4  -1    9.60    4.04
  -9   4   1    9.00    5.69
  -9  -4   1    8.00    3.29
   9  -4  -1    6.36    3.14
  -9   4  -1    9.12    9.60
  -9   4   1   16.01    7.93
  -9   4  -1    8.72    4.03
  -9  -4   1   11.17    8.19
   9  -4   1    5.02    2.12
  10   4   1    3.40    8.42
  10   4  -1    5.93    3.15
 -10  -4   1    4.75    3.35
 -10   4   1   10.03    6.84
 -10   4  -1    1.47    6.92
 -10   4   1    3.51    4.10
 -10   4  -1    5.39    3.59
 -10  -4   1   13.54   12.48
 -10  -4  -1   11.16    8.92
  11   4   1    4.51    4.99
  11   4  -1    5.36    3.03
 -11  -4   1    2.14    4.25
 -11   4   1    2.93    6.16
 -11   4  -1    1.77    7.14
 -11   4   1    5.49    5.96
 -11   4  -1    4.08    3.87
 -11  -4   1    5.70    7.73
  12   4   1  265.17   19.73
  12   4  -1  262.76   16.58
 -12  -4   1  221.37   18.61
 -12   4   1  247.83   14.46
 -12   4  -1  265.81   19.24
 -12   4   1  287.99   21.40
 -12   4  -1  277.01   14.09
 -12  -4   1  271.88   35.77
 -12  -4  -1  260.82   17.78
  13   4   1   62.47   20.17
  13   4  -1   61.33   10.83
 -13   4   1   53.49    8.56
 -13   4  -1   67.64   11.35
 -13   4   1   75.87   33.60
 -13   4  -1   59.71    6.70
 -13  -4   1   58.96   12.57
 -13  -4  -1   67.01   15.06
  14   4  -1  455.27   20.64
  14   4   1  453.28   24.80
 -14   4   1  426.74   19.82
 -14   4  -1  458.48   27.81
 -14   4   1  426.57   29.21
 -14   4  -1  458.16   24.64
 -14  -4   1  458.04   32.22
 -14  -4  -1  446.23   26.27
  15   4  -1    7.89    4.41
  15   4   1    4.51    7.73
 -15   4   1    6.56    9.06
 -15   4  -1   11.53   13.20
 -15   4   1    9.97    7.85
 -15   4  -1    3.16    9.46
 -15  -4   1    7.96   12.31
 -15  -4  -1   10.75   13.82
  16   4  -1    2.83    4.23
  16   4   1    5.27    7.28
 -16   4   1    4.26    6.93
 -16   4  -1    7.84   15.25
 -16   4   1    5.92    4.95
 -16   4  -1   13.01    5.37
 -16  -4   1   -0.94   10.86
 -16  -4  -1   12.84   13.65
  17   4   1    1.62    6.73
 -17   4   1    0.67    4.40
 -17   4  -1    3.25   10.02
 -17   4   1    6.19   10.32
 -17   4  -1    5.23    7.12
 -17  -4   1    5.36    7.63
 -17  -4  -1    5.09    8.97
  18   4   1   70.96   13.27
 -18   4  -1   58.64   14.70
 -18   4   1   61.72   21.86
 -18   4  -1   53.76   28.67
 -18  -4   1   54.50   26.26
 -18  -4  -1   54.57   31.73
  19   4   1   15.96   17.03
 -19   4  -1   17.69    9.30
 -19   4   1   19.70   16.74
 -19   4  -1   19.17   11.54
 -19  -4   1   15.66   13.47
 -19  -4  -1   17.84   10.74
  20   4   1  136.08   34.47
 -20   4  -1  157.39   26.47
 -20   4   1  157.17   33.47
 -20   4  -1  180.92   22.37
 -20  -4   1  177.97   42.60
 -20  -4  -1  145.81   28.64
  21   4   1    7.53    8.60
 -21   4  -1    9.54    7.44
 -21   4   1    2.72    6.77
 -21   4  -1    9.07    7.90
 -21  -4   1   11.66   18.26
 -21  -4  -1    2.50    9.04
 -22   4   1   83.22   46.69
 -22   4  -1   81.20   19.37
 -22  -4   1   91.01   43.68
 -22  -4  -1   83.38   22.13
 -23   4  -1    6.41   11.50
 -23  -4  -1    1.16    6.77
 -23   4   1    4.63    7.64
 -23  -4   1    7.52   14.10
 -23  -4  -1    3.28    6.38
 -24   4  -1    7.55    7.78
 -24  -4  -1    6.90   11.67
 -24   4   1    0.30    5.26
 -24  -4   1    3.65    6.79
 -24  -4  -1    6.36    9.25
 -25   4  -1    8.07   10.77
 -25  -4  -1    6.59    6.85
 -25   4   1    7.20    7.77
 -25  -4   1    9.07   11.83
 -25  -4  -1    2.63    8.04
   0   5   1  232.21   14.15
   0   5  -1  224.17   14.25
   0  -5   1  227.87   10.44
   0   5  -1  220.90    9.92
   0  -5  -1  235.00   14.16
   1   5   1  103.57   13.91
  -1   5  -1  100.47   15.13
   1  -5   1  141.07    7.79
   1   5  -1   84.38    9.58
  -1   5  -1   93.69    5.35
  -1  -5  -1   96.00   10.49
   1  -5  -1   88.86    9.91
   2   5   1 1762.32   62.31
  -2   5   1 1764.13   61.91
   2   5  -1 1762.00   61.92
  -2   5  -1 1780.82   63.15
   2   5  -1 1693.92   58.12
  -2  -5  -1 1798.32   63.49
  -2   5  -1 1668.15   55.93
   2  -5  -1 1505.96   54.57
   3   5   1   84.88   12.72
   3   5  -1   87.06    8.81
  -3   5  -1   91.23   12.21
  -3   5   1  105.89   13.84
   3  -5   1   99.98    5.50
  -3  -5  -1   83.27    9.20
   4   5   1  136.29   16.47
  -4   5   1  132.37   14.96
   4   5  -1  123.82   13.48
  -4   5  -1  133.94   11.63
  -4   5   1  115.63   17.43
   4  -5   1  134.13    7.84
  -4  -5   1  138.50   11.52
  -4  -5  -1  116.57   12.23
   5   5   1   51.80    8.88
  -5   5   1   50.01    8.09
   5   5  -1   57.73   12.79
  -5   5  -1   68.05   11.73
  -5   5   1   56.47    8.77
   5  -5   1   52.90    4.22
  -5  -5   1   57.42    8.87
  -5  -5  -1   51.68   10.75
   6   5   1 3687.07  135.84
   6   5  -1 3805.92  136.94
  -6   5  -1 3991.31  142.98
  -6   5   1 3735.21  134.70
   6  -5   1 3659.04  128.83
  -6  -5   1 4258.71  151.55
  -6  -5  -1 3648.69  132.25
   7   5   1  507.00   37.01
   7   5  -1  599.71   27.34
  -7   5  -1  535.25   42.71
  -7   5  -1  390.37   15.59
  -7   5   1  500.34   24.49
   7  -5   1  491.56   21.44
  -7  -5   1  566.79   36.54
  -7  -5  -1  521.57   25.26
   8   5   1 2612.92   96.43
   8   5  -1 2568.12   92.66
  -8   5  -1 2672.68  100.11
  -8   5  -1 2550.81   91.14
  -8   5   1 2442.24   90.30
   8  -5   1 2348.37   84.05
  -8  -5  -1 2633.73   97.77
   9   5   1   30.83   19.47
   9   5  -1   31.48   10.38
  -9   5   1   27.22   17.74
  -9   5  -1   29.51   20.76
  -9   5   1   24.22    9.50
  -9   5  -1   29.55    8.62
  -9  -5   1   28.83   15.44
   9  -5   1   25.07    8.21
  -9  -5  -1   27.26    8.61
  10   5   1   13.90    7.18
  10   5  -1   16.40    8.05
 -10   5   1   15.16   10.30
 -10   5  -1   18.45   10.13
 -10   5   1   14.08    8.46
 -10   5  -1   11.51    6.12
 -10  -5   1   17.83   10.36
 -10  -5  -1   10.78   13.03
  11   5   1    0.68    4.33
  11   5  -1    0.77    3.25
 -11   5   1    2.13    4.64
 -11   5  -1   -0.45    9.32
 -11   5   1    1.95    5.67
 -11   5  -1    0.83    0.88
 -11  -5   1    9.56    7.46
 -11  -5  -1   -0.37    8.80
  12   5   1   16.60    9.10
  12   5  -1   18.87    8.78
 -12   5   1   17.91    8.53
 -12   5  -1   17.29   12.18
 -12   5   1   19.17   10.19
 -12   5  -1   16.86   12.35
 -12  -5   1   19.85   16.40
 -12  -5  -1   26.05   19.48
  13   5   1   12.21   12.55
  13   5  -1    8.33    4.33
 -13   5   1    5.23    4.19
 -13   5  -1    0.93   10.15
 -13   5   1   13.02    5.51
 -13   5  -1   11.68    6.29
 -13  -5   1    9.88    6.59
 -13  -5  -1   11.73   10.59
  14   5   1  197.96   18.44
  14   5  -1  212.94   13.05
 -14   5   1  200.31   17.93
 -14   5  -1  205.90   19.39
 -14   5   1  203.52   16.74
 -14   5  -1  196.19   13.58
 -14  -5   1  217.19   18.96
 -14  -5  -1  213.99   22.44
  15   5   1   97.33   12.17
  15   5  -1   96.55    7.76
 -15   5   1   78.72   30.01
 -15   5  -1   20.08   14.30
 -15   5   1   89.82   11.05
 -15   5  -1   68.76   14.53
 -15  -5   1   90.25   25.49
 -15  -5  -1   95.59   18.33
  16   5   1 2519.89  104.62
 -16   5   1 2545.12  103.14
 -16   5  -1 2449.49  101.70
 -16   5   1 2579.26  106.50
 -16   5  -1 2605.72  104.82
 -16  -5   1 2539.76  106.59
 -16  -5  -1 2480.49  105.59
  17   5   1  209.88   19.05
 -17   5   1  168.99   14.91
 -17   5  -1  183.86   17.98
 -17   5   1  208.57   19.98
 -17   5  -1  191.66   12.51
 -17  -5   1  199.76   31.28
  18   5   1  622.02   49.80
 -18   5  -1  601.18   50.78
 -18   5   1  592.84   48.01
 -18   5  -1  626.57   47.77
 -18  -5   1  597.83   53.56
 -18  -5  -1  599.33   49.61
  19   5   1    5.48    7.85
 -19   5  -1    0.46    8.86
 -19   5   1    2.13    6.71
 -19   5  -1    1.05    3.81
 -19  -5   1   -0.36    4.28
 -19  -5  -1    4.85    6.06
  20   5   1  121.22   16.47
 -20   5  -1  120.83   21.60
 -20   5   1  136.37   26.20
 -20   5  -1  112.06   19.67
 -20  -5   1  128.16   37.21
 -20  -5  -1  130.07   42.09
  21   5   1   22.66   20.46
 -21   5  -1   30.20   12.33
 -21   5   1   28.32   13.58
 -21  -5   1   30.55   14.70
 -21  -5  -1   30.27   14.82
  22   5   1  188.21   19.55
 -22   5  -1  229.34   26.92
 -22   5   1  225.42   29.86
 -22  -5   1  214.80   46.69
 -22  -5  -1  205.07   26.70
 -23   5  -1    7.56   10.87
 -23   5   1    2.93    5.15
 -23  -5   1    3.55    6.65
 -23  -5  -1    3.47   10.68
 -24   5  -1   49.27   18.38
 -24   5   1   45.32   27.64
 -24  -5   1   41.59   26.70
 -24  -5  -1   41.46   22.22
   0   6   1    9.50    8.98
   0   6  -1   11.28    8.37
   0  -6   1    6.11    4.83
   0   6  -1    3.42    4.36
   0  -6  -1    9.61    7.12
  -1   6   1   98.70   24.25
  -1   6  -1   99.88   13.36
   1   6  -1   77.96    8.62
  -1  -6  -1   92.94   12.50
  -1   6  -1   90.58    5.98
   1  -6  -1   95.10   12.92
   2   6   1 4716.23  169.12
  -2   6   1 4619.26  166.22
   2   6  -1 4610.94  165.05
  -2   6  -1 4622.85  166.01
   2  -6   1 4539.88  160.19
  -2  -6  -1 4599.10  164.99
   2  -6  -1 4751.40  170.16
  -2   6  -1 4218.80  148.60
  -3   6   1  780.06   33.22
   3   6  -1  789.50   32.11
   3  -6   1  884.86   31.47
   3  -6   1  776.39   28.06
  -3  -6  -1  885.38   36.40
   5   6   1 1129.56   45.99
   5   6  -1 1368.62   59.11
  -5   6   1 1446.28   57.23
   5  -6   1 1243.44   44.97
  -5  -6  -1 1188.90   48.59
   7   6  -1  234.79   20.08
  -7   6   1  240.39   20.06
  -7   6  -1  255.83   20.11
  -7   6   1  235.25   25.99
   7  -6   1  223.79   11.51
  -7  -6  -1  255.90   39.32
   8   6   1   73.31   29.88
   8   6  -1   62.44   14.51
  -8   6   1   51.35   10.35
  -8   6  -1   66.53   11.44
  -8   6  -1   60.27   14.74
  -8   6   1   69.35   24.38
   8  -6   1   53.24    9.88
  -8  -6   1   53.45   26.45
  -8  -6  -1   58.88   17.20
   9   6   1   42.73    9.91
   9   6  -1   46.34    8.50
  -9   6   1   42.33    9.41
  -9   6  -1   38.70   11.79
  -9   6  -1   43.36   10.97
  -9   6   1   43.85   10.41
   9  -6   1   39.72    6.69
  -9  -6   1   47.46   26.78
  -9  -6  -1   46.74   10.31
  10   6   1 1394.31   54.44
  10   6  -1 1385.78   49.71
 -10   6   1 1408.84   53.67
 -10   6  -1 1395.44   55.82
 -10   6  -1 1349.16   47.93
 -10   6   1 1395.72   52.79
 -10  -6   1 1408.25   54.08
 -10  -6  -1 1363.09   53.05
  11   6   1  243.65   17.69
  11   6  -1  235.81   16.63
 -11   6   1  229.11   19.87
 -11   6  -1  229.48   15.46
 -11   6   1  273.23   23.55
 -11   6  -1  240.91   15.28
 -11  -6   1  246.00   21.47
 -11  -6  -1  260.88   19.78
  12   6   1 2317.98   76.21
  12   6  -1 2240.06   69.67
 -12   6   1 2344.13   75.31
 -12   6  -1 2349.77   76.98
 -12   6   1 2271.30   79.17
 -12   6  -1 2222.38   68.97
 -12  -6   1 2428.96   89.47
 -12  -6  -1 2312.34   76.49
  13   6   1  102.89   30.30
  13   6  -1   99.30   14.57
 -13   6   1  100.86   15.88
 -13   6  -1   77.91   16.07
 -13   6   1  114.09   57.54
 -13   6  -1   98.01   23.53
 -13  -6   1  110.21   57.45
 -13  -6  -1  112.32   17.02
  14   6   1  799.47   35.98
  14   6  -1  781.58   35.93
 -14   6   1  811.65   35.66
 -14   6  -1  822.87   38.12
 -14   6   1  761.35   43.12
 -14   6  -1  780.48   29.58
 -14  -6   1  844.11   55.79
 -14  -6  -1  800.86   38.23
  15   6   1   63.92   13.26
  15   6  -1   55.60   14.66
 -15   6   1   47.21    8.90
 -15   6  -1   60.04   14.30
 -15   6   1   68.49   15.26
 -15   6  -1   59.53   18.32
 -15  -6   1   65.37   28.19
 -15  -6  -1   58.90   15.20
  16   6   1   67.23   30.30
  16   6  -1   49.80   15.91
 -16   6   1   57.48    9.73
 -16   6  -1   58.31   11.31
 -16   6   1   81.63   26.66
 -16   6  -1   64.26   25.74
 -16  -6   1   78.18   32.82
 -16  -6  -1   72.55   13.02
  17   6   1   31.92   25.61
 -17   6   1   21.45    8.24
 -17   6  -1   26.46   13.77
 -17   6   1   28.83   27.54
 -17   6  -1   31.59   13.30
 -17  -6   1   44.09   24.02
 -17  -6  -1   29.20   11.05
  18   6   1 1234.25   77.40
 -18   6  -1 1254.65   55.75
 -18   6   1 1279.13   58.99
 -18   6  -1 1133.38   47.09
 -18  -6   1 1275.45   62.67
 -18  -6  -1 1251.74   60.33
  19   6   1  163.38   26.41
 -19   6  -1  122.61   22.63
 -19   6   1  156.45   41.24
 -19   6  -1  116.23   15.18
 -19  -6   1  159.55   41.56
 -19  -6  -1  139.02   23.72
  20   6   1 1567.53   83.76
 -20   6  -1 1483.23   79.91
 -20   6   1 1525.89   86.36
 -20  -6   1 1420.73   79.56
 -20  -6  -1 1535.87   97.51
  21   6   1   74.65   20.71
 -21   6  -1   92.04   17.96
 -21   6   1   73.09   17.80
 -21  -6   1   96.79   18.65
 -21  -6  -1   75.46   31.51
  22   6   1   96.16   35.04
 -22   6  -1   99.62   13.51
 -22   6   1   99.54   24.12
 -22  -6   1   92.22   42.77
 -22  -6  -1   81.55   41.61
  23   6   1    0.39    4.66
 -23   6  -1   -0.41    7.23
 -23   6   1   -1.51    7.59
 -23  -6   1    3.61    8.98
 -23  -6  -1    2.53    7.90
  24   6   1  117.22   19.36
 -24   6  -1  147.80   24.73
 -24   6   1  152.94   22.31
 -24  -6   1  119.36   50.40
 -24  -6  -1  142.39   21.86
   0   7   1 1679.29   63.82
   0  -7   1 1643.65   60.39
   0  -7  -1 1696.10   64.69
   1   7   1  172.02   22.62
   1  -7   1  183.46   12.60
  -1  -7  -1  166.26   15.11
  -1   7  -1  154.57    8.58
   1  -7  -1  162.33   14.40
   2   7   1  372.88   19.68
  -2   7   1  391.49   28.03
   2   7  -1  373.14   23.06
  -2  -7   1  378.30   19.35
   2  -7   1  376.52   16.22
  -2  -7  -1  351.05   19.94
   2  -7  -1  370.33   21.02
  -2   7  -1  350.87   14.73
   3   7   1   19.16   12.54
  -3   7   1   16.45   11.92
   3   7  -1   15.02    6.95
   3  -7   1   15.88    5.44
  -3  -7   1   14.76    9.15
   3  -7   1   10.96    7.93
  -3  -7  -1   11.54    7.33
   3  -7  -1   17.35   10.04
   4   7   1  567.16   26.49
  -4   7   1  601.27   30.66
   4   7  -1  579.24   26.59
  -4   7  -1  619.24   29.20
   4  -7   1  629.40   25.14
  -4  -7   1  609.56   28.93
  -4  -7  -1  591.23   26.99
   4  -7   1  548.96   27.35
   4  -7  -1  573.83   26.71
   5   7   1   78.36   14.93
   5   7  -1   76.09   10.04
  -5   7   1   81.71   23.27
   5  -7   1   79.52    8.28
  -5  -7   1   75.56   13.96
  -5  -7  -1   82.86   11.47
   5  -7   1   81.61    7.63
   6   7   1 1192.26   47.97
   6   7  -1 1142.37   48.96
  -6   7   1 1159.24   47.46
  -6   7   1 1187.49   48.43
   6  -7   1 1167.17   42.36
  -6  -7   1 1226.39   49.92
  -6  -7  -1 1129.52   50.23
   7   7   1  135.98   12.33
   7   7  -1  131.52   14.35
  -7   7   1  132.27   12.89
  -7   7  -1  150.43   18.97
  -7   7   1  126.84   12.24
   7  -7   1  129.11    7.87
  -7  -7   1  131.73   31.36
  -7  -7  -1  132.39   13.49
   7  -7   1  129.55    8.21
   8   7   1 1049.12   42.55
   8   7  -1 1052.08   42.65
  -8   7   1 1058.02   42.42
  -8   7  -1 1029.88   45.06
  -8   7   1  946.93   49.44
  -8  -7   1 1063.79   44.22
  -8  -7  -1 1046.34   43.51
   9   7   1   72.20   26.86
   9   7  -1   70.98   11.22
  -9   7   1   79.99   28.19
  -9   7  -1   64.54   11.73
  -9   7  -1   79.61    8.90
  -9   7   1   79.49   25.93
  -9  -7   1   66.54   11.01
  -9  -7  -1   92.08   39.03
  10   7   1  760.82   32.79
  10   7  -1  762.26   30.17
 -10   7   1  747.83   44.93
 -10   7  -1  764.80   33.87
 -10   7  -1  740.46   25.61
 -10   7   1  715.35   34.63
 -10  -7   1  784.02   35.49
 -10  -7  -1  752.89   34.98
  11   7   1   43.50   18.51
  11   7  -1   32.74   14.77
 -11   7   1   32.95   19.42
 -11   7  -1   33.69   11.44
 -11   7  -1   29.72   14.49
 -11   7   1   42.48   18.50
 -11  -7   1   32.37   18.89
 -11  -7  -1   33.87   11.12
  12   7   1   73.48   10.48
  12   7  -1   75.41   15.82
 -12   7   1   73.02   20.56
 -12   7  -1   77.83   11.13
 -12   7  -1   71.74   12.27
 -12   7   1   91.74   43.01
 -12  -7   1   89.85   20.68
 -12  -7  -1   75.56   14.07
  13   7   1  113.30   13.68
  13   7  -1  106.69    8.96
 -13   7   1  104.77   14.23
 -13   7  -1   97.79   12.66
 -13   7  -1   97.37    7.44
 -13  -7   1  112.86   33.15
 -13  -7  -1  117.97   20.49
  14   7   1 1754.51   66.32
  14   7  -1 1701.50   60.34
 -14   7   1 1728.67   64.26
 -14   7  -1 1578.95   58.13
 -14   7   1 1659.73   62.90
 -14   7  -1 1641.81   55.97
 -14  -7   1 1737.10   69.83
 -14  -7  -1 1732.06   66.90
  15   7   1  173.83   20.03
  15   7  -1  157.40   16.29
 -15   7   1  137.02   50.58
 -15   7  -1  141.05   18.94
 -15   7   1  158.81   15.33
 -15   7  -1  140.24   21.12
 -15  -7   1  171.77   45.20
 -15  -7  -1  165.56   21.68
  16   7   1 1505.43   72.27
 -16   7   1 1529.51   70.88
 -16   7  -1 1497.69   71.94
 -16   7   1 1424.64   66.66
 -16   7  -1 1360.59   63.49
 -16  -7   1 1498.03   74.22
 -16  -7  -1 1483.60   74.14
  17   7   1   73.73   43.55
 -17   7   1   53.92    8.88
 -17   7  -1   68.12   12.87
 -17   7   1   79.09   39.96
 -17   7  -1   66.09    7.90
 -17  -7   1   81.94   40.52
 -17  -7  -1   76.97   18.14
  18   7   1  199.92   35.47
 -18   7  -1  209.10   28.30
 -18   7   1  218.63   30.14
 -18  -7   1  204.15   30.23
 -18  -7  -1  230.59   34.16
  19   7   1   10.50    8.84
 -19   7  -1    6.74   10.13
 -19   7   1    0.92    6.37
 -19  -7   1    7.51    9.79
 -19  -7  -1   12.35   11.47
  20   7   1  107.54   29.62
 -20   7  -1  144.56   23.25
 -20   7   1  146.24   23.04
 -20  -7   1  123.44   52.41
 -20  -7  -1  132.45   34.62
  21   7   1    4.02    8.40
 -21   7  -1    9.32    9.81
 -21   7   1   -0.16    7.93
 -21  -7   1    3.52    7.80
 -21  -7  -1    1.92    9.89
  22   7   1   55.97   45.86
 -22   7  -1   96.35   21.90
 -22   7   1  100.57   21.82
 -22  -7   1   77.02   32.19
 -22  -7  -1   80.57   35.98
  23   7   1   17.92   22.64
 -23   7  -1   23.26   18.03
 -23   7   1   32.91   20.24
 -23  -7   1   30.62   14.21
 -23  -7  -1   32.89   17.11
   0   8   1    0.64    5.72
   0   8  -1   -0.91    8.43
   0  -8   1    3.70    6.47
   0  -8  -1    4.57    6.80
   1   8   1    8.57    6.55
  -1   8   1    3.79    6.78
  -1   8  -1    7.83   12.25
  -1  -8   1    3.38    5.51
   1  -8   1    7.53    4.05
  -1  -8  -1    6.52    6.58
   1  -8  -1    2.48    6.38
   2   8   1   10.76    6.74
  -2   8   1    5.03    4.83
   2   8  -1   10.85   11.19
  -2   8  -1    6.69    8.45
  -2  -8   1    7.76    7.20
   2  -8   1    5.62    6.41
  -2  -8  -1    9.79    7.19
   2  -8  -1    5.97    7.53
  -2   8  -1    2.83    3.60
   3   8   1   50.28   18.33
   3   8  -1   55.85   30.08
   3  -8   1   53.58    6.67
   3  -8   1   53.44   14.37
   3  -8  -1   46.66   11.08
   4   8   1 1816.10   68.90
  -4   8   1 1907.08   75.80
  -4   8  -1 1998.09   75.75
   4  -8   1 2068.44   73.70
  -4  -8   1 1992.63   74.36
   4  -8   1 2009.07   71.86
  -4  -8  -1 1977.27   74.39
   4  -8  -1 1854.02   69.31
   5   8   1  202.02   15.33
  -5   8  -1  216.73   31.17
   5  -8   1  186.63   13.85
   5  -8   1  195.14   11.28
   5  -8  -1  176.61   15.50
   6   8   1 1044.19   45.66
   6   8  -1  997.19   48.59
  -6   8   1 1019.90   41.41
  -6   8  -1 1034.95   42.79
   6  -8   1 1008.29   35.75
  -6  -8   1 1032.78   42.61
  -6  -8  -1 1004.89   41.83
   6  -8   1 1040.80   37.34
   7   8   1   17.60   11.24
   7   8  -1   12.05    6.68
  -7   8   1   15.83    8.20
  -7   8  -1   13.57    8.12
  -7   8   1   16.42    7.05
   7  -8   1   10.35    5.91
  -7  -8   1   17.23   12.43
  -7  -8  -1   13.12   15.04
   7  -8   1    8.12    3.59
   8   8   1   61.28   26.33
   8   8  -1   51.36   12.09
  -8   8   1   56.01   16.52
  -8   8  -1   48.35   17.00
  -8   8   1   47.58   11.13
  -8  -8   1   43.96   12.37
  -8  -8  -1   37.22   11.23
   8  -8   1   50.00    6.27
   9   8   1   33.60   19.56
   9   8  -1   27.12   11.19
  -9   8   1   17.94    8.60
  -9   8  -1   27.94   12.51
  -9   8   1   31.31   18.82
  -9  -8   1   20.70    9.58
  -9  -8  -1   31.19   16.29
   9  -8   1   20.86    4.33
  10   8   1  148.84   17.95
  10   8  -1  131.45   17.90
 -10   8   1  159.27   15.42
 -10   8  -1  137.60   20.24
 -10   8   1  135.98   16.30
 -10  -8   1  133.52   20.21
 -10  -8  -1  147.53   23.80
  11   8   1    2.95    6.41
  11   8  -1    2.72    3.94
 -11   8   1    1.99    6.90
 -11   8  -1    2.22   11.04
 -11   8  -1    1.68    2.45
 -11   8   1    0.83    4.59
 -11  -8   1   -0.43    7.96
 -11  -8  -1    1.83    9.38
  12   8   1   -0.54    8.02
  12   8  -1   13.95    9.15
 -12   8   1   13.19   10.47
 -12   8  -1    8.62    9.39
 -12   8  -1    5.11    3.42
 -12   8   1    2.84    4.50
 -12  -8   1   14.04    8.26
 -12  -8  -1    5.15   10.34
  13   8   1   35.72   25.00
  13   8  -1   31.40   14.37
 -13   8   1   18.02   11.22
 -13   8  -1   28.29   12.70
 -13   8  -1   28.98   12.56
 -13   8   1   41.30   21.84
 -13  -8   1   36.85   21.19
 -13  -8  -1   30.69   16.74
  14   8   1  827.58   42.70
  14   8  -1  769.84   35.46
 -14   8   1  779.79   38.97
 -14   8  -1  827.84   42.39
 -14   8  -1  754.49   33.21
 -14   8   1  755.07   40.52
 -14  -8   1  738.25   88.21
 -14  -8  -1  775.10   45.33
  15   8   1   61.72   35.18
  15   8  -1   48.00   10.30
 -15   8   1   44.66   18.05
 -15   8  -1   39.66   11.42
 -15   8  -1   45.05   15.23
 -15   8   1   66.42   34.30
 -15  -8   1   63.15   32.82
 -15  -8  -1   61.92   17.00
  16   8   1  118.02   38.84
  16   8  -1  112.23   16.99
 -16   8   1  125.92   14.93
 -16   8  -1  127.65   19.24
 -16   8  -1  115.49   11.85
 -16   8   1  122.87   23.74
 -16  -8   1  130.58   21.61
 -16  -8  -1  122.75   23.10
  17   8   1    3.43    5.47
 -17   8   1   -0.24    5.41
 -17   8  -1    2.80   10.69
 -17   8   1   -0.63    8.04
 -17  -8   1   11.40   16.60
 -17  -8  -1    5.68   12.76
  18   8   1  345.54   44.41
 -18   8  -1  413.53   50.01
 -18   8   1  360.82   43.50
 -18  -8   1  379.28   55.00
 -18  -8  -1  381.28   48.25
  19   8   1   65.57   55.34
 -19   8  -1   72.46   15.14
 -19   8   1   75.44   32.06
 -19  -8   1   93.91   43.19
 -19  -8  -1   71.65   18.55
  20   8   1  378.97   43.22
 -20   8  -1  410.76   38.23
 -20   8   1  404.67   34.71
 -20  -8   1  373.20   40.77
 -20  -8  -1  396.18   38.33
  21   8   1    3.37    5.82
 -21   8  -1    3.60   13.46
 -21   8   1    2.61    5.36
 -21  -8   1    8.30   10.29
 -21  -8  -1    9.42   16.57
  22   8   1    2.10    7.90
 -22   8  -1   13.92   12.02
 -22   8   1    3.36    7.81
 -22  -8   1    4.48    7.32
 -22  -8  -1    5.09   11.75
  23   8   1    1.25    7.12
 -23   8  -1    7.01    9.12
 -23   8   1    3.07    6.04
 -23  -8   1    3.32    6.18
 -23  -8  -1    3.17    9.80
   0   9   1 1315.77   56.18
   0   9  -1 1295.64   52.12
   0  -9   1 1313.25   49.74
   0  -9  -1 1304.64   52.10
   1   9  -1   96.55   13.05
  -1  -9  -1  105.58   14.57
   1  -9  -1   86.87   13.83
   2   9   1  602.66   37.66
  -2   9   1  604.22   27.76
   2   9  -1  614.62   29.61
  -2   9  -1  632.70   29.67
  -2  -9   1  615.65   27.27
   2  -9   1  622.19   24.97
  -2  -9  -1  630.04   29.20
   2  -9  -1  589.87   27.99
   3   9   1   21.32   12.17
   3   9  -1   28.70   15.65
  -3   9  -1   20.62   13.00
   3  -9   1   18.56   11.17
  -3  -9  -1   19.34   11.01
   3  -9  -1   15.65    7.74
   4   9   1   51.74   13.50
  -4   9   1   71.28   17.59
   4   9  -1   63.54   12.50
  -4   9  -1   65.02   13.49
  -4  -9   1   63.63   14.64
   4  -9   1   58.29    7.75
  -4  -9  -1   59.80   13.25
   4  -9  -1   69.00   14.23
   5   9   1   72.16   18.82
  -5   9   1   66.18   17.34
   5   9  -1   75.60   16.67
  -5   9  -1  107.59   17.08
  -5  -9   1   72.40   12.70
  -5  -9  -1   55.34   13.82
   5  -9   1   74.65    8.01
   5  -9  -1   64.23   12.24
   6   9   1 1894.71   71.55
   6   9  -1 1841.91   68.83
  -6  -9   1 1875.44   70.14
  -6  -9  -1 1875.08   73.45
   6  -9   1 1865.50   65.03
   6  -9  -1 1814.75   67.32
   7   9   1  268.30   17.56
  -7  -9  -1  246.60   23.74
   8   9   1 3256.53  110.89
   8   9  -1 3297.32  107.22
  -8   9   1 3250.41  107.33
  -8   9  -1 3213.32  104.34
  -8   9   1 3221.10  100.60
  -8  -9  -1 3121.40   98.60
   8  -9   1 3186.14   94.86
   9   9   1  233.58   28.28
   9   9  -1  247.07   27.26
  -9   9   1  213.73   21.07
  -9  -9  -1  229.78   21.35
   9  -9   1  224.81   12.99
  10   9   1 1024.75   50.32
  10   9  -1 1054.05   44.12
 -10   9   1 1012.19   41.13
 -10   9  -1 1080.73   48.97
 -10  -9   1 1013.47   44.06
 -10  -9  -1 1015.33   42.82
  10  -9   1 1033.29   36.39
  11   9   1    7.22    8.63
  11   9  -1   16.15    5.58
 -11   9   1    7.07    7.86
 -11   9  -1    9.92   19.35
 -11   9   1   11.44    8.97
 -11  -9   1   15.33   11.36
 -11  -9  -1   17.28   14.25
  12   9   1   39.97   12.37
  12   9  -1   36.61   14.06
 -12   9   1   51.32   12.45
 -12   9  -1   42.29   29.72
 -12   9   1   46.87   28.87
 -12  -9   1   42.89   16.90
 -12  -9  -1   36.26   14.14
  13   9   1   50.55   17.00
  13   9  -1   42.39   12.86
 -13   9   1   37.64   24.75
 -13   9  -1   42.31   17.50
 -13   9  -1   35.87   16.36
 -13   9   1   51.32   25.15
 -13  -9   1   52.16   28.86
 -13  -9  -1   47.01   17.30
  14   9   1 1463.17   70.02
  14   9  -1 1532.02   70.05
 -14   9   1 1509.04   71.09
 -14   9  -1 1551.55   73.93
 -14   9  -1 1351.90   61.39
 -14   9   1 1433.04   67.56
 -14  -9   1 1396.31   68.45
 -14  -9  -1 1486.07   73.26
  15   9   1  224.78   41.48
  15   9  -1  243.29   23.90
 -15   9   1  168.19   24.13
 -15   9  -1  202.04   23.87
 -15   9   1  217.32   24.81
 -15  -9   1  278.09   62.04
 -15  -9  -1  232.93   28.26
  16   9   1 2964.00  119.25
 -16   9   1 2959.59  116.33
 -16   9  -1 3015.60  305.71
 -16   9   1 2709.58  112.24
 -16  -9   1 2959.15  118.97
 -16  -9  -1 3114.50  316.65
  17   9   1  221.44   43.13
 -17   9   1  199.07   25.96
 -17   9  -1   84.43   22.08
 -17   9   1  206.20   25.11
 -17  -9   1  239.91   35.02
 -17  -9  -1  249.15   36.63
  18   9   1 2059.11  108.47
 -18   9  -1 2104.46  110.94
 -18   9   1 1946.80  111.85
 -18  -9   1 2175.91  142.25
 -18  -9  -1 2295.78  133.64
  19   9   1   93.74   21.57
 -19   9  -1   79.15   13.04
 -19   9   1   97.37   38.24
 -19  -9   1  115.82   39.59
 -19  -9  -1  100.94   25.42
  20   9   1  160.21   15.56
 -20   9  -1  146.74   32.34
 -20   9   1  158.51   20.42
 -20  -9   1  171.18   44.30
 -20  -9  -1  150.23   24.27
  21   9   1    1.14    4.98
 -21   9  -1    1.90    7.58
 -21   9   1    1.74    5.57
 -21  -9   1    2.73    7.43
 -21  -9  -1    3.06    7.67
  22   9   1  252.88   24.39
 -22   9  -1  239.46   31.38
 -22   9   1  276.86   25.87
 -22  -9   1  265.26   58.59
 -22  -9  -1  270.11   29.24
   0  10   1   12.32    9.81
   0  10  -1   16.38   14.92
   0 -10   1    4.97    9.09
   0 -10  -1    9.50   11.66
   1  10  -1   59.39   33.26
  -1  10  -1   70.44   15.35
  -1 -10   1   51.14   14.97
  -1 -10  -1   72.81   18.65
   1 -10  -1   48.58   14.28
  -2  10   1 1454.59   56.51
   2  10  -1 1460.53   56.50
  -2  10  -1 1445.58   56.61
  -2 -10   1 1457.00   55.60
   2 -10   1 1473.59   53.01
  -2 -10  -1 1501.54   58.94
   3  10   1  133.04   22.09
   3 -10   1  139.64   11.72
   4  10   1  452.22   24.95
  -4  10   1  525.40   33.22
   4  10  -1  515.97   28.62
  -4 -10   1  523.22   25.47
   4 -10   1  551.15   26.13
  -4 -10  -1  554.28   29.12
   4 -10  -1  501.45   24.82
   5  10   1   20.54   15.01
  -5  10   1   19.24   13.50
   5  10  -1   17.70    8.68
  -5 -10   1   15.88   14.85
  -5 -10  -1   18.67   11.94
   5 -10   1   10.84    6.58
   5 -10  -1   17.69   10.44
   6  10   1  331.07   36.99
   6  10  -1  366.38   28.52
  -6  10   1  359.70   35.17
  -6  10  -1  324.96   25.11
  -6 -10   1  355.48   22.96
  -6 -10  -1  328.35   38.09
   6 -10   1  358.45   16.70
   6 -10  -1  340.05   23.55
   7  10   1   75.16   19.01
   7  10  -1   78.25   13.09
  -7  10   1   70.37   30.17
  -7  10  -1   81.68   19.69
  -7 -10  -1   56.53   11.37
   7 -10   1   65.62    8.77
   7 -10  -1   61.96   14.69
   8  10   1 1002.81   43.66
   8  10  -1 1006.46   56.02
  -8  10   1  984.04   41.63
  -8  10  -1  988.51   45.67
  -8 -10   1  963.91   56.19
  -8 -10  -1  956.51   58.02
   8 -10   1  977.53   34.99
   8 -10  -1  979.73   41.67
   9  10   1   57.22   16.08
   9  10  -1   65.21   22.06
  -9  10   1   49.39   12.19
  -9  10  -1   58.38   29.97
  -9 -10   1   47.54   16.56
  -9 -10  -1   46.57   12.78
   9 -10   1   45.97    7.73
  10  10   1   14.81   10.16
  10  10  -1   30.14   12.64
 -10  10   1   17.77   11.35
 -10  10  -1   28.65   11.67
 -10  10   1   33.28   16.54
 -10 -10   1   22.10   11.44
 -10 -10  -1    7.92   11.07
  10 -10   1   17.85    6.27
  11  10   1   14.58   12.21
  11  10  -1   24.35   10.21
 -11  10   1   15.39    8.11
 -11  10  -1   14.51    8.53
 -11  10   1   17.71   12.39
 -11 -10   1   19.85    7.78
 -11 -10  -1   19.76   11.25
  11 -10   1   12.71    4.97
  12  10   1  574.41   33.45
  12  10  -1  574.96   43.49
 -12  10   1  581.95   34.11
 -12  10  -1  558.44   36.87
 -12  10   1  539.37   39.09
 -12 -10   1  586.92   35.87
 -12 -10  -1  540.22   34.28
  12 -10   1  587.28   29.14
  13  10   1   47.57   24.89
  13  10  -1   47.07   12.69
 -13  10   1   38.32   23.67
 -13  10  -1   42.85   14.60
 -13  10   1   53.61   25.43
 -13 -10   1   47.99   22.86
 -13 -10  -1   49.68   13.50
  14  10   1   85.17   41.67
  14  10  -1   79.42   25.19
 -14  10   1   78.12   13.67
 -14  10  -1   86.05   17.04
 -14  10   1   85.29   12.86
 -14 -10   1   87.27   37.42
 -14 -10  -1   78.47   17.08
  15  10   1    2.51    5.38
  15  10  -1    2.14    3.83
 -15  10   1    0.21    3.50
 -15  10  -1    4.30   11.80
 -15  10   1    1.58    3.81
 -15 -10   1    3.27    5.45
 -15 -10  -1    3.23    6.11
  16  10   1   20.00   18.76
  16  10  -1   24.90   12.11
 -16  10   1   18.85   12.58
 -16  10  -1   23.00   13.03
 -16  10   1   25.81   16.19
 -16 -10   1   25.93   13.43
 -16 -10  -1   12.34   16.74
  17  10   1    8.73    6.45
 -17  10   1   -0.35    6.36
 -17  10  -1    2.15   10.72
 -17  10   1    0.14    5.76
 -17 -10   1    2.42    5.51
 -17 -10  -1   -2.52   10.94
  18  10   1   20.58   14.76
 -18  10  -1   17.99   12.51
 -18  10   1   21.33    6.50
 -18 -10   1   19.44    9.67
 -18 -10  -1   11.92    9.38
  19  10   1    1.77    3.24
 -19  10  -1    0.92    9.56
 -19  10   1    2.80    4.19
 -19 -10   1    2.27    8.39
 -19 -10  -1   -0.31   10.45
  20  10   1   38.75   30.61
 -20  10  -1   48.33   25.14
 -20  10   1   39.00   33.73
 -20 -10   1   58.53   33.89
 -20 -10  -1   70.88   21.50
  21  10   1   12.35    8.64
 -21  10  -1   -1.27    9.80
 -21  10   1   13.13   12.05
 -21 -10   1   11.89   11.75
 -21 -10  -1   12.77    9.84
   0  11   1  955.68   47.94
   0  11  -1 1027.00   40.95
   0 -11   1 1074.02   40.02
  -1 -11  -1   99.75   16.90
   2  11   1  618.40   31.36
  -2  11   1  648.60   36.64
   2  11  -1  632.98   30.80
  -2 -11   1  587.30   24.66
   2 -11   1  627.24   30.81
  -2 -11  -1  636.91   30.16
   2 -11  -1  607.56   28.46
   3  11   1   48.00   28.33
   3  11  -1   44.54   29.51
  -3  11  -1   37.29    8.97
  -3 -11   1   34.83   19.14
   3 -11   1   40.90   21.87
  -3 -11  -1   40.74   10.49
   3 -11  -1   14.90    8.48
   4  11   1   33.42   21.65
  -4  11   1   38.79   22.69
   4  11  -1   36.58   15.09
  -4  11  -1   42.96   15.64
  -4 -11   1   32.59   26.35
   4 -11   1   42.32   13.85
  -4 -11  -1   35.29   11.41
   4 -11  -1   33.90   10.74
   5  11   1   40.38   31.13
  -5  11   1   44.10   26.95
   5  11  -1   35.75   21.92
  -5 -11   1   35.28   15.66
  -5 -11  -1   41.54   31.06
   5 -11   1   35.77    9.37
   5 -11  -1   29.89    9.54
   6  11   1 1279.49   64.82
   6  11  -1 1290.00   51.57
  -6  11  -1 1131.76   53.74
  -6 -11   1 1241.20   50.50
  -6 -11  -1 1279.11   68.21
   6 -11   1 1273.17   44.43
   6 -11  -1 1252.66   49.23
   7  11   1  180.50   16.97
   7  11  -1  172.69   47.79
  -7  11   1  170.81   27.93
  -7  11  -1  180.37   34.41
   7 -11   1  183.60   14.43
   8  11   1 1455.71   58.13
   8  11  -1 1448.13   67.00
  -8  11   1 1420.48   58.06
  -8 -11   1 1426.66   58.33
  -8 -11  -1 1323.68   70.48
   8 -11  -1 1451.58   57.54
   9  11   1   66.71   33.21
   9  11  -1   66.91   17.35
  -9  11   1   66.90   32.11
  -9  11  -1   55.85   16.07
  -9 -11   1   55.02   16.39
  -9 -11  -1   56.52   12.68
   9 -11   1   58.42    8.26
  10  11   1  123.94   21.26
  10  11  -1  128.59   23.06
 -10  11   1  104.64   25.88
 -10  11  -1  113.85   19.31
 -10 -11   1  117.48   17.43
 -10 -11  -1  113.33   17.63
  10 -11   1  107.63    9.21
  11  11   1    4.15    7.96
  11  11  -1   -0.48    5.41
 -11  11   1    2.57    5.38
 -11  11  -1    2.98   10.30
 -11 -11   1    2.08    7.91
 -11 -11  -1    2.44    9.99
  11 -11   1    2.34    5.36
  12  11   1   16.97   14.05
  12  11  -1   21.00   10.08
 -12  11   1   16.49   11.53
 -12  11  -1   18.07   11.17
 -12  11   1   15.46   12.80
 -12 -11   1   18.28   13.77
 -12 -11  -1    9.64   11.06
  12 -11   1   19.61    5.93
  13  11   1    7.99    5.45
  13  11  -1    6.76    5.33
 -13  11   1    5.34    7.07
 -13  11  -1    6.10   11.02
 -13  11   1    4.50    4.20
 -13 -11   1    5.63    9.82
 -13 -11  -1    8.84   12.60
  14  11   1  217.38   29.66
  14  11  -1  206.46   28.52
 -14  11   1  236.79   32.02
 -14  11  -1  227.79   50.47
 -14  11   1  217.94   30.15
 -14 -11   1  211.31   69.91
 -14 -11  -1  190.51   55.31
  15  11   1   56.95   32.77
  15  11  -1   59.45   24.83
 -15  11   1   50.05   12.10
 -15  11  -1   50.87   25.26
 -15  11   1   56.44   26.59
 -15 -11   1   56.71   24.58
 -15 -11  -1   58.42   34.41
  16  11   1  898.64   63.54
 -16  11   1  910.58   52.76
 -16  11  -1  878.77   52.24
 -16  11   1  826.76   48.33
 -16 -11   1  907.72   62.80
 -16 -11  -1  939.52   60.99
  17  11   1   87.18   23.98
 -17  11   1   61.17   12.13
 -17  11  -1    7.06   10.78
 -17  11   1   77.00   13.17
 -17 -11   1  105.37   47.00
 -17 -11  -1  104.64   21.57
  18  11   1  446.17   27.97
 -18  11  -1  400.94   28.89
 -18  11   1  383.87   30.56
 -18 -11   1  405.98   30.30
 -18 -11  -1  418.15   33.13
  19  11   1    3.63    5.61
 -19  11  -1   -0.47    9.29
 -19  11   1    1.45    4.57
 -19 -11   1    2.02    7.79
 -19 -11  -1    3.80   10.18
  20  11   1   93.51   22.05
 -20  11  -1   85.03   54.42
 -20  11   1   76.42   45.13
 -20 -11   1   95.58   42.51
 -20 -11  -1   95.06   15.52
  21  11   1   19.03   12.59
 -21  11  -1   16.91   20.11
 -21  11   1   16.12    8.23
 -21 -11   1   23.39   16.37
 -21 -11  -1   20.30   16.92
   0  12   1   14.63   11.14
   0  12  -1   14.27   15.69
   0 -12   1    1.11    9.03
   0 -12  -1   13.30   10.85
   1 -12  -1  109.96   17.31
  -2  12   1 2823.63  106.94
  -2 -12  -1 2943.13  102.66
  -3 -12  -1  547.61   32.57
  -4 -12  -1 5549.24  183.40
  -5 -12  -1  505.56   31.91
   5 -12   1  357.24   19.42
   6  12  -1 2708.74  116.00
  -6  12   1 2712.23  114.32
  -6 -12   1 2562.62  105.67
  -6 -12  -1 2533.08  105.01
   6 -12   1 2636.34  105.70
   7  12   1  115.92   32.17
   7  12  -1  102.40   13.31
  -7  12   1  112.54   16.21
  -7  12  -1  114.77   23.28
  -7 -12  -1  104.50   15.82
   7 -12   1  106.05   11.23
   8  12   1  239.96   36.22
   8  12  -1  223.25   19.54
  -8  12   1  249.75   22.07
  -8  12  -1  239.11   27.63
  -8 -12   1  218.43   19.08
  -8 -12  -1  216.36   30.31
   8 -12   1  227.01   15.16
   8 -12  -1  234.69   22.95
   9  12   1    4.21    7.25
   9  12  -1    4.14    5.32
  -9  12   1    7.85   11.16
  -9  12  -1    1.38   11.99
  -9 -12   1   -2.35    9.97
  -9 -12  -1    0.79   10.44
   9 -12   1    6.84    6.60
   9 -12  -1    4.88    7.57
  10  12   1  730.61   74.67
  10  12  -1  751.09   71.08
 -10  12   1  680.04   63.05
 -10  12  -1  674.28   56.03
 -10 -12   1  756.36   63.20
 -10 -12  -1  657.95   54.15
  10 -12  -1  740.79   59.86
  11  12   1  159.00   19.26
  11  12  -1  186.41   22.59
 -11  12   1  150.00   24.74
 -11  12  -1  158.43   20.95
 -11 -12   1  167.92   34.98
 -11 -12  -1  175.84   24.52
  11 -12  -1  196.96   33.01
  12  12   1 2073.02   88.16
  12  12  -1 2010.82   84.14
 -12  12   1 2021.54   84.97
 -12  12  -1 1926.18   83.29
 -12 -12   1 1952.98   83.12
 -12 -12  -1 1973.89   84.22
  12 -12  -1 2019.89   85.86
  13  12   1  145.73   20.93
  13  12  -1  150.74   25.28
 -13  12   1  125.23   20.58
 -13  12  -1  130.31   21.23
 -13 -12   1  116.71   54.38
  14  12   1  695.60   48.82
  14  12  -1  657.03   40.18
 -14  12   1  704.68   43.93
 -14  12  -1  704.68   47.49
 -14  12   1  661.71   43.76
 -14 -12   1  651.12   48.14
 -14 -12  -1  724.84   46.43
  15  12   1    5.78    7.01
  15  12  -1    3.98    6.54
 -15  12   1    2.31    7.63
 -15  12  -1   -2.40   11.69
 -15  12   1    5.41    6.36
 -15 -12   1    8.45    7.69
 -15 -12  -1    7.58   12.63
  16  12   1   45.02   16.91
 -16  12   1   54.27   15.95
 -16  12  -1   39.06   10.62
 -16  12   1   43.83   24.97
 -16 -12   1   44.39   27.53
 -16 -12  -1   47.63   16.41
  17  12   1   24.56   17.41
 -17  12   1   22.77    9.57
 -17  12  -1   14.14   15.00
 -17  12   1   18.58   16.18
 -17 -12   1   20.18   13.94
 -17 -12  -1   23.58   13.45
  18  12   1  447.95   33.68
 -18  12  -1  515.28   41.54
 -18  12   1  446.98   33.52
 -18 -12   1  485.51   36.68
 -18 -12  -1  481.59   36.46
  19  12   1   48.39   32.09
 -19  12  -1   -2.57   11.65
 -19  12   1   49.40   27.51
 -19 -12   1   57.29   22.78
 -19 -12  -1   71.37   18.32
  20  12   1  628.93   50.73
 -20  12  -1  679.52   57.83
 -20  12   1  626.84   49.14
 -20 -12   1  619.40   51.84
 -20 -12  -1  691.40   59.11
   0  13  -1 1704.59   74.57
   0 -13   1 1705.49   71.88
   1  13   1  101.08   33.35
  -1 -13  -1   93.63   16.63
   2  13   1   21.85   11.47
  -2  13   1   30.86   16.59
   2  13  -1   14.65   11.13
  -2  13  -1   16.26   12.10
  -2 -13   1   10.68   21.14
   2 -13   1   17.26   14.14
  -2 -13  -1   22.64   13.73
   2 -13  -1   15.46   10.78
  -3  13   1   27.19   16.25
   3  13  -1   29.34   16.72
  -3 -13   1   24.48   15.60
   3 -13   1   21.93    9.92
  -3 -13  -1   24.76   17.38
   3 -13  -1   23.60   11.37
  -4  13   1  560.95   33.65
   4  13  -1  532.95   39.95
  -4 -13   1  474.93   25.03
   4 -13   1  528.00   28.06
  -4 -13  -1  538.58   32.85
   4 -13  -1  557.09   31.98
   5  13   1   70.18   30.72
  -5  13   1   57.52   15.94
   5  13  -1   77.76   35.70
  -5 -13   1   46.96   12.62
  -5 -13  -1   60.30   34.40
   5 -13   1   46.47   20.42
   6  13   1  312.00   24.52
   6  13  -1  270.90   24.95
  -6  13   1  296.64   39.73
  -6  13  -1  286.98   22.91
  -6 -13   1  255.16   17.76
  -6 -13  -1  272.20   22.06
   6 -13   1  262.70   18.84
   6 -13  -1  294.51   23.37
   7  13   1   27.10   14.29
   7  13  -1   21.14   13.01
  -7  13   1   21.44   15.11
  -7  13  -1   23.74   14.97
  -7 -13   1   17.71    9.38
  -7 -13  -1   22.69   14.20
   7 -13  -1   21.51   10.86
   8  13   1  509.66   46.71
   8  13  -1  552.62   50.02
  -8  13   1  469.74   52.48
  -8  13  -1  510.61   48.33
  -8 -13   1  520.63   47.42
  -8 -13  -1  505.79   47.62
   8 -13  -1  528.55   46.62
   9  13   1  113.90   48.96
   9  13  -1  104.59   29.49
  -9  13   1   84.44   23.19
  -9 -13   1   86.03   17.95
  -9 -13  -1   96.01   17.44
   9 -13  -1  105.18   18.77
  10  13   1  811.63   51.01
  10  13  -1  841.90   57.67
 -10  13   1  768.07   39.55
 -10  13  -1  817.73   46.00
 -10 -13   1  760.55   40.56
 -10 -13  -1  774.91   44.67
  10 -13  -1  863.26   45.35
  11  13   1   24.16   12.84
  11  13  -1   13.92    6.63
 -11  13   1    6.53   10.35
 -11  13  -1    4.00   12.91
 -11 -13   1    7.23    9.36
 -11 -13  -1   17.14   14.46
  11 -13  -1   14.50   14.06
  12  13   1  151.68   16.35
  12  13  -1  169.32   21.48
 -12  13   1  147.97   43.56
 -12  13  -1  176.56   22.30
 -12 -13   1  140.82   23.17
 -12 -13  -1  119.67   15.45
  12 -13  -1  170.57   22.01
  13  13   1  103.35   20.82
  13  13  -1  107.92   27.52
 -13  13   1   83.01   35.09
 -13  13  -1   70.97   13.98
 -13 -13   1   89.58   21.10
  13 -13  -1   92.16   16.57
  14  13   1 1515.56   89.28
  14  13  -1 1552.61   98.44
 -14  13   1 1614.99   95.20
 -14  13  -1 1544.19   91.29
 -14 -13   1 1565.49   96.68
 -14 -13  -1 1471.95   88.22
  14 -13  -1 1668.59   99.49
  15  13   1  118.27   28.04
  15  13  -1  127.42   24.72
 -15  13   1   92.13   34.11
 -15  13  -1  115.55   24.90
 -15 -13   1  162.32   56.23
 -15 -13  -1  102.89   23.92
  16  13   1  546.24   33.54
 -16  13   1  571.87   34.26
 -16  13  -1  538.17   37.49
 -16 -13   1  576.41   36.36
 -16 -13  -1  538.70   40.50
  17  13   1   26.64   21.51
 -17  13   1    5.77    8.40
 -17  13  -1   11.68   12.66
 -17 -13   1   29.49   17.60
 -17 -13  -1   37.83   16.72
  18  13   1  240.92   44.73
 -18  13  -1  298.67   34.94
 -18  13   1  277.78   23.41
 -18 -13   1  256.43   46.73
  19  13   1   26.99   19.35
 -19  13  -1    3.73   12.50
 -19 -13   1   17.48   13.95
   0  14   1    8.15    7.92
   0  14  -1    9.14   10.81
   0 -14   1   -2.28    6.38
   0 -14  -1    5.11    9.34
   1  14   1    3.29    5.21
  -1  14   1    2.02    5.32
   1  14  -1    7.13   14.14
  -1 -14  -1    5.06   10.00
   1 -14  -1    2.64    8.46
   2  14   1  132.65   20.09
  -2  14   1  136.16   23.47
   2  14  -1  131.95   22.61
  -2  14  -1  127.49   29.49
  -2 -14   1  137.32   17.51
   2 -14   1  113.46   28.04
  -2 -14  -1  125.32   17.53
   3  14   1   34.42   22.87
  -3  14   1   46.18   22.00
   3  14  -1   30.98   12.90
  -3  14  -1   34.23   23.12
  -3 -14  -1   29.57   14.44
   4  14   1  313.52   33.65
  -4  14   1  282.66   36.09
   4  14  -1  321.25   50.40
  -4  14  -1  305.44   29.30
  -4 -14   1  276.38   25.23
   4 -14   1  290.09   28.20
  -4 -14  -1  285.45   35.97
   4 -14  -1  295.05   27.35
  -5  14   1   33.29   19.60
   5  14  -1   38.42   19.18
  -5 -14  -1   25.01   17.93
   5 -14   1   19.44   14.00
   6  14   1  287.36   45.56
   6  14  -1  251.29   20.93
  -6  14   1  268.16   27.35
  -6  14  -1  252.84   21.88
  -6 -14   1  232.70   17.66
  -6 -14  -1  251.02   20.85
   6 -14   1  247.47   15.85
   7  14   1    8.09    8.04
   7  14  -1   12.79    7.06
  -7  14   1    8.35   11.94
  -7  14  -1   11.24   12.77
  -7 -14   1    8.22    8.62
  -7 -14  -1    8.69   11.90
   7 -14   1    8.30    5.79
   7 -14  -1    7.10   10.48
   8  14   1    4.15    8.34
   8  14  -1    4.58    8.88
  -8  14   1    8.31    9.60
  -8  14  -1    5.13   12.66
  -8 -14   1    3.16    9.07
  -8 -14  -1   -0.57   12.50
   8 -14  -1    1.63    7.53
   9  14   1    3.13    6.25
   9  14  -1    6.30    6.40
  -9  14   1    3.54   11.63
  -9  14  -1   17.99   18.36
  -9 -14   1    0.71    9.67
  -9 -14  -1    3.87    8.46
   9 -14  -1    2.62    8.36
  10  14   1   98.25   22.62
  10  14  -1  104.01   16.26
 -10  14   1   90.32   14.23
 -10  14  -1  106.90   23.78
 -10 -14   1   88.50   14.77
 -10 -14  -1  100.31   15.97
  10 -14  -1  104.50   18.04
  11  14   1   15.20   12.92
  11  14  -1   13.71   12.22
 -11  14   1    9.00   10.94
 -11  14  -1   13.78   17.63
 -11 -14   1   14.62    8.09
 -11 -14  -1   16.51   11.94
  11 -14  -1    8.85   10.54
  12  14   1  220.45   36.81
  12  14  -1  228.72   41.20
 -12  14   1  243.26   28.08
 -12  14  -1  200.85   26.81
 -12 -14   1  213.68   24.70
 -12 -14  -1  223.43   26.03
  12 -14  -1  225.08   23.87
  13  14   1   25.35   15.90
  13  14  -1   24.58   14.59
 -13  14   1    2.03    6.11
 -13  14  -1   22.94   12.30
 -13 -14   1   20.69    9.47
 -13 -14  -1   27.17   21.19
  13 -14  -1   23.92   14.28
  14  14   1  183.70   18.85
  14  14  -1  198.46   22.64
 -14  14   1  180.05   24.97
 -14  14  -1  199.14   24.69
 -14 -14   1  160.40   44.80
 -14 -14  -1  167.81   20.85
  14 -14  -1  226.84   26.02
  15  14   1   21.08   12.20
 -15  14   1   11.25    6.11
 -15  14  -1   16.21   16.10
 -15 -14   1   15.15   12.03
 -15 -14  -1   21.13   14.06
  15 -14  -1   14.51    9.87
  16  14   1   45.56   27.50
 -16  14   1   37.88   25.43
 -16  14  -1   53.46   15.61
 -16 -14   1   41.22   19.75
 -16 -14  -1   38.69   12.78
  16 -14  -1   52.07   14.60
  17  14   1    3.63   12.20
 -17  14   1   -0.55    7.71
 -17  14  -1   -2.15   12.06
 -17 -14   1    1.06    3.61
 -17 -14  -1    1.69   12.61
  17 -14  -1   -0.81    8.44
   0  15   1 1180.89   58.19
   1  15   1  114.38   53.72
   2  15   1  248.65   33.15
  -2  15   1  275.72   28.62
   2  15  -1  252.59   29.28
   2 -15   1  256.43   20.70
  -2 -15  -1  274.82   24.72
   3  15   1    6.78    8.33
   3  15  -1    1.15    5.84
   3 -15   1    1.28    4.13
  -3 -15  -1    1.53    9.42
   4  15   1  199.81   28.72
  -4  15   1  180.25   31.45
   4  15  -1  194.24   30.67
  -4  15  -1  176.58   30.37
  -4 -15   1  169.11   28.29
   4 -15   1  181.60   22.93
  -4 -15  -1  204.29   26.66
  -5  15   1   48.47   18.23
   5  15  -1   46.41   17.56
  -5 -15  -1   36.57   13.26
   6  15   1  533.06   74.92
   6  15  -1  549.43   66.27
  -6  15   1  535.35   66.23
  -6 -15   1  518.16   56.51
  -6 -15  -1  549.54   61.04
   7  15   1   82.02   18.72
   7  15  -1   91.22   45.02
  -7  15   1   80.05   15.03
  -7  15  -1   94.85   18.29
  -7 -15   1   81.77   24.61
  -7 -15  -1   82.76   20.16
   8  15   1 1254.82   70.44
   8  15  -1 1240.30   80.09
  -8  15   1 1245.96   79.30
  -8  15  -1 1175.90   66.93
  -8 -15   1 1227.47   69.92
  -8 -15  -1 1246.58   72.87
   8 -15  -1 1246.50   70.77
   9  15   1  137.91   18.19
   9  15  -1  154.40   30.80
  -9  15   1  126.53   15.81
  -9  15  -1  123.12   18.64
  -9 -15   1  143.21   26.42
  -9 -15  -1  141.45   24.83
  10  15   1 1042.02   70.59
  10  15  -1 1019.08   79.10
 -10  15   1 1037.80   72.80
 -10  15  -1 1032.91   69.92
 -10 -15   1  959.47   59.67
 -10 -15  -1 1023.14   64.43
  10 -15  -1 1059.95   68.23
  11  15   1   33.81   15.57
  11  15  -1   40.55   14.49
 -11  15   1   22.62   21.79
 -11  15  -1   25.82   12.31
 -11 -15   1   32.18   15.55
 -11 -15  -1   33.63   12.72
  11 -15  -1   35.96   13.53
  12  15   1    8.41    9.51
  12  15  -1    4.14    4.47
 -12  15   1   11.44   10.99
 -12  15  -1    6.04   12.71
 -12 -15   1   13.27   13.48
 -12 -15  -1    4.75    9.85
  13  15   1   57.87   32.45
  13  15  -1   59.29   26.00
 -13  15  -1   52.75   17.85
 -13 -15   1   54.20   17.66
 -13 -15  -1   51.94   36.54
  13 -15  -1   63.42   16.43
  14  15   1 1357.60   93.21
  14  15  -1 1414.61   92.49
 -14  15   1 1504.89   90.60
 -14  15  -1 1345.65   81.70
 -14 -15   1 1345.08   81.67
 -14 -15  -1 1325.28   85.36
  14 -15  -1 1508.62   91.45
  15  15   1  132.97   25.69
 -15  15   1   97.63   16.58
 -15  15  -1   54.22   21.69
 -15 -15   1  138.20   23.61
 -15 -15  -1  134.55   25.88
  15 -15  -1  114.25   21.13
  16  15   1 1371.28  102.02
 -16  15   1 1427.43  106.65
 -16  15  -1 1480.87  112.47
 -16 -15   1 1428.56  108.23
 -16 -15  -1 1377.76  105.43
  16 -15  -1 1373.97  103.68
   0  16   1    6.68   10.83
   0  16  -1    4.26   11.54
   0 -16   1   -0.09    6.65
   0 -16  -1    0.88    9.23
  -1  16   1   34.94   17.65
   1  16  -1   34.71   21.57
  -1 -16   1   21.58   10.67
   1 -16  -1   28.18   10.37
   2  16  -1  606.62   56.00
   2 -16   1  568.54   33.92
  -3  16  -1   55.22   17.52
   4  16   1  340.50   26.91
  -4  16   1  341.92   32.59
   4  16  -1  353.78   43.46
  -4  16  -1  347.20   32.64
  -4 -16   1  332.51   26.73
  -4 -16  -1  337.56   35.92
   5  16   1   17.08   15.41
  -5  16   1   17.38   13.06
   5  16  -1   21.09   10.12
  -5 -16  -1   16.46   11.13
   6  16   1  232.18   47.03
   6  16  -1  259.32   33.24
  -6  16   1  257.36   27.05
  -6  16  -1  248.31   32.57
  -6 -16   1  229.45   22.94
  -6 -16  -1  225.74   22.96
   7  16   1   58.27   31.88
   7  16  -1   58.64   23.33
  -7  16   1   55.18   25.04
  -7  16  -1   39.83   29.44
  -7 -16   1   31.90   16.50
  -7 -16  -1   37.24   11.16
   8  16   1  553.46   48.47
   8  16  -1  562.56   48.52
  -8  16   1  533.92   59.66
  -8 -16   1  536.70   45.89
  -8 -16  -1  550.25   48.92
   8 -16  -1  578.70   49.01
   9  16   1   34.99   22.93
   9  16  -1   35.40   10.58
  -9  16   1   38.95   23.33
  -9  16  -1   11.06   12.35
  -9 -16  -1   27.85   13.16
  10  16   1   31.94   17.98
  10  16  -1   27.01   11.99
 -10  16   1   28.87   18.08
 -10  16  -1   36.37   14.75
 -10 -16   1   30.62   14.12
 -10 -16  -1   16.91   29.93
  10 -16  -1   28.99   12.46
  11  16   1    4.30    6.82
  11  16  -1   11.74    7.58
 -11  16   1    9.75   12.84
 -11  16  -1    5.97   14.33
 -11 -16   1   16.25   13.38
 -11 -16  -1    5.91   11.93
  12  16   1  202.23   48.86
  12  16  -1  233.53   39.90
 -12  16   1  244.52   27.04
 -12  16  -1  238.72   30.26
 -12 -16   1  225.54   25.66
 -12 -16  -1  239.57   29.46
  12 -16  -1  275.57   28.25
  13  16   1   16.56    8.06
  13  16  -1   19.09   10.62
 -13  16   1   17.84   10.47
 -13  16  -1   10.45   10.90
 -13 -16   1   22.95   10.66
 -13 -16  -1   17.89    9.68
  13 -16  -1   21.31   10.39
  14  16   1   49.67   28.34
  14  16  -1   34.52   18.78
 -14  16   1   29.03   20.58
 -14  16  -1   37.87   16.35
 -14 -16   1   28.43   22.05
 -14 -16  -1   41.90   31.99
  14 -16  -1   40.08   12.94
   2  17   1  418.35   40.91
  -2  17   1  429.71   46.05
   2  17  -1  434.48   42.55
  -2 -17  -1  415.56   36.01
   2 -17  -1  419.47   37.14
   3  17   1   11.91   10.18
   3  17  -1    6.58   12.33
  -3  17  -1   12.14   15.10
  -3 -17  -1    8.38   13.42
   4  17   1   12.70   11.20
  -4  17   1    4.34   11.96
   4  17  -1    8.76   14.57
  -4  17  -1    9.93   16.53
  -4 -17   1    9.62   12.85
  -4 -17  -1    5.85   10.67
   4 -17  -1    6.78   11.58
   5  17   1   10.01   15.36
  -5  17   1   15.58    9.08
   5  17  -1    7.89   14.22
  -5 -17   1   24.49   12.97
  -5 -17  -1   14.62   22.61
   6  17   1  383.74   30.17
   6  17  -1  361.18   35.42
  -6  17   1  329.88   49.30
  -6  17  -1  362.47   34.03
  -6 -17   1  336.89   27.46
  -6 -17  -1  360.82   37.30
   7  17   1   55.89   24.65
   7  17  -1   57.20   28.21
  -7  17   1   53.33   28.10
  -7  17  -1   41.08   35.34
  -7 -17   1   37.70   31.76
  -7 -17  -1   47.83   14.97
   8  17   1  528.94   38.85
   8  17  -1  551.39   45.22
  -8  17   1  541.52   42.03
  -8  17  -1  490.15   53.76
  -8 -17   1  539.89   42.45
  -8 -17  -1  550.54   40.39
   8 -17  -1  581.57   41.94
   9  17   1   47.79   25.17
   9  17  -1   38.50   25.54
  -9  17   1   36.58   18.25
  -9  17  -1   25.98   30.41
  -9 -17   1   44.21   15.09
  10  17   1  288.09   52.91
  10  17  -1  270.08   48.72
 -10  17   1  251.64   33.53
 -10  17  -1  255.41   49.48
 -10 -17   1  260.62   29.07
 -10 -17  -1  249.90   29.47
  10 -17  -1  254.19   25.83
  11  17   1   12.59    7.28
  11  17  -1    6.61    8.61
 -11  17   1    9.09   18.13
 -11  17  -1   10.42   12.37
 -11 -17   1   10.35   12.82
 -11 -17  -1    6.00    8.51
  11 -17  -1    5.35    8.09
  12  17   1    7.38    6.75
  12  17  -1    0.71   10.59
 -12  17  -1    1.73   12.24
 -12 -17   1    2.32    9.33
 -12 -17  -1    9.55   15.08
  12 -17  -1    5.12    7.93
   0  18   1    2.57    9.13
   0  18  -1    5.45    8.94
  -1  18   1   94.32   46.07
   1  18  -1   80.52   20.88
   2  18  -1 1464.06   87.45
   3  18   1  423.80   39.24
   5  18   1  146.09   28.11
   6  18   1 1094.06   76.65
   6  18  -1 1072.36   81.53
  -6  18   1 1041.57   83.56
  -6  18  -1 1211.33   84.65
  -6 -18   1 1009.98   68.79
  -6 -18  -1 1055.44   87.74
   7  18   1   60.38   49.27
   7  18  -1   62.21   45.40
  -7  18   1   65.46   30.51
  -7  18  -1   53.14   36.31
  -7 -18   1   74.27   16.95
   8  18   1  243.26   57.23
   8  18  -1  281.31   31.46
  -8  18   1  260.08   37.07
  -8 -18   1  234.56   29.55
  -8 -18  -1  306.73   34.95
   8 -18  -1  263.02   29.32
   9  18   1    4.48    8.52
   9  18  -1    5.51    8.63
  -9  18   1    2.84    6.85
  -9  18  -1   -0.70   12.07
  -9 -18   1    0.56    9.65
   0  19   1  265.21   37.25
   0  19  -1  254.53   68.13
   0 -19  -1  257.30   29.79
   1  19   1   24.81   16.43
  -1  19   1   25.87   15.95
   1  19  -1   15.56   11.68
  -1  19  -1   17.57   14.55
  -1 -19  -1   27.81   18.48
   2  19   1   49.62   30.37
  -2  19   1   37.84   27.22
   2  19  -1   31.24   20.86
  -2  19  -1   34.03   14.77
  -2 -19  -1   43.94   28.16
   2 -19  -1   32.65   20.01
   3  19   1    8.30   10.14
  -3  19   1    5.47    8.89
   3  19  -1    8.38   12.14
  -3  19  -1    8.37   14.19
  -3 -19  -1    1.73    6.38
   4  19   1  153.56   26.14
  -4  19   1  158.72   36.97
   4  19  -1  144.83   33.20
  -4  19  -1  130.48   55.68
  -4 -19  -1  140.00   31.00
   4 -19  -1  160.96   22.44
   5  19   1   29.39   17.05
   1   0   2 5607.29  220.24
  -1   0   2 5620.67  195.76
  -1   0  -2 5343.16  186.08
   3   0   2  106.58   10.59
   3   0  -2  226.45   14.34
  -3   0  -2  236.54   17.61
  -3   0  -2  166.16   10.05
   4   0   2   58.14    8.03
   4   0  -2   18.44    7.46
  -4   0  -2   30.70    7.38
  -4   0   2   34.45   24.50
  -4   0  -2   26.57    6.14
   5   0   2  249.67   14.19
   5   0  -2  255.80   11.07
   5   0  -2  262.88   11.69
  -5   0  -2  303.57   17.57
  -5   0  -2  268.17   13.60
   6   0   2  597.79   26.87
   6   0  -2  640.61   23.68
   6   0  -2  572.22   21.07
  -6   0  -2  607.84   24.85
   7   0   2  418.71   97.70
   7   0  -2  478.15   17.15
   7   0  -2  490.06   17.59
  -7   0  -2  572.47   24.46
   8   0   2 2555.99  108.56
  -8   0  -2 2498.40   85.38
  -9   0  -2 1820.97   64.27
 -10   0  -2 4137.27  130.12
 -12   0  -2   28.82   14.35
 -12   0   2   12.22   15.65
 -12   0  -2   56.62   11.19
 -13   0  -2  255.11   19.84
 -13   0   2  243.30   16.62
 -13   0  -2  316.66   19.22
 -14   0  -2 1375.58   58.00
 -14   0   2 1289.64   54.87
 -15   0  -2  718.85   46.12
 -15   0   2  601.92   34.82
 -16   0  -2  430.56   37.59
 -16   0   2  380.96   25.10
 -17   0  -2  101.03   19.62
 -17   0   2  102.12   26.42
 -18   0  -2  145.24   23.97
 -18   0   2  158.39   42.90
 -18   0  -2  124.58   27.08
 -19   0  -2   19.36   11.75
 -19   0   2   18.93   17.06
 -19   0  -2   17.67   12.47
 -20   0   2   -0.69    9.70
 -21   0  -2   53.70   14.87
 -21   0   2   67.47   30.80
 -22   0   2  736.01   56.72
 -23   0   2  805.26   57.08
   0   1   2    7.84   13.27
   0  -1   2   11.19    6.81
   1   1   2  271.66   16.07
  -1   1   2  277.44   14.02
  -1   1   2  246.90   19.91
  -1  -1   2  255.57   15.96
  -1  -1  -2  258.75   13.96
   2   1   2  617.37   26.02
   2   1  -2  552.13   23.33
  -2   1  -2  751.13   41.90
  -2   1   2  524.05   30.51
  -2  -1   2  546.65   23.67
  -2  -1  -2  539.49   22.84
  -2   1  -2  525.20   21.36
   3   1   2  233.51   13.11
   3   1  -2  298.48   14.87
  -3   1  -2  230.58   13.35
  -3   1   2  273.68   19.61
  -3  -1   2  300.58   20.59
  -3   1  -2  263.81   12.48
  -3  -1  -2  286.08   15.13
   4   1   2 1172.00   52.04
   4   1  -2 1176.89   43.46
   4  -1  -2 1157.24   42.85
   4   1  -2 1143.67   42.34
  -4   1  -2 1235.27   45.44
  -4   1   2 1185.90   46.38
  -4   1  -2 1051.05   38.87
  -4  -1  -2 1134.82   43.33
   5   1  -2  627.39   23.98
   5  -1  -2  619.96   24.11
   5   1  -2  595.77   23.30
  -5   1  -2  559.71   25.35
  -5   1  -2  632.26   24.76
  -5   1   2  595.97   26.92
  -5   1  -2  538.62   21.39
  -5  -1  -2  548.65   23.32
   6   1  -2  135.79    7.66
   6  -1  -2  123.35   10.80
   6   1  -2  129.70    6.98
  -6   1  -2  124.15    9.95
  -6   1  -2  132.67   12.26
  -6  -1  -2  131.85   19.29
   7   1   2   -0.11    6.36
   7  -1  -2    2.77    2.15
   7  -1  -2    3.02    2.14
  -7   1  -2    4.28   10.35
  -7   1   2    1.91    2.39
  -7   1  -2    1.51    3.23
  -7  -1  -2    4.55    6.07
   7  -1   2    2.68    5.02
   8   1   2   54.15   19.81
  -8   1  -2   67.06   11.28
  -8  -1   2   65.45   14.03
  -8   1  -2   65.26    6.97
  -8  -1  -2   59.77   10.63
   8  -1   2   60.48    6.14
   9   1   2  158.29   13.01
  -9   1  -2  175.85   17.61
  -9   1   2  149.86   15.14
  -9  -1   2  155.80   15.35
  -9   1  -2  144.58    9.81
  10   1   2  951.32   47.32
  11   1   2  825.34   64.11
 -11   1  -2  829.50   45.49
 -11   1   2  766.94   33.09
 -11  -1   2  718.44   33.24
 -11  -1  -2  622.94   25.71
  12   1   2 1159.92   60.68
 -12   1  -2 1199.54   47.37
 -12   1   2 1163.02   47.43
 -12  -1   2 1160.41   51.83
 -12  -1  -2 1216.60   44.26
 -13   1  -2  405.10   22.63
 -13   1   2  379.39   24.87
 -13  -1   2  386.58   21.88
 -13  -1  -2  475.19   23.85
 -14   1  -2  468.27   28.90
 -14   1   2  432.44   28.37
 -14  -1   2  354.94   39.11
 -15   1  -2    9.60   10.06
 -15   1   2   11.67    7.92
 -15  -1   2    9.21    6.73
 -15   1  -2   10.55    5.78
 -15  -1  -2    9.10    6.01
 -16   1  -2   42.79    9.59
 -16  -1  -2   55.47   15.53
 -16   1   2   57.58   31.46
 -16  -1   2   49.32    9.63
 -16   1  -2   47.80    9.07
 -16  -1  -2   45.51   20.37
 -17   1  -2   71.55   16.26
 -17  -1  -2   63.73   17.15
 -17   1   2   79.33   29.97
 -17  -1   2   70.97   33.86
 -17   1  -2   59.34   13.58
 -17  -1  -2   66.37   14.30
 -18   1  -2  224.24   31.01
 -18  -1  -2  226.28   33.59
 -18   1   2  201.72   26.89
 -18  -1   2  235.94   59.02
 -18  -1  -2  192.23   32.33
 -19   1  -2  183.01   24.65
 -19  -1  -2  182.50   25.71
 -19   1   2  161.90   22.88
 -19  -1   2  141.76   17.86
 -20   1  -2  396.12   35.70
 -20   1   2  356.60   29.45
 -20  -1   2  329.86   42.52
 -21   1  -2  219.94   27.11
 -21   1   2  201.07   30.80
 -21  -1   2  226.60   36.97
 -22   1   2  381.79   34.32
 -22  -1   2  387.83   39.49
 -23   1  -2  114.01   18.99
 -23   1   2   83.41   55.60
 -23  -1   2  111.11   57.67
   0  -2   2 1394.11   51.03
   0  -2  -2 1364.71   52.00
  -1   2   2  565.08   23.05
  -1   2   2  618.96   32.06
   1  -2   2  592.54   23.23
  -1  -2   2  626.41   25.48
  -1  -2  -2  572.87   25.06
   2   2   2  669.75   29.31
  -2   2   2  633.50   27.53
   2   2  -2  666.44   27.54
  -2   2   2  630.86   27.26
  -2  -2  -2  620.93   26.90
  -2   2  -2  569.33   21.91
   3   2   2   34.08    8.44
  -3   2  -2   26.00    3.96
  -3  -2  -2   30.69    7.35
   4   2  -2    5.92    3.82
   4   2   2    9.45    5.79
  -4   2   2   10.91    5.38
   4  -2  -2    6.88    3.58
   4   2  -2    6.46    3.37
  -4   2   2   16.26    8.24
  -4   2  -2    8.68    3.15
  -4  -2   2   13.34    6.46
  -4   2  -2    7.67    4.02
  -4  -2  -2    8.33    5.84
   5   2   2    2.43    4.92
   5   2  -2    0.75    1.42
  -5   2   2    0.91    1.60
   5  -2  -2    0.63    2.51
   5   2  -2    1.71    4.32
  -5   2  -2    1.92    6.81
  -5   2   2    2.08    3.72
  -5   2  -2    0.16    1.25
  -5  -2   2    4.61    7.45
  -5   2  -2   -0.03    1.29
  -5  -2  -2    1.08    5.19
   6   2   2   10.90    8.30
   6   2  -2    4.27    3.84
   6  -2  -2    7.72    3.96
   6   2  -2    5.37    3.26
  -6   2  -2    6.10    9.53
  -6   2  -2    6.85    3.16
  -6   2   2   11.49    6.74
  -6  -2   2    6.61    6.44
  -6   2  -2    7.76    3.88
  -6  -2  -2    9.80    7.80
   7   2   2   34.78   11.93
   7   2  -2   28.45    5.16
   7  -2  -2   30.13    4.33
   7   2  -2   33.87    3.78
  -7   2  -2   45.70    9.30
  -7   2   2   39.20   22.74
  -7  -2   2   47.74   21.11
  -7   2  -2   42.13    8.29
  -7  -2  -2   33.50    9.14
   8   2   2  313.63   23.60
   8  -2  -2  280.03   15.16
  -8   2  -2  299.80   17.19
  -8  -2  -2  305.27   17.18
   8  -2   2  272.38   11.68
  -9   2  -2  325.10   20.07
   9  -2   2  158.13    7.92
 -10  -2   2  792.17   41.66
  10  -2   2  713.09   24.92
 -11   2  -2  242.64   17.91
 -11  -2   2  220.31   29.21
 -11  -2  -2  236.98   18.61
  12   2   2   61.88   42.08
 -12   2  -2   70.78   13.71
 -12   2   2   80.23   39.94
 -12  -2   2   67.81   29.66
 -12  -2  -2   84.10   34.14
  13   2   2   21.07   15.96
 -13   2  -2   20.27    8.63
 -13   2   2   27.92   13.27
 -13  -2   2   32.34   15.57
 -13   2  -2   27.15   14.60
 -13  -2  -2   19.10    9.72
  14   2   2  141.38   41.63
 -14   2  -2  202.23   21.47
 -14   2   2  178.69   19.88
 -14  -2   2  176.72   39.64
 -14   2  -2  185.79   17.09
 -14  -2  -2  181.33   16.55
  15   2   2   52.97   23.30
 -15   2  -2   70.16   14.93
 -15   2   2   76.64   35.70
 -15  -2   2   82.68   34.54
 -15   2  -2   69.44   15.72
 -15  -2  -2   57.88    9.72
  16   2   2   37.16   38.55
 -16   2  -2   57.77   14.45
 -16   2   2   61.02   30.60
 -16  -2   2   68.52   24.89
 -16   2  -2   61.37    8.26
 -16  -2  -2   52.13   24.32
 -17   2  -2   10.40   15.45
 -17   2   2    1.17    5.11
 -17  -2   2    6.33   10.42
 -17  -2  -2    7.03    9.15
 -18   2  -2   13.42   14.04
 -18  -2  -2   11.03   10.57
 -18   2   2   14.05   12.48
 -18  -2   2   14.38   14.06
 -18  -2  -2    5.00    7.18
 -19   2  -2   42.21    9.97
 -19  -2  -2   54.82   15.84
 -19   2   2   50.87   21.95
 -19  -2   2   56.27   31.52
 -19  -2  -2   45.39   14.50
 -20   2  -2   75.90   16.26
 -20  -2  -2   63.93   12.05
 -20   2   2   71.38   26.66
 -20  -2   2   76.14   33.54
 -20  -2  -2   50.97   30.59
 -21   2  -2    5.20   11.52
 -21  -2  -2    3.06   10.61
 -21   2   2    0.94    7.11
 -21  -2   2   13.56   36.87
 -21  -2  -2    2.85    5.12
 -22   2  -2   73.36   20.90
 -22  -2  -2   83.10   21.42
 -22   2   2   84.05   42.72
 -22  -2   2   82.77   46.97
 -23   2   2  161.70   63.38
 -23  -2   2   95.17   16.61
   0   3   2   36.93   25.46
   0  -3   2   23.03   10.19
   0  -3  -2   18.92    6.82
   1  -3   2  422.73   16.85
  -1  -3   2  466.74   19.78
  -1  -3  -2  422.05   20.16
  -2   3   2 2217.54   82.32
  -2  -3   2 2316.93   84.22
  -2  -3  -2 2238.73   82.61
  -3  -3  -2 1372.22   52.75
   4   3  -2  962.37   36.89
  -4   3  -2  920.15   32.17
  -4  -3  -2 1020.04   40.43
   5   3  -2   56.09    6.79
   5   3   2   89.43    9.26
  -5   3   2   83.28   10.99
   5  -3  -2   73.18   20.63
   5   3  -2  122.03    9.70
  -5   3  -2   86.60   11.35
  -5   3   2  108.87   11.47
  -5  -3  -2   90.51    9.71
   6   3  -2  117.13    7.35
   6   3   2  133.32   12.87
  -6   3   2  129.26    8.82
   6  -3  -2  124.93    7.98
   6   3  -2  116.00    8.06
  -6   3  -2  133.70   11.37
  -6   3   2  121.96   18.91
  -6  -3   2  118.69   15.40
  -6  -3  -2  127.43   19.10
   7   3  -2   52.35    3.85
   7   3   2   52.32   12.63
  -7   3   2   57.62    5.52
   7   3  -2   44.78    6.72
   7  -3  -2   45.75    9.63
  -7   3  -2   48.48    9.91
  -7   3   2   55.47   19.12
  -7  -3   2   57.05   19.14
  -7  -3  -2   45.06   10.81
   8   3  -2    3.21    1.77
   8   3   2    2.60    5.62
  -8   3   2    6.22    4.02
   8   3  -2    3.63    2.69
   8  -3  -2    7.11    3.18
  -8   3  -2   17.80   15.43
  -8  -3   2    7.68    9.91
  -8   3  -2    2.28    2.70
  -8  -3  -2    4.44    8.37
   9  -3  -2  126.52   10.07
  -9   3  -2  152.56   19.51
  -9  -3   2  127.11   16.10
  -9   3  -2  127.53    6.41
  -9  -3  -2  130.63   14.67
  10   3   2 1590.55   67.77
 -10   3  -2 1559.98   53.86
 -10  -3   2 1579.79   57.07
 -10   3  -2 1591.03   47.95
 -10  -3  -2 1599.24   54.73
 -11   3  -2 1575.39   53.36
 -11  -3   2 1559.17   57.75
 -11   3  -2 1537.68   46.32
 -11  -3  -2 1610.39   55.44
  12   3   2 4194.36  154.01
 -12   3  -2 4142.89  134.21
 -12   3   2 4345.30  187.23
 -12  -3   2 4218.81  141.28
 -12   3  -2 4176.06  129.62
  13   3   2 1712.93   72.82
 -13   3  -2 1587.30   58.69
 -13   3   2 1593.89  477.86
 -13  -3   2 1518.88   56.56
 -13   3  -2 1596.40   53.43
  14   3   2 1179.54   55.07
 -14   3  -2 1006.95   46.95
 -14   3   2 1075.05   53.96
 -14  -3   2 1067.57   53.46
 -14   3  -2 1139.61   47.54
 -14  -3  -2 1218.34   54.85
  15   3   2   52.81   16.47
 -15   3  -2   51.25   14.47
 -15   3   2   54.88   23.81
 -15  -3   2   69.26   28.46
 -15  -3  -2   55.91   12.99
  16   3   2    4.45    8.31
 -16   3  -2    9.28   10.07
 -16   3   2   13.17   11.15
 -16  -3   2   10.67    8.25
 -16  -3  -2   14.91    6.91
  17   3   2   70.54   16.08
 -17   3  -2   52.35   12.25
 -17   3   2   67.01   20.40
 -17  -3   2   79.43   42.45
 -17  -3  -2   63.76   15.47
  18   3   2  272.11   33.19
 -18   3  -2  299.40   38.46
 -18   3   2  269.31   37.89
 -18  -3   2  286.06   37.16
 -18  -3  -2  268.85   37.05
 -19   3  -2  347.88   25.68
 -19   3   2  334.68   23.78
 -19  -3   2  347.28   26.67
 -20   3  -2 1301.20   78.36
 -20   3   2 1224.24   83.13
 -20  -3   2 1351.20   90.63
 -20  -3  -2 1420.74   86.27
 -21   3  -2  829.08   43.65
 -21   3   2  776.43   56.42
 -21  -3   2  929.35   49.43
 -22  -3  -2 1791.64  114.00
 -22   3   2 1700.57  104.15
 -22  -3   2 1746.07  106.65
 -23   3   2  418.56   72.51
 -23  -3   2  404.93   43.71
   0   4   2 1245.75   49.01
   0   4  -2 1137.13   44.73
   0  -4   2 1118.38   41.27
   0   4  -2  877.47   32.40
   0  -4  -2 1092.76   44.24
   1   4  -2  460.67   22.24
   1   4  -2  308.80   12.81
  -1   4  -2  339.41   13.32
  -2   4  -2  602.61   21.65
  -2  -4  -2  643.92   28.21
  -3   4   2  271.98   20.65
   4   4  -2  131.76   10.67
  -4   4   2  142.47   16.27
  -4  -4  -2  154.49   13.68
   5   4   2    1.97    3.81
  -5   4   2    0.34    2.11
   5   4  -2    2.37    3.61
  -5   4  -2    4.86    7.40
  -5   4   2    5.05    5.64
  -5  -4   2    6.03    7.97
  -5  -4  -2    2.91    6.21
   6   4   2   78.95   10.97
  -6   4   2   98.11   14.74
   6   4  -2   70.44   10.19
  -6   4  -2   85.73   13.40
  -6  -4   2   62.95    4.64
  -6   4   2   73.00   20.51
  -6  -4  -2   86.56   17.05
  -7   4   2  126.18   10.45
   7   4  -2  105.48    9.65
  -7   4  -2  112.93   11.60
  -7  -4   2   91.36    5.01
  -7  -4   2  109.16   14.43
   8   4   2  472.42   25.89
  -8   4   2  488.35   23.31
   8   4  -2  475.35   19.10
   8  -4  -2  462.26   19.17
  -8   4  -2  521.74   27.55
  -8  -4   2  503.25   29.02
  -9   4   2  321.44   14.13
   9   4  -2  320.33   11.87
   9  -4  -2  298.48   18.56
  -9   4  -2  300.69   17.33
  -9  -4   2  286.53   19.30
  -9  -4  -2  324.76   30.74
 -10   4  -2  357.81   20.81
 -10   4   2  342.15   22.84
 -10   4  -2  279.38    9.47
 -10  -4   2  337.83   19.93
 -10  -4  -2  354.99   30.43
  10  -4   2  324.13   11.43
  11   4   2   59.79   42.42
 -11   4  -2   65.94   16.46
 -11   4   2   62.53   15.62
 -11   4  -2   49.79    3.56
 -11  -4   2   53.72   27.80
 -11  -4  -2   61.95   13.03
  12   4   2   70.68   37.89
 -12   4  -2   91.55   16.81
 -12   4   2   68.24   43.05
 -12   4  -2   70.51    5.20
 -12  -4   2   84.94   30.42
 -12  -4  -2   69.13   14.54
  13   4   2   18.52   13.40
 -13   4  -2   23.84   10.72
 -13   4   2   20.86   11.02
 -13  -4   2   21.83    9.09
 -13  -4  -2   19.43   14.92
  14   4   2   11.95    7.16
 -14   4  -2    3.57    9.34
 -14   4   2    3.73    5.56
 -14  -4   2    1.69    5.57
 -14  -4  -2    5.05   11.08
  15   4   2   14.30   14.85
 -15   4  -2   13.67    7.37
 -15   4   2   23.22   10.47
 -15  -4   2   17.41   10.60
 -15  -4  -2   17.60    9.01
 -16   4  -2   55.44   12.51
 -16   4   2   66.86   33.73
 -16  -4   2   75.36   21.60
 -16  -4  -2   65.81   13.22
  17   4   2   31.53   27.98
 -17   4  -2   41.67   10.24
 -17   4   2   43.50   15.42
 -17  -4   2   43.83   18.76
 -17  -4  -2   43.28   12.45
  18   4   2   85.26   23.99
 -18   4  -2  118.80   24.76
 -18   4   2   95.42   23.36
 -18  -4   2   95.01   20.79
 -18  -4  -2   81.25   18.09
  19   4   2   20.48   16.74
 -19   4  -2   15.48   15.21
 -19   4   2   32.30   18.34
 -19  -4   2   22.88   12.03
 -19  -4  -2   31.23   11.09
 -20   4  -2    4.49   10.41
 -20   4   2    3.99   11.60
 -20  -4   2    9.74   11.97
 -20  -4  -2    3.66    4.61
 -21   4  -2   36.72   15.72
 -21   4   2   34.23   18.64
 -21  -4   2   32.22   18.62
 -21  -4  -2   23.75   16.45
 -22   4  -2  120.44   21.46
 -22  -4  -2  120.39   23.29
 -22   4   2  100.77   52.44
 -22  -4   2  102.32   30.80
 -22  -4  -2  100.87   18.22
 -23   4  -2  100.74   17.76
 -23   4   2   93.44   45.35
 -23  -4   2   68.89   32.69
 -23  -4  -2   66.40   30.83
   0   5  -2   23.12    8.70
   0   5  -2   20.68    5.15
   0  -5  -2   12.18   11.42
   1   5   2  388.55   19.78
  -1   5  -2  459.65   22.74
  -1  -5   2  393.03   16.81
  -1   5  -2  403.61   15.69
   1  -5  -2  362.81   20.12
   2   5   2 1831.97   69.73
   2   5  -2 1913.27   70.83
  -2   5  -2 1484.02   51.46
   2  -5  -2 1785.80   67.35
   3   5  -2  758.63   32.03
  -3   5  -2  953.47   51.31
  -3   5   2  646.94   29.05
   4   5  -2  348.02   18.29
  -4   5  -2  443.85   28.45
  -4   5   2  381.75   21.03
  -4  -5  -2  385.41   22.39
   5   5   2   57.41    9.65
   5   5  -2   64.94   16.86
  -5   5   2   61.53   17.86
  -5  -5  -2   66.57   11.07
   6   5   2   71.87   15.03
  -6   5   2   88.18   12.63
   6   5  -2   87.27   10.17
  -6   5  -2   94.15   13.85
  -6   5   2   78.94   26.50
  -6  -5  -2   82.08   12.86
   7   5   2   51.46   14.76
  -7   5   2   63.34   11.38
   7   5  -2   44.64   15.11
  -7   5  -2   63.34   13.96
  -7   5   2   68.24   28.75
  -7  -5   2   59.07   20.30
  -7  -5  -2   65.93   16.16
   8   5   2   37.15   20.29
  -8   5   2   39.21   18.64
   8   5  -2   32.49   17.39
  -8   5  -2   42.94   15.75
  -8  -5   2   31.38    3.98
  -8   5   2   49.71   19.70
  -8  -5   2   43.48   18.02
  -8  -5  -2   27.48   12.21
   9   5   2   18.57   17.49
  -9   5   2   20.95    9.34
   9   5  -2   16.94    7.67
  -9   5  -2   28.07   15.22
  -9  -5   2    9.41    3.35
  -9   5   2   24.07   15.42
  -9  -5   2    9.59   23.76
  -9  -5  -2   16.28    9.13
  10   5  -2  650.46   24.13
 -10   5  -2  614.73   29.42
 -10  -5   2  572.94   42.52
 -10  -5  -2  569.62   38.99
 -11   5  -2  938.31   37.96
 -11  -5   2  977.05   43.28
 -11  -5  -2 1146.91   48.59
  12   5   2 2050.02   78.91
 -12   5  -2 2053.80   74.62
 -12   5   2 2086.19  104.68
 -12  -5   2 2191.75   78.72
 -12  -5  -2 2121.54   76.43
  13   5   2  562.08   35.55
 -13   5  -2  319.62   21.13
 -13   5   2  371.47  225.89
 -13  -5   2  330.12   25.61
 -13  -5  -2  355.46   24.93
  14   5   2   52.90   10.81
 -14   5  -2   51.47   13.69
 -14   5   2   70.89   24.73
 -14  -5   2   61.25   36.62
 -14  -5  -2   65.99   15.99
  15   5   2    5.45    9.35
 -15   5  -2    7.00    9.89
 -15   5   2    3.18    9.35
 -15  -5   2    5.33    6.68
 -15  -5  -2    8.38    7.00
  16   5   2   78.59   39.04
 -16   5  -2  106.08   19.49
 -16   5   2   87.53   41.63
 -16  -5   2   87.05   27.26
 -16  -5  -2   75.79   14.24
  17   5   2   50.73   37.02
 -17   5  -2   53.91   15.97
 -17   5   2   55.53   24.26
 -17  -5   2   55.60   30.12
 -17  -5  -2   51.24   11.87
  18   5   2   39.26   33.30
 -18   5  -2   54.05   17.45
 -18   5   2   58.73   28.02
 -18  -5   2   54.66   19.65
 -18  -5  -2   51.96   12.93
  19   5   2   22.62   20.08
 -19   5  -2   29.49   13.31
 -19   5   2   35.27   17.89
 -19  -5   2   38.36   19.04
 -19  -5  -2   29.05   10.54
 -20   5  -2  285.75   29.80
 -20   5   2  324.74   49.63
 -20  -5   2  306.32   33.54
 -20  -5  -2  285.93   27.71
  21   5   2  342.58   30.61
 -21   5  -2  345.75   29.54
 -21   5   2  339.15   26.58
 -21  -5   2  323.77   39.58
  22   5   2  451.08   38.44
 -22   5  -2  481.02   42.37
 -22   5   2  460.62   36.47
 -22  -5   2  381.68   93.49
 -22  -5  -2  461.92   39.88
 -23   5  -2   57.08   15.12
 -23   5   2   48.25   31.06
 -23  -5   2   50.19   32.22
 -23  -5  -2   48.44   24.73
   0   6  -2 6575.49  190.23
   0  -6  -2 7112.79  210.00
   1   6  -2 3795.14  115.00
  -1   6  -2 3756.86  115.39
  -1   6  -2 3196.97  106.48
   2   6  -2 3664.01  125.36
   2  -6  -2 3779.39  114.94
   3   6  -2  475.15   22.65
   3  -6  -2  443.72   25.51
   4   6  -2    8.72    6.66
  -4   6  -2    8.16   11.67
  -4   6   2   10.68    9.63
  -4  -6   2   16.94    9.91
  -4  -6  -2    9.24   10.74
  -5   6   2  136.58   10.34
   5   6  -2  141.23   11.63
  -5   6  -2  183.66   20.63
  -5   6   2  145.26   24.65
  -5  -6   2  129.81   19.04
   6   6  -2 1086.88   37.68
   7   6  -2 1232.89   42.16
  -7  -6   2 1020.17   44.10
   8   6   2 2397.95   80.53
   8   6  -2 2522.32   77.13
  -8  -6   2 2576.17   81.20
   9   6  -2  814.76   29.69
  -9   6  -2 1077.90   55.78
  -9  -6   2 1100.50   45.53
  -9  -6  -2 1175.62   46.64
  10   6   2 2071.77   77.65
 -10   6   2 1974.25   87.88
  10   6  -2 2045.34   66.43
 -10  -6   2 2093.51   73.66
 -10  -6  -2 2016.13   71.70
 -11   6   2  554.39   25.51
 -11   6  -2  635.30   70.13
 -11  -6   2  598.30   42.13
 -11  -6  -2  605.47   42.38
 -12   6   2   71.09    9.89
 -12   6  -2   96.79   13.95
 -12  -6   2   81.08   41.34
 -12  -6  -2   88.87   17.89
  13   6   2  131.68   17.55
 -13   6  -2  116.74   13.67
 -13  -6   2  117.38   13.12
 -13  -6  -2  120.79   13.60
  14   6   2  651.07   46.26
 -14   6  -2  615.38   36.08
 -14  -6   2  652.13   38.58
 -14  -6  -2  710.31   40.56
  15   6   2  487.13   43.28
 -15   6  -2  430.73   42.76
 -15   6   2  439.82   42.44
 -15  -6   2  453.20   38.81
 -15  -6  -2  498.82   43.02
  16   6   2  795.96   42.91
 -16   6  -2  774.54   41.01
 -16   6   2  747.85   42.61
 -16  -6   2  724.12   46.09
 -16  -6  -2  789.57   41.40
  17   6   2  209.02   30.19
 -17   6  -2  190.63   26.50
 -17   6   2  187.48   23.64
 -17  -6   2  232.74   61.03
 -17  -6  -2  209.41   27.90
  18   6   2   47.52   32.34
 -18   6  -2   51.07   13.03
 -18   6   2   58.30   18.92
 -18  -6   2   65.21   33.02
 -18  -6  -2   67.61   15.86
  19   6   2    3.19   12.14
 -19   6  -2   -0.09   11.42
 -19   6   2    4.08    7.76
 -19  -6   2   -0.03   10.99
 -19  -6  -2   -1.32    9.18
  20   6   2    6.67   13.96
 -20   6  -2    9.77   10.36
 -20   6   2    6.29    8.40
 -20  -6   2    5.99    7.59
 -20  -6  -2   14.20    8.57
  21   6   2   60.89   24.12
 -21   6  -2   69.61   18.17
 -21   6   2   79.99   19.08
 -21  -6   2   73.60   30.04
 -21  -6  -2   73.66   12.24
  22   6   2  537.48   48.26
 -22   6  -2  570.84   55.02
 -22   6   2  500.42   42.82
 -22  -6   2  520.20   55.58
 -22  -6  -2  521.57   49.28
   0   7   2   -0.16    7.05
   0   7  -2   13.40   12.33
   0  -7   2    0.59    2.46
   0   7  -2    1.29    2.77
   0  -7  -2   -0.88   10.86
   1   7   2   14.67    7.19
  -1   7   2    9.11    5.12
   1   7  -2   15.47   13.29
  -1   7  -2   15.55   10.83
  -1  -7   2    8.91    5.84
  -1  -7  -2    8.55    9.76
   1  -7  -2    8.56    9.54
   2   7   2  205.97   15.22
   2   7  -2  207.86   15.72
  -2  -7   2  219.03   14.22
  -2  -7  -2  218.78   18.21
   2  -7  -2  187.47   17.19
   3   7   2  226.72   16.63
   3   7  -2  253.27   18.33
  -3  -7  -2  243.83   20.35
   4   7   2  574.27   26.36
   4  -7  -2  601.54   28.21
   5   7   2  444.19   24.24
  -5  -7   2  414.52   23.38
   6   7   2  340.51   20.04
   6   7  -2  345.80   26.13
  -6   7   2  339.89   29.66
  -6  -7   2  329.07   22.64
   7   7   2    4.81    7.38
   7   7  -2    2.62    5.95
  -7   7  -2    8.81   11.52
  -7  -7  -2    1.64   10.68
   8   7   2  354.36   22.92
   8   7  -2  341.84   24.60
  -8   7  -2  358.89   23.04
  -8  -7  -2  322.64   50.55
   9   7  -2  454.55   26.86
  -9   7  -2  515.44   30.44
  -9  -7   2  417.83   24.94
  -9  -7  -2  442.96   50.14
  10   7   2 1004.42   43.60
 -10   7   2  938.59   39.95
  10   7  -2 1011.29   37.75
 -10   7  -2 1032.05   44.96
 -10  -7   2  963.14   41.61
 -10  -7  -2  953.29   61.64
 -11   7   2  474.49   24.88
 -11   7  -2  490.10   28.60
 -11  -7   2  485.38   58.53
 -11  -7  -2  543.81   32.65
  12   7   2  675.51   38.43
 -12   7   2  626.72   46.06
 -12   7  -2  700.86   38.97
 -12   7   2  642.00   50.19
 -12  -7   2  653.77   63.77
 -12  -7  -2  735.69   51.57
  13   7   2  144.03   21.82
 -13   7  -2  136.15   15.61
 -13  -7   2  152.71   16.68
 -13  -7  -2  155.72   18.28
  14   7   2  206.56   25.88
 -14   7  -2  215.67   24.11
 -14   7   2  229.37   49.87
 -14  -7   2  196.31   31.01
 -14  -7  -2  212.59   22.82
  15   7   2  100.74   23.05
 -15   7  -2  113.81   15.14
 -15   7   2  138.82   46.13
 -15  -7   2  139.92   54.12
 -15  -7  -2  120.08   16.95
  16   7   2   27.40   26.27
 -16   7  -2   23.60   12.25
 -16   7   2   31.87   12.52
 -16  -7   2   27.31   16.02
 -16  -7  -2   31.62   14.33
  17   7   2   39.37   34.44
 -17   7  -2   49.84   12.89
 -17   7   2   52.16   21.06
 -17  -7   2   38.05   16.32
 -17  -7  -2   46.71   14.86
 -18   7  -2  419.18   35.70
 -18   7   2  370.72   27.91
 -18  -7   2  400.24   33.25
 -18  -7  -2  390.98   32.25
  19   7   2  293.49   30.29
 -19   7  -2  256.48   25.61
 -19   7   2  259.11   25.74
 -19  -7   2  296.13   29.85
 -19  -7  -2  302.71   31.22
  20   7   2  610.58   44.22
 -20   7  -2  593.83   45.27
 -20   7   2  495.21   42.43
 -20  -7   2  601.77   46.69
 -20  -7  -2  560.05   42.03
  21   7   2  238.24   26.34
 -21   7  -2  202.04   23.84
 -21   7   2  191.52   20.29
 -21  -7   2  192.56   42.00
 -21  -7  -2  195.52   24.24
  22   7   2   90.21   19.05
 -22   7  -2  100.14   23.74
 -22   7   2   88.21   53.21
 -22  -7   2   75.64   56.66
 -22  -7  -2  101.01   27.47
   0  -8  -2 1656.15   56.06
  -1   8  -2  456.72   25.02
  -1   8  -2  354.14   12.70
  -1  -8  -2  430.01   23.25
   1  -8  -2  439.45   22.86
   2   8   2  145.14   15.06
   2   8  -2  140.84   16.54
  -2  -8  -2  122.32   14.58
   2  -8  -2  137.11   16.52
   3   8   2    2.54    6.13
  -3   8   2    3.93    5.34
   3   8  -2    2.37    6.83
  -3   8  -2    7.58    9.94
  -3  -8   2    0.39    3.18
  -3  -8  -2    3.10    9.73
   3  -8  -2    4.01    7.28
   4   8   2   53.99   26.96
  -4   8   2   52.77   17.99
   4   8  -2   42.72   11.80
  -4   8  -2   58.42   15.81
  -4  -8   2   44.93   27.09
  -4  -8  -2   44.38   15.18
   4  -8  -2   52.05   12.51
   5   8   2   12.52    9.87
  -5   8   2   13.65    8.71
   5   8  -2    5.70    5.95
  -5   8  -2   11.27    7.28
  -5  -8   2   10.81   11.50
  -5  -8  -2    9.12   13.22
   5  -8  -2   14.36   11.12
   6   8   2    2.35    4.27
  -6   8   2    0.57    4.55
   6   8  -2    3.03    4.28
  -6   8  -2    7.36   11.32
  -6  -8   2    5.91    8.24
  -6  -8  -2    1.76    8.79
   7   8   2    6.60    8.62
  -7   8   2    1.04    3.14
   7   8  -2    2.69    4.21
  -7   8   2    9.37   10.17
  -7  -8   2    1.27    5.85
  -7  -8  -2   10.52   14.43
   8   8   2  166.93   15.99
  -8   8   2  186.28   28.34
   8   8  -2  175.68   21.15
  -8  -8   2  172.54   38.14
  -8  -8  -2  186.57   31.32
   9   8   2  375.19   25.08
  -9   8   2  380.57   38.33
   9   8  -2  430.76   36.36
  -9  -8   2  394.50   25.50
  10   8   2  850.56   43.41
 -10   8   2  767.04   41.97
  10   8  -2  890.94   39.76
 -10  -8   2  804.94   75.74
  11   8   2  114.48   14.21
  11   8  -2  111.29   21.26
 -11   8   2  109.14   19.18
 -11   8  -2  112.80   14.41
 -11  -8   2  144.42   55.90
 -11  -8  -2  112.32   21.22
  12   8   2    1.89   10.65
 -12   8   2    3.50    4.02
 -12   8  -2   10.54   20.24
 -12   8   2    4.90    8.27
 -12  -8   2    5.32    6.87
 -12  -8  -2   -0.19   10.26
  13   8   2   55.18   41.86
 -13   8   2   26.72   13.43
 -13   8  -2   53.41   16.22
 -13   8   2   47.79   19.55
 -13  -8   2   59.39   23.50
 -13  -8  -2   36.59   21.47
  14   8   2  266.74   22.23
 -14   8  -2  267.39   26.35
 -14  -8   2  263.15   26.66
 -14  -8  -2  232.25   34.05
  15   8   2   71.17   27.42
 -15   8  -2   79.10   16.08
 -15   8   2   83.74   27.76
 -15  -8   2   88.20   34.33
 -15  -8  -2   70.96   47.54
  16   8   2   29.70   21.61
 -16   8  -2   27.31   12.18
 -16   8   2   34.00   18.21
 -16  -8   2   25.12    9.42
 -16  -8  -2   27.34   15.02
  17   8   2    2.58    7.32
 -17   8  -2    4.23   11.79
 -17   8   2    5.95   10.54
 -17  -8   2   -1.39    8.87
 -17  -8  -2   10.49   14.27
  18   8   2   40.40   34.56
 -18   8  -2   48.85   16.70
 -18   8   2   41.18   23.69
 -18  -8   2   49.38   18.01
 -18  -8  -2   38.95   13.22
  19   8   2   86.97   15.58
 -19   8  -2   90.59   18.92
 -19   8   2   73.78   15.65
 -19  -8   2   77.33   37.80
 -19  -8  -2   82.59   19.85
  20   8   2   51.40   52.42
 -20   8  -2   83.11   19.84
 -20   8   2   73.37   29.33
 -20  -8   2   67.96   35.45
 -20  -8  -2   70.33   21.50
  21   8   2    0.68    8.87
 -21   8  -2    4.01   13.04
 -21   8   2    1.28    5.28
 -21  -8   2    8.44   11.85
 -21  -8  -2    6.25   11.65
   0   9   2    5.50    3.54
   0  -9   2    8.84    6.72
   1   9   2  115.32   13.75
   1   9  -2  114.28   16.31
   1  -9   2  118.65    8.84
  -1  -9   2   84.16   14.58
  -1  -9  -2  134.85   16.02
   2   9   2  637.32   29.62
  -2  -9  -2  678.86   32.65
   3   9   2  628.90   30.98
   3   9  -2  606.99   29.90
  -3  -9   2  494.49   23.66
   4   9   2 1012.24   42.69
  -4  -9   2 1009.53   41.55
   5   9   2  314.69   22.28
  -5  -9   2  256.76   22.25
   6   9   2  261.47   18.45
   6   9  -2  291.12   25.90
  -6   9  -2  389.05   42.52
  -6  -9   2  258.72   20.33
   7   9   2   15.00   12.47
  -7   9   2   14.35    8.82
   7   9  -2   11.82    7.49
  -7   9  -2    8.84   13.20
  -7  -9   2   14.51   10.81
  -7  -9  -2   14.34   11.69
   8   9   2   59.65   17.76
  -8   9   2   61.72   19.98
   8   9  -2   50.70   23.19
  -8   9  -2   71.08   13.81
  -8  -9  -2   65.54   17.53
  -9   9   2  200.62   23.52
   9   9  -2  234.77   28.05
  -9   9  -2  222.72   18.22
  -9   9   2  296.67   23.96
  -9  -9   2  200.19   15.29
  -9  -9  -2  201.55   43.72
 -10   9   2 1032.32   68.46
  10   9  -2 1246.75   62.30
 -10   9   2 1423.09   71.02
 -10  -9   2 1078.89   61.52
 -10  -9  -2 1241.05   63.33
 -11   9   2  695.74   53.91
 -11   9  -2  739.65   57.56
 -11  -9   2  718.99   61.38
 -11  -9  -2  816.99   64.55
 -12   9   2 1745.58  128.78
 -12   9  -2 1854.72  135.86
 -12  -9   2 1919.49   98.01
 -12  -9  -2 1933.87   82.46
 -13   9  -2  866.15   43.35
 -13  -9  -2  962.81   49.68
 -14   9  -2  980.84  103.14
 -14  -9   2  985.70  119.46
 -14  -9  -2 1084.32  113.98
  15   9   2  152.53   17.68
 -15   9  -2  156.95   22.22
 -15   9   2  156.61   15.62
 -15  -9   2  144.13   53.32
 -15  -9  -2  151.08   20.11
  16   9   2    8.66    9.42
 -16   9  -2   11.78   18.42
 -16   9   2    7.47    5.38
 -16  -9   2    7.53    8.30
 -16  -9  -2    8.94   15.05
  17   9   2   43.85   41.22
 -17   9  -2   55.81   19.38
 -17   9   2   50.32   32.69
 -17  -9   2   38.87   18.64
 -17  -9  -2   46.38   34.25
  18   9   2  379.13   48.38
 -18   9  -2  380.93   31.66
 -18   9   2  384.49   24.42
 -18  -9   2  427.30   32.62
 -18  -9  -2  443.76   34.93
  19   9   2  485.09   37.91
 -19   9  -2  411.90   31.20
 -19   9   2  379.59   27.95
 -19  -9   2  443.96   38.24
  20   9   2 1171.16   77.71
 -20   9  -2 1104.92   72.53
 -20   9   2  949.21   63.09
 -20  -9   2 1050.49   80.51
 -20  -9  -2 1236.60   86.14
   0 -10   2  188.96   12.14
   0 -10  -2  204.90   17.50
  -1 -10   2  124.48    9.01
  -1 -10  -2  166.70   16.55
  -2  10   2  782.52   37.86
  -2 -10   2  658.97   26.44
   3  10   2  453.61   26.32
  -3 -10   2  367.28   24.66
  -3 -10  -2  524.97   30.64
   4  10   2  389.34   24.49
   4  10  -2  371.84   28.31
  -4 -10   2  357.98   21.76
  -4 -10  -2  410.35   26.30
   5  10   2    7.88    9.75
  -5  10   2    9.07    9.72
   5  10  -2    8.73    9.34
  -5 -10   2    9.00   10.17
  -5 -10  -2   12.57   16.25
   6  10   2  185.20   17.75
  -6  10   2  193.89   38.80
   6  10  -2  203.02   27.41
  -6 -10  -2  233.83   35.22
   6 -10  -2  217.77   21.59
   7  10  -2  293.66   27.11
  -7 -10   2  276.72   17.91
  -7 -10  -2  296.75   49.16
  -8  10   2  381.58   37.00
   8  10  -2  426.13   31.27
  -8 -10  -2  436.29   41.06
   9  10   2   85.93   19.92
  -9  10   2   81.21   15.10
   9  10  -2   98.18   21.48
  -9  10  -2   92.16   21.15
  -9 -10   2   81.19   25.60
  -9 -10  -2   96.17   48.70
  10  10   2   41.24   10.36
 -10  10   2   42.10   22.50
  10  10  -2   41.36   14.49
 -10  10  -2   51.59   14.73
 -10  10   2   52.74   25.79
 -10 -10   2   38.16   18.00
 -10 -10  -2   46.10   22.22
  11  10   2   17.22   10.29
 -11  10   2   10.56    7.66
  11  10  -2   10.09    7.98
 -11  10  -2   12.05   13.23
 -11  10   2   15.60   10.40
 -11 -10   2   12.10   10.95
 -11 -10  -2   14.35   19.04
  12  10   2   83.04   17.00
 -12  10   2   81.16   15.42
 -12  10  -2  116.51   22.46
 -12  10   2   96.25   37.76
 -12 -10   2  101.17   58.59
 -12 -10  -2   94.13   16.65
  13  10   2   94.68   20.55
 -13  10   2   67.18   28.96
 -13  10  -2  107.66   20.64
 -13  10   2  100.60   24.48
 -13 -10   2   77.97   33.18
 -13 -10  -2  105.14   20.23
  14  10   2   77.10   40.55
 -14  10  -2   93.85   32.43
 -14  10   2   91.60   18.03
 -14 -10   2   81.63   46.73
 -14 -10  -2   74.73   16.81
  15  10   2   -0.29   10.87
 -15  10  -2    3.35   12.38
 -15  10   2    4.44    6.37
 -15 -10   2    1.10    4.80
 -15 -10  -2    2.58   10.85
  16  10   2  115.51   25.24
 -16  10  -2  126.31   30.42
 -16  10   2  118.20   21.15
 -16 -10   2  105.94   28.56
 -16 -10  -2  127.84   24.05
  17  10   2   80.12   12.04
 -17  10  -2   89.52   23.18
 -17  10   2   70.34   35.78
 -17 -10   2   87.01   42.14
 -17 -10  -2  101.58   48.74
  18  10   2   61.53   47.89
 -18  10  -2   67.24   19.87
 -18  10   2   74.91   38.12
 -18 -10   2   60.16   39.19
 -18 -10  -2   76.38   20.49
  19  10   2    5.07   10.32
 -19  10  -2    7.11   13.09
 -19  10   2    0.70    5.76
 -19 -10   2    2.18    6.99
 -19 -10  -2    3.59   10.37
   0  11   2    3.88   10.59
   0  11  -2   11.68   14.44
   0 -11   2    7.16    8.68
   0 -11  -2    3.69    9.40
   1  11   2  198.57   18.34
  -1 -11   2  137.84   10.90
  -1 -11  -2  206.54   19.21
   2  11  -2  693.23   36.75
  -2 -11  -2  698.00   37.09
  -3 -11   2  264.79   16.30
  -3 -11  -2  394.28   26.29
   4  11  -2  571.57   32.77
  -4 -11   2  507.55   31.34
  -4 -11  -2  610.75   34.05
   5  11  -2  212.05   20.28
  -5 -11  -2  198.75   20.78
   6  11   2  113.90   48.07
  -6  11   2  120.78   22.75
   6  11  -2  110.97   34.97
  -6 -11   2   98.74   19.92
  -6 -11  -2  131.69   17.96
   6 -11  -2  115.90   19.90
   7  11   2   32.40   19.07
  -7  11   2   23.81   27.33
   7  11  -2   28.08   17.12
  -7  11  -2   31.73   16.56
  -7 -11   2   24.39   15.14
  -7 -11  -2   39.70   27.36
   7 -11  -2   28.31   12.99
   8  11   2    3.80    6.14
  -8  11   2    7.82    8.26
   8  11  -2   17.20    8.80
  -8  11  -2   16.12   18.86
  -8 -11   2    8.92    6.38
  -8 -11  -2    8.73   13.03
   8 -11  -2   12.01    9.75
   9  11   2   26.26   18.08
  -9  11   2   28.09   16.98
   9  11  -2   24.96   12.34
  -9  11  -2   28.17   11.62
  -9 -11   2   21.23   11.15
  -9 -11  -2   27.72   15.74
   9 -11  -2   23.73   13.68
  10  11   2  345.86   26.54
 -10  11   2  302.91   30.49
  10  11  -2  355.37   34.45
 -10  11  -2  345.25   40.54
  11  11   2  448.59   52.36
 -11  11   2  342.13   40.51
 -11  11  -2  324.86   39.73
 -11 -11   2  361.05   40.51
  12  11   2  848.73   53.18
 -12  11   2  718.66   48.22
 -12  11  -2  822.84   53.95
 -12 -11  -2  918.70   57.17
  13  11   2  251.44   24.13
 -13  11   2  198.64   29.06
 -13  11  -2  247.63   26.22
 -13 -11   2  273.45   23.98
 -13 -11  -2  267.12   26.61
  14  11   2  118.37   29.09
 -14  11  -2  122.06   25.21
 -14  11   2  115.87   36.46
 -14 -11   2   97.70   30.49
 -14 -11  -2  132.25   19.45
  15  11   2    2.28    7.21
 -15  11  -2    3.22   12.74
 -15  11   2    2.14    8.43
 -15 -11   2    7.57    8.29
 -15 -11  -2    2.17    9.36
  16  11   2   53.11   34.58
 -16  11  -2   52.05   29.75
 -16  11   2   61.31   13.86
 -16 -11   2   71.16   20.80
 -16 -11  -2   44.94   33.81
  17  11   2   35.83   33.51
 -17  11  -2   28.24   20.31
 -17  11   2   30.24   21.81
 -17 -11   2   21.55   13.89
 -17 -11  -2   32.26   41.25
  18  11   2   43.70   46.64
 -18  11  -2   63.62   46.37
 -18  11   2   72.73   12.38
 -18 -11   2   78.46   32.71
 -18 -11  -2   73.81   22.01
  19  11   2   53.51   14.29
 -19  11  -2   41.66   28.99
 -19 -11   2   45.30   26.72
 -19 -11  -2   52.77   15.05
  -2  12   2 2286.94  106.46
  -3 -12   2  388.94   21.11
   4  12   2  104.10   46.77
   4  12  -2  114.38   32.22
  -4 -12   2  102.28   30.89
   5  12   2  101.31   15.90
  -5  12   2   79.06   13.52
  -5 -12   2   79.03   23.35
  -5 -12  -2  109.95   28.00
   6  12   2  925.32   72.72
  -6  12   2  920.38   89.06
  -6 -12  -2  983.81   76.97
   7  12  -2  894.96   44.03
  -7 -12  -2 1032.51   54.50
  -8  12   2 1963.72   84.78
   8  12  -2 2061.86   84.71
  -8 -12   2 2143.94   86.99
  -8 -12  -2 2056.89   88.46
  -9  12   2  722.89   77.71
   9  12  -2  780.19   88.39
  -9  12  -2  790.56   84.41
  -9 -12  -2  936.24  100.16
  10  12   2  909.69  105.69
 -10  12   2  764.07   87.47
  10  12  -2  895.82   95.99
 -10 -12   2  773.90   91.96
 -10 -12  -2  881.78  100.10
  11  12   2  141.23   47.99
 -11  12   2  110.76   27.21
 -11  12  -2   98.50   14.15
 -11 -12  -2  126.45   48.60
  11 -12  -2  149.18   30.93
  12  12   2   20.49   13.20
 -12  12   2    9.98   10.23
 -12  12  -2   20.36   17.16
 -12 -12   2   13.53    8.33
 -12 -12  -2   16.24   12.42
  12 -12  -2   19.91   11.95
  13  12   2   13.50   10.96
 -13  12  -2    6.43   13.07
 -13 -12   2    9.97   11.43
 -13 -12  -2   16.59   12.39
  14  12   2  183.49   50.96
 -14  12  -2  179.81   24.98
 -14 -12   2  174.69   20.45
 -14 -12  -2  216.61   26.60
  15  12   2  261.77   23.98
 -15  12  -2  249.95   24.11
 -15  12   2  223.23   72.71
 -15 -12   2  228.50   18.98
 -15 -12  -2  237.80   36.93
  16  12   2  577.80   43.74
 -16  12  -2  489.71   37.76
 -16  12   2  528.42   62.37
 -16 -12   2  521.81   37.06
 -16 -12  -2  574.08   54.48
  17  12   2  308.48   29.32
 -17  12  -2  235.53   21.58
 -17  12   2  269.27   24.13
 -17 -12   2  266.03   33.07
   0  13   2   -0.56    9.45
   0  13  -2    6.91    7.22
   0 -13  -2    2.73   11.47
   1  13   2    4.09    8.55
  -1  13   2    3.85    5.61
   1  13  -2    6.69   10.56
  -1  13  -2    0.24   14.66
  -1 -13  -2    1.72   10.57
   2  13   2    1.95    8.31
  -2  13   2    3.33    7.62
   2  13  -2    2.00    9.92
  -2  13  -2   -0.69   10.99
  -2 -13   2    3.51    4.14
   2 -13  -2    3.43   10.38
  -3  13   2   77.04   40.93
  -3 -13   2   43.44    6.14
  -3 -13  -2  104.15   18.71
   4  13   2  604.91   33.83
  -4  13   2  732.56   39.78
   5  13   2  488.60   31.82
   5  13  -2  485.30   42.89
   6  13   2  203.47   46.64
  -6 -13   2  158.74   20.69
   7  13   2   13.88   11.67
  -7  13   2   14.56   12.11
   7  13  -2   13.32    8.61
  -7 -13   2   13.56   12.50
  -7 -13  -2   14.72   16.84
   8  13   2  447.80   41.60
  -8  13   2  454.77   41.94
   8  13  -2  521.02   34.46
  -8 -13  -2  446.05   60.58
  -9  13   2  352.97   26.48
   9  13  -2  446.04   29.83
  10  13   2  714.22   50.78
 -10  13   2  599.57   42.12
 -10  13  -2  724.08   57.68
 -10 -13   2  581.87   60.29
 -10 -13  -2  737.02   50.80
  11  13   2  183.26   47.24
 -11  13   2  184.05   37.66
  11 -13  -2  249.19   36.36
  12  13   2  199.65   24.89
 -12  13   2  173.20   29.39
 -12 -13   2  190.87   56.64
 -12 -13  -2  259.28   31.24
  12 -13  -2  247.19   35.26
  13  13   2  135.39   16.90
 -13  13  -2  118.15   16.67
 -13 -13   2  134.72   31.50
 -13 -13  -2  153.78   20.87
  14  13   2  382.39   32.80
 -14  13  -2  353.18   33.19
 -14 -13   2  370.92   33.45
 -14 -13  -2  404.61   34.84
  14 -13  -2  412.22   42.13
  15  13   2  117.45   31.94
 -15  13  -2   91.68   20.95
 -15 -13   2   88.34   29.14
 -15 -13  -2  118.83   42.43
  15 -13  -2  119.73   20.95
  16  13   2   17.29   13.29
 -16  13  -2    7.68   16.78
 -16 -13   2   14.25    8.07
 -16 -13  -2    9.57   11.69
   1  14   2   94.02   27.62
  -2  14   2  123.16   19.56
   2  14  -2  142.73   25.02
   3  14   2   18.95   10.08
   3  14  -2   20.61   13.17
  -3  14  -2    9.65   11.11
  -3 -14  -2   18.55   11.57
   3 -14  -2   23.75   12.69
   4  14   2    5.13   11.94
  -4  14   2    3.65    7.65
   4  14  -2    0.45    4.94
  -4  14  -2    5.88   11.23
  -4 -14   2    0.54    4.48
  -4 -14  -2    2.37   10.59
   4 -14  -2    1.79    9.16
   5  14   2    7.74   15.30
  -5  14   2    6.64   13.54
   5  14  -2    4.87    4.49
  -5  14  -2   15.58   17.07
  -5 -14   2    2.31    3.78
  -5 -14  -2   11.31    9.99
   6  14   2   49.36   29.97
  -6  14   2   65.90   25.01
   6  14  -2   26.70   30.89
  -6  14  -2   50.21   15.79
  -6 -14   2   39.05   19.62
  -6 -14  -2   47.08   41.03
   7  14   2   62.46   35.48
  -7  14   2   70.31   35.66
   7  14  -2   65.83   28.59
  -7 -14   2   45.77   20.01
  -7 -14  -2   55.32   43.17
   8  14   2  177.54   62.72
  -8  14   2  168.97   39.47
   8  14  -2  140.24   30.82
  -8  14  -2  140.73   26.79
  -8 -14   2  134.22   34.91
  -8 -14  -2  167.63   51.61
   8 -14  -2  162.47   24.07
   9  14   2  109.57   19.70
  -9  14   2   85.27   23.19
   9  14  -2   91.70   36.25
  -9 -14   2   81.10   27.14
  -9 -14  -2  105.56   21.45
  10  14   2  120.62   22.62
 -10  14   2  148.83   49.80
  10  14  -2  145.68   32.56
 -10 -14   2  118.62   31.15
 -10 -14  -2  174.33   25.87
  11  14   2   43.40   25.16
 -11  14   2   34.92   17.32
 -11  14  -2   46.33   17.57
 -11 -14   2   40.76   12.69
 -11 -14  -2   58.82   16.53
  11 -14  -2   43.45   14.82
  12  14   2   14.61   10.50
 -12  14   2   11.13   10.89
 -12  14  -2   14.57   19.25
 -12 -14   2    6.56    6.83
 -12 -14  -2   15.74   11.61
  12 -14  -2   21.27   14.52
  13  14   2    9.96   14.76
 -13  14  -2   15.08   17.67
 -13 -14   2    9.51    6.47
 -13 -14  -2   11.42    8.61
  13 -14  -2    5.60   10.80
  14  14   2   78.47   53.86
 -14  14  -2   80.71   17.62
 -14 -14   2   69.01   35.80
 -14 -14  -2   98.37   20.52
  14 -14  -2  104.04   23.38
  15  14   2   50.53   40.13
 -15  14  -2   46.00   20.57
 -15 -14   2   39.25   18.41
 -15 -14  -2   58.54   17.23
  15 -14  -2   65.93   19.07
   0  15   2    4.05    8.08
   0  15  -2    6.79   12.59
   0 -15  -2    4.91    8.80
   1  15   2   12.60   15.45
  -1  15   2   11.76    9.49
   1  15  -2    7.02    9.17
  -1  15  -2    7.71   14.62
  -1 -15  -2   14.05   10.36
   2  15   2  149.99   39.45
  -2  15   2  145.26   59.41
   6  15   2  337.43   57.17
  -6  15   2  355.85   54.20
   6  15  -2  351.65   35.44
   7  15   2    7.53    9.25
  -7  15   2    8.59    8.57
   7  15  -2   13.20    9.49
  -7  15  -2   13.17   12.66
  -7 -15   2   10.24    4.15
  -7 -15  -2   15.96   17.09
   8  15   2  124.76   36.74
  -8  15   2  125.96   26.48
  -8 -15   2  101.68   23.78
  -8 -15  -2  124.35   47.28
  -9  15   2  222.21   33.27
   9  15  -2  242.08   33.33
  -9 -15   2  200.25   29.38
  10  15   2  672.65   94.41
 -10  15   2  688.23   50.94
 -10 -15   2  591.36   40.26
 -10 -15  -2  854.51   60.22
  10 -15  -2  922.44   69.61
 -11  15   2  305.57   28.82
 -11  15  -2  284.39   25.87
  12  15   2  762.62   57.16
 -12  15  -2  683.50   51.87
 -12 -15   2  642.67   44.39
  12 -15  -2  850.33   71.48
  13  15   2  440.33   43.20
 -13  15  -2  331.88   31.15
 -13 -15   2  330.72   69.54
   2  16   2  478.71   75.68
   4  16   2  261.14   52.34
   4  16  -2  207.13   23.25
   5  16   2   10.29   12.18
   5  16  -2    2.00    9.48
  -5  16  -2   11.83   16.93
  -5 -16  -2    6.26   12.05
   6  16   2   60.07   32.38
  -6  16   2   82.04   30.08
   6  16  -2   63.86   32.54
  -6  16  -2   76.40   17.86
  -6 -16  -2   63.17   19.50
   7  16   2  145.75   54.55
  -7  16   2  135.30   17.79
   7  16  -2  113.42   54.74
  -7  16  -2  143.27   24.72
   8  16   2  204.90   33.50
  -8  16   2  220.54   21.46
   8  16  -2  226.35   28.90
  -8  16  -2  237.70   38.93
  -8 -16  -2  246.71   70.38
   8 -16  -2  275.71   33.36
   9  16   2   69.42   36.71
  -9  16   2   55.39   29.40
   9  16  -2   50.27   28.96
  -9  16  -2   49.15   17.94
  -9 -16  -2   52.97   33.90
  10  16   2   40.21   18.30
 -10  16   2   28.45   19.28
 -10  16  -2   43.79   15.14
 -10 -16   2   23.36   14.64
 -10 -16  -2   32.34   26.45
  10 -16  -2   34.32   14.97
  11  16   2   10.52    8.67
 -11  16   2   13.05   11.69
 -11  16  -2   13.42   20.03
 -11 -16   2   11.06    8.38
 -11 -16  -2   20.79   23.37
  11 -16  -2   14.02    8.38
   0  17   2    4.81   11.73
   0  17  -2    5.94   11.40
  -1  17   2   23.97   12.27
   1 -17  -2   26.83   11.36
   2  17   2  222.66   76.17
  -2  17   2  271.41   30.87
  -4  17   2  457.50   68.06
  -6  17   2  228.24   33.78
   7  17   2   33.85   15.43
  -7  17   2   23.17   12.48
   7  17  -2   22.88   14.35
  -7  17  -2   34.19   19.43
  -7 -17  -2   25.21   18.35
   8  17   2    7.83   10.34
  -8  17   2    1.94    6.39
   8  17  -2    5.04    9.80
  -8  17  -2    2.38   12.43
  -8 -17  -2    3.46    4.76
   8 -17  -2   53.46   15.50
   0   0  -3    1.29    5.90
   0   0  -3    6.19    7.74
   1   0  -3  258.59   18.42
  -1   0  -3  183.95   13.66
  -1   0   3  164.62   20.64
  -1   0  -3  191.42   13.06
  -2   0  -3  333.96   16.43
  -2   0   3  381.03   25.32
  -2   0  -3  437.76   19.91
  -3   0  -3 1896.55   63.81
  -3   0   3 2150.15   71.69
   5   0  -3 6281.63  201.52
   6   0  -3 1477.64   50.78
  -6   0  -3 1244.65   46.48
  -6   0  -3 1710.28   58.57
  -7   0  -3  561.71   26.81
  -7   0  -3  588.72   25.34
  -8   0  -3   17.04   14.27
  -8   0  -3    7.39    9.71
  -9   0  -3  364.73   22.67
  -9   0  -3  336.36   17.52
 -10   0  -3  221.39   17.19
 -11   0  -3  500.78   31.24
 -12   0  -3  135.53   18.56
 -12   0   3  133.76   15.79
 -13   0  -3  635.60   40.10
 -13   0   3  585.06   33.31
 -14   0  -3  416.18   47.79
 -14   0   3  369.16   45.31
 -15   0   3  483.45   39.76
 -16   0  -3    9.56   19.28
 -16   0   3    2.70    7.43
 -17   0   3  150.80   58.39
 -18   0   3  350.78   26.05
 -19   0   3 1144.64   71.03
 -20   0   3  291.94   47.16
   0   1  -3  268.30   19.69
   0  -1  -3  244.23   15.00
  -1  -1   3  406.85   19.06
  -1  -1  -3  399.53   19.48
  -1   1  -3  395.48   17.77
   2   1   3   66.00    8.33
  -2   1  -3   74.67   11.01
  -2   1   3  100.50   29.59
  -2  -1   3  100.03   25.71
  -2   1  -3   88.07    8.81
   3   1   3   39.92   23.99
   3   1  -3   40.36    7.42
  -3   1  -3   38.61    8.93
   3  -1  -3   51.50   11.70
  -3   1   3   39.22   17.54
  -3  -1   3   42.39   20.98
  -3   1  -3   35.61    7.13
  -3  -1  -3   29.98    9.33
   4   1   3    9.19   18.85
   4   1  -3   14.30    7.29
  -4   1  -3   -0.97    8.05
   4  -1  -3   13.07    4.52
  -4  -1   3    8.41   13.57
  -4   1  -3   16.61    6.85
  -4  -1  -3    8.52    9.84
   5   1   3  318.32   29.53
   5   1  -3  341.15   17.14
  -5   1  -3  336.56   21.10
   5  -1  -3  292.19   13.34
  -5   1   3  284.20   31.25
  -5   1  -3  301.96   14.45
   6   1   3  204.94   41.59
   6   1  -3  282.81   21.83
   6  -1  -3  265.07   13.67
  -6   1  -3  226.17   18.28
  -6   1  -3  281.38   18.96
  -7   1  -3  738.21   33.83
  -8   1  -3  359.86   22.03
  -9   1  -3  484.39   27.91
  -9  -1  -3  472.13   26.89
 -10   1  -3   55.97   12.15
 -10   1   3   90.67   17.14
 -10  -1  -3   56.89   12.53
 -11   1  -3    3.65   10.31
 -11  -1  -3    9.45   14.67
 -11   1   3    3.00    5.07
 -11  -1  -3    1.88    5.08
 -12   1  -3   28.46   15.35
 -12  -1  -3   26.56   14.02
 -12   1   3   23.64   14.55
 -13   1  -3  142.57   21.61
 -13  -1  -3  123.79   15.44
 -13   1   3  139.04   41.47
 -13  -1   3  138.80   44.44
 -14   1  -3  138.13   19.97
 -14  -1  -3  152.35   23.73
 -14   1   3  126.34   21.29
 -14  -1   3  141.48   19.56
 -15   1  -3  544.59   36.98
 -15   1   3  593.33   43.01
 -15  -1   3  619.46   41.26
 -16   1  -3  232.04   27.16
 -16  -1  -3  225.06   22.61
 -16   1   3  210.51   21.40
 -16  -1   3  205.38   25.90
 -17   1   3  608.06   51.63
 -17  -1   3  603.70   52.64
 -18   1   3  150.97   15.42
 -18  -1   3  172.27   18.23
 -19   1   3   64.91   28.82
 -19  -1   3   61.18   28.77
 -20  -1  -3   10.82   15.96
 -20   1   3    5.34    8.19
 -20  -1   3    2.24    5.56
   0   2   3    0.64    4.43
   0   2  -3    7.38    9.81
   0  -2  -3    2.39    7.02
  -1   2   3    4.13    5.48
   1   2   3    3.01    3.29
   1   2  -3    5.07    7.39
  -1   2  -3   10.36   10.98
  -1  -2   3    6.32    3.99
  -1  -2  -3    1.86    7.35
  -1   2  -3    2.40    3.52
   1  -2  -3    4.68    9.77
  -2   2   3   31.94   15.46
   2   2   3   15.89   14.12
  -2   2  -3   35.50    9.36
  -2  -2  -3   45.41    9.68
  -2   2  -3   36.26    6.31
   3   2   3  431.38   23.18
   3   2  -3  396.65   18.56
  -3   2  -3  400.38   16.60
  -3  -2  -3  444.48   21.55
  -4   2   3  311.24   16.14
   4   2   3  255.05   16.31
  -4   2  -3  303.08   18.98
  -4   2  -3  339.02   14.50
   5   2   3  743.73   32.71
   5   2  -3  773.53   29.66
  -5   2  -3  739.66   32.39
  -5   2   3  722.49   30.98
  -5   2  -3  702.05   25.20
   6   2   3  311.81   17.81
   6   2  -3  423.31   19.60
  -6   2  -3  353.37   22.07
   7   2   3  205.94   14.58
  -7   2  -3  203.07   18.08
  -7   2   3  225.83   26.96
  -7  -2  -3  190.59   29.21
   8   2   3    1.13    5.25
  -8   2  -3   14.45   11.37
  -8   2   3    6.80   10.24
  -8  -2  -3    4.23    7.34
   9   2   3   26.40   37.32
  -9   2  -3   44.78   13.41
  -9   2   3   38.80   20.29
  -9  -2   3   38.10   10.50
  -9  -2  -3   46.53   11.10
  10   2   3   17.50   12.41
 -10   2  -3   26.87   11.47
 -10   2   3   22.39   14.00
 -10  -2   3   24.01   13.15
 -10  -2  -3   25.67   13.23
  11   2   3    3.70    5.77
 -11   2  -3    2.60   10.45
 -11   2   3   13.30    9.00
 -11  -2   3    5.53    6.35
 -11  -2  -3   10.44    6.07
  12   2   3   11.82   14.13
 -12   2  -3   12.39   11.15
 -12   2   3   17.46   10.28
 -12  -2   3   17.46   11.61
 -12  -2  -3   13.39    6.54
 -13   2  -3   76.85   16.27
 -13   2   3   88.94   29.65
 -13  -2   3   91.57   30.70
 -14   2  -3   58.24   14.77
 -14   2   3   56.44   22.43
 -14  -2   3   57.62   22.26
 -15   2  -3  279.57   29.50
 -15  -2  -3  258.73   31.54
 -15   2   3  251.75   25.13
 -15  -2   3  260.74   26.57
 -16   2  -3   49.28   13.68
 -16  -2  -3   50.39   14.34
 -16   2   3   53.21   27.03
 -16  -2   3   50.64   26.71
 -17   2  -3   14.01   18.80
 -17  -2  -3   20.57   15.42
 -17   2   3    6.74    9.38
 -17  -2   3    5.13    6.33
 -18   2  -3   67.78   17.00
 -18   2   3   69.38   33.91
 -18  -2   3   70.01   40.96
 -19   2   3  274.79   27.77
 -19  -2   3  322.21   30.06
 -20   2   3   81.37   40.66
 -20  -2   3   75.80   44.42
   0   3   3  128.89   22.72
   0  -3   3  153.19   14.35
   1   3   3  270.85   21.88
  -1   3   3  272.28   15.35
  -1  -3   3  277.96   13.97
  -1  -3  -3  282.58   18.20
  -1   3  -3  258.52   12.18
  -2   3   3  190.48   14.43
  -2   3  -3  249.73   17.88
  -2  -3   3  214.90   12.75
  -2   3  -3  206.28   10.27
   2  -3  -3  210.33   16.86
  -3   3   3  393.53   18.94
  -3   3   3  349.26   18.83
  -3   3  -3  309.14   12.67
   4   3   3    8.84   14.23
  -4   3   3    5.86    8.82
  -4   3  -3   24.95   16.89
  -4  -3  -3   23.42   12.73
   5   3   3  350.17   21.02
  -5   3  -3  373.66   21.39
  -6   3   3  742.44   29.14
   6   3   3  847.16   37.73
  -6   3  -3  746.12   33.41
   8   3   3  874.07   43.12
  -8   3  -3  745.07   36.44
  -8  -3  -3 1000.70   46.27
   9   3   3  864.72   44.00
  -9   3  -3  848.33   42.62
  10   3   3   79.12   39.13
  11   3   3    4.20    7.43
 -11   3  -3    9.68   14.62
 -11   3   3    2.98    6.03
 -11  -3   3    2.62    5.64
 -11  -3  -3    2.76    4.61
  12   3   3    2.66    8.14
 -12   3  -3    7.17   10.86
 -12   3   3    6.42    8.56
 -12  -3   3    6.78    9.06
 -12  -3  -3    6.43    8.44
  13   3   3   92.11   17.71
 -13   3  -3  105.66   21.79
 -13   3   3   97.56   42.46
 -13  -3   3  107.38   17.13
 -13  -3  -3   96.08   22.80
 -14   3  -3  192.83   24.87
 -14   3   3  189.77   41.08
 -14  -3   3  187.80   24.92
 -15   3  -3 1342.85   73.93
 -15   3   3 1221.38   90.39
 -15  -3   3 1257.57   69.39
 -16   3  -3 1005.39   61.18
 -16   3   3  892.87   56.57
 -16  -3   3  978.34   67.99
 -17   3  -3 2449.78  175.01
 -17   3   3 2184.48  158.82
 -17  -3   3 2379.23  170.26
 -18   3  -3  535.05   33.32
 -18   3   3  538.81   33.65
 -18  -3   3  537.69   34.13
 -19   3  -3  488.89   43.54
 -19   3   3  387.12   32.78
 -19  -3   3  427.28   72.29
 -20   3   3   -0.08    9.33
 -20  -3   3   -0.32    9.68
   0   4   3    0.07    6.86
   0   4  -3    1.58    5.63
   0  -4   3    3.66    4.26
   0  -4  -3    5.88    7.48
   1   4   3   90.67   16.04
  -1   4   3   96.45   11.59
   1   4  -3   88.23   13.45
  -1   4  -3  103.09   13.51
  -1  -4   3   82.40   18.76
  -1  -4  -3   98.64   12.56
   1  -4  -3  102.22   14.21
   2   4   3  126.50   12.07
  -2   4   3  116.24   12.38
  -2  -4  -3  149.23   14.51
   2  -4  -3  150.50   16.35
   3   4   3  498.16   28.60
  -3   4   3  467.82   30.67
  -3  -4  -3  488.72   24.38
   4   4   3  250.32   16.17
  -4   4   3  262.96   13.91
  -4   4   3  303.59   19.96
   5   4   3  424.03   23.73
  -5   4   3  483.61   24.20
   5   4  -3  464.63   22.00
  -5   4  -3  467.64   26.87
   6   4   3  182.30   26.51
   6   4  -3  218.87   16.28
  -6   4  -3  206.53   17.72
  -7   4   3  301.68   16.77
  -7   4  -3  262.09   21.47
  -7   4   3  241.25   28.45
  -7  -4   3  264.60   42.63
  -7  -4  -3  225.37   28.32
   8   4   3   69.35   26.15
  -8   4  -3   66.01   15.77
  -8  -4   3   56.82   37.54
  -8  -4  -3   55.27   13.31
   9   4   3   30.98   15.21
  -9   4  -3   24.04    8.40
  -9   4   3   37.06   16.75
  -9  -4   3   37.31   17.20
  -9  -4  -3   28.70   16.72
  10   4   3    1.79    5.09
 -10   4  -3    4.90   11.21
 -10   4   3    5.00    4.52
 -10  -4   3    1.39    4.37
 -10  -4  -3    3.13    4.53
  11   4   3   23.65   27.58
 -11   4  -3   36.15   15.37
 -11   4   3   32.99   18.78
 -11  -4   3   35.10   16.76
 -11  -4  -3   29.53   17.61
  12   4   3   40.92   35.28
 -12   4  -3   52.51   12.76
 -12   4   3   52.89   26.58
 -12  -4   3   59.50   24.52
 -12  -4  -3   52.51   10.57
  13   4   3  212.01   28.13
 -13   4  -3  215.73   29.72
 -13   4   3  215.22   44.94
 -13  -4   3  238.09   29.75
 -13  -4  -3  193.21   36.11
  14   4   3   39.16   35.14
 -14   4  -3   55.01   16.28
 -14   4   3   67.32   24.46
 -14  -4   3   50.70   19.99
 -14  -4  -3   48.31   15.86
  15   4   3   20.95   12.26
 -15   4  -3   40.10   10.69
 -15   4   3   32.41   19.55
 -15  -4   3   46.14   18.93
 -15  -4  -3   26.46   20.08
  16   4   3    6.69   16.21
 -16   4  -3   14.17   18.93
 -16   4   3    6.67    6.49
 -16  -4   3    5.57   12.17
 -17   4  -3   10.87   18.31
 -17   4   3    1.75    7.68
 -17  -4   3    2.65    7.07
 -18   4  -3   17.48   17.91
 -18   4   3    6.31    8.27
 -18  -4   3   18.48   13.36
 -19   4  -3   68.75   19.20
 -19   4   3   49.26   25.90
 -19  -4   3   62.30   26.17
 -20   4  -3   35.08   15.98
 -20  -4  -3   31.14   13.72
 -20   4   3   19.00   12.75
 -20  -4   3   21.41   11.20
   0   5   3    2.39    2.62
   0  -5   3   10.43    9.18
   0  -5  -3   36.02   11.49
   1   5   3  246.62   36.53
  -1   5   3  215.22   13.92
  -1  -5  -3  220.93   17.05
   2   5   3  258.91   24.24
  -2   5   3  245.33   14.04
  -2  -5  -3  241.32   17.83
   2  -5  -3  257.66   20.38
   3   5   3  366.22   23.26
  -3   5  -3  433.56   28.20
  -3  -5   3  376.10   18.93
  -3  -5  -3  332.96   20.05
   3  -5  -3  328.84   23.46
   4   5   3   19.72   16.85
  -4   5   3    5.16    5.50
   4   5  -3   23.10   18.48
  -4   5  -3   51.78   19.55
  -4  -5  -3   32.91   12.99
   5   5   3  159.52   16.67
  -5   5   3  157.41   10.81
   5   5  -3  164.20   13.75
  -5  -5   3   91.99   18.43
  -6   5   3  498.08   23.38
  -6   5  -3  471.98   34.45
  -6  -5   3  487.26   28.34
  -7   5   3 1928.80   85.53
  -7  -5  -3 1648.48   75.32
   8   5   3  425.20   27.30
  -8   5  -3  449.93   27.65
  -8  -5  -3  510.88   30.41
   9   5   3  114.42   31.43
  -9   5  -3  135.78   17.81
  -9  -5  -3  140.03   35.00
  10   5   3    2.24    7.25
 -10   5  -3    3.80   11.33
 -10   5   3    0.68    4.61
 -10  -5   3   -1.75    6.65
 -10  -5  -3    4.75    8.68
  11   5   3    1.49    5.99
 -11   5  -3    1.21   11.17
 -11   5   3    1.06    3.97
 -11  -5   3    1.17    5.84
 -11  -5  -3    0.90    9.73
  12   5   3    3.13    7.92
 -12   5  -3    7.22   10.54
 -12   5   3    6.33    8.14
 -12  -5   3    0.89    6.67
 -12  -5  -3    3.20    7.34
  13   5   3   14.19   10.20
 -13   5  -3   20.49   11.92
 -13   5   3   18.72   11.81
 -13  -5   3   22.28   11.43
 -13  -5  -3   14.25    9.22
  14   5   3   29.37   16.17
 -14   5  -3   42.43   15.37
 -14   5   3   38.32   20.48
 -14  -5   3   67.37   35.49
 -14  -5  -3   32.74   23.70
  15   5   3  394.10   39.44
 -15   5  -3  413.25   35.24
 -15   5   3  378.00   41.88
 -15  -5   3  405.64   32.40
 -15  -5  -3  426.22   30.63
  16   5   3  358.64   38.94
 -16   5  -3  348.62   32.57
 -16   5   3  330.03   34.58
 -16  -5   3  350.82   31.13
 -17   5  -3  958.54   52.41
 -17   5   3  837.48   45.45
 -17  -5   3  946.50   49.97
 -18   5  -3  142.84   19.39
 -18   5   3  134.37   46.46
 -18  -5   3  132.97   30.02
 -19   5  -3   15.55   17.42
 -19   5   3    2.01    3.53
 -19  -5   3    7.45   11.22
   0   6   3    7.58    8.85
   0  -6  -3    7.83    8.31
  -1   6   3  268.89   17.72
  -2   6   3  635.39   30.28
  -3   6   3 2810.09  115.90
  -3  -6  -3 2831.47  115.83
  -4   6   3 1496.32   62.10
  -4  -6   3 1760.05   73.01
  -4  -6  -3 1958.89   84.01
   5   6  -3 3883.84  168.76
  -5  -6   3 3786.57  151.54
  -5  -6  -3 3846.03  168.04
  -6   6   3 1040.76   47.45
  -6  -6   3  896.84   45.97
  -6  -6  -3 1330.34   64.13
  -7  -6  -3  858.21   48.08
   8   6   3   27.06   18.01
  -8   6   3   34.21   50.99
  -8  -6   3   20.78   17.98
  -8  -6  -3   22.15   24.39
   9   6   3  156.41   19.79
  -9   6  -3  150.16   19.95
  -9  -6   3  151.88   16.98
  -9  -6  -3  159.41   23.46
  10   6   3  183.56   37.82
 -10   6  -3  194.99   18.94
 -10  -6   3  201.16   41.78
 -10  -6  -3  235.30   38.78
  11   6   3  767.90   92.15
 -11   6  -3  829.71   87.12
 -11  -6   3  828.33   86.43
 -11  -6  -3  864.01   90.32
 -12   6  -3  309.24   36.01
 -12   6   3  457.72   61.63
 -12  -6   3  267.11   31.23
  13   6   3  518.65   35.99
 -13   6  -3  473.45   33.99
 -13   6   3  476.07   34.58
 -13  -6   3  520.47   35.47
 -13  -6  -3  514.17   35.30
 -14   6  -3  148.01   18.86
 -14   6   3  159.73   63.17
 -14  -6   3  141.94   19.91
 -14  -6  -3  143.99   30.41
  15   6   3  269.58   29.98
 -15   6  -3  222.14   26.85
 -15   6   3  203.56   76.74
 -15  -6   3  274.51   59.19
 -15  -6  -3  222.93   26.40
  16   6   3   13.20   11.74
 -16   6  -3    2.52   13.50
 -16   6   3    7.31    7.90
 -16  -6   3    2.40    6.52
 -16  -6  -3    9.75    7.92
  17   6   3  126.12   22.35
 -17   6  -3  124.63   21.11
 -17   6   3  118.04   19.59
 -17  -6   3  119.37   38.48
 -17  -6  -3  119.33   24.83
  18   6   3  215.20   24.54
 -18   6  -3  203.20   29.55
 -18   6   3  186.52   20.97
 -18  -6   3  187.56   32.25
  19   6   3  664.64   54.11
 -19   6  -3  811.51   65.08
 -19   6   3  668.43   53.33
 -19  -6   3  725.53   60.19
   0   7   3  152.36   12.53
   2   7   3   60.46   30.68
  -2  -7  -3   71.76   13.30
   3   7   3   32.09   27.27
  -3   7   3   29.37   16.65
   3   7  -3   28.09   15.92
  -3   7  -3   34.05   12.09
  -3  -7   3   20.44   14.04
  -3  -7  -3   24.57   12.44
   3  -7  -3   27.89   12.01
  -4   7   3   80.07   22.52
   4   7  -3   82.72   10.76
  -4   7  -3   85.81   17.68
  -4  -7  -3  107.17   17.50
   4  -7  -3  100.84   20.74
   5   7   3  279.02   35.93
  -5   7   3  256.18   25.42
   5   7  -3  256.05   30.34
  -5  -7  -3  266.23   20.06
   6   7   3  135.19   76.35
  -6   7   3  133.36   14.42
  -6  -7   3  272.93   48.76
  -6  -7  -3  185.91   22.61
   7   7   3  402.44   37.38
  -7   7   3  416.63   36.19
  -7  -7   3  330.98   27.48
  -7  -7  -3  437.55   50.47
  -8   7  -3  221.73   19.46
  -8  -7  -3  192.27   38.07
   9   7   3  295.00   22.37
  -9   7  -3  324.71   24.19
  -9   7   3  310.13   26.98
  -9  -7   3  320.05   20.46
  -9  -7  -3  351.08   57.05
  10   7   3  100.33   20.75
 -10   7  -3   86.80   16.34
 -10  -7   3   76.44   12.02
 -10  -7  -3  102.09   21.59
  11   7   3   93.04   32.16
 -11   7  -3  119.93   24.35
 -11   7   3   90.10   44.43
 -11  -7   3  110.97   34.45
 -11  -7  -3  109.92   34.45
  12   7   3    7.69    9.61
 -12   7  -3    2.21   13.06
 -12   7   3    8.92    5.54
 -12  -7   3   -1.53   10.84
 -12  -7  -3    8.38    5.36
  13   7   3  404.46   49.00
 -13   7  -3  458.58   35.17
 -13   7   3  380.07   28.48
 -13  -7   3  408.44   55.02
 -14   7  -3  331.90   34.59
 -14   7   3  284.51   67.06
 -14  -7   3  267.96   25.94
  15   7   3  669.59   70.35
 -15   7  -3  716.94   40.04
 -15   7   3  658.48   39.04
 -15  -7   3  726.79   44.70
 -15  -7  -3  716.21   39.87
  16   7   3  225.45   25.15
 -16   7  -3  202.99   22.61
 -16   7   3  188.05   26.39
 -16  -7   3  185.37   31.85
 -16  -7  -3  239.44   23.43
  17   7   3  300.70   27.72
 -17   7  -3  309.37   31.80
 -17   7   3  285.59   26.66
 -17  -7   3  316.82   30.45
 -17  -7  -3  263.03   50.98
  18   7   3   38.32   30.22
 -18   7  -3   59.37   16.30
 -18   7   3   51.53   24.30
 -18  -7   3   60.39   21.54
 -18  -7  -3   66.67   14.24
   0   8   3    1.72    4.49
   0   8  -3    4.74    7.96
   1   8   3   14.18    6.84
  -1   8   3    8.42   10.09
   1   8  -3    8.91   10.15
  -1   8  -3    5.14    7.95
  -1  -8  -3    9.59    9.17
   1  -8  -3    5.15    8.39
   2   8   3    0.99    5.09
  -2   8   3    3.06    2.47
   2   8  -3    7.99    9.77
  -2   8  -3   13.96   11.55
   2  -8  -3    6.29   12.88
  -3   8  -3  197.64   25.12
  -3  -8  -3  158.91   18.90
  -4   8   3  279.22   30.31
  -4  -8  -3  367.17   32.63
  -5  -8   3  785.43   59.09
  -5  -8  -3  959.58   73.60
   6   8  -3  294.33   26.53
  -6   8  -3  307.06   34.78
  -6  -8  -3  282.79   28.32
   7   8   3   41.05   22.88
  -7   8   3   39.84   13.09
  -7   8  -3   50.16   16.51
  -7  -8  -3   45.18   26.86
   8   8   3   14.93    9.68
  -8   8   3   14.05    8.51
  -8   8  -3   27.04   18.30
  -8  -8   3   13.57    7.95
  -8  -8  -3   16.80    9.67
   9   8   3  101.18   31.43
  -9   8  -3  115.79   22.93
  -9   8   3   96.53   19.42
  -9  -8   3   82.66   30.46
  -9  -8  -3  119.23   25.83
  10   8   3   23.67   16.48
 -10   8  -3   28.35   15.42
 -10   8   3   26.91   16.01
 -10  -8   3   34.49   13.38
 -10  -8  -3   29.24   17.33
  11   8   3    4.85    9.92
 -11   8  -3    7.35   11.34
 -11   8   3    5.09   10.64
 -11  -8   3    5.12    6.85
 -11  -8  -3    5.38    9.26
  12   8   3    4.55    9.11
 -12   8  -3    5.57   13.67
 -12   8   3    2.42    7.44
 -12  -8   3   -1.51    7.86
 -12  -8  -3   -0.54    9.24
  13   8   3   83.91   22.49
 -13   8  -3   96.07   18.27
 -13   8   3   97.79   35.23
 -13  -8   3  102.12   30.76
 -13  -8  -3   91.05   31.16
  14   8   3  106.08   15.19
 -14   8  -3  115.32   19.70
 -14   8   3   99.47   25.71
 -14  -8   3  124.78   31.58
 -14  -8  -3  101.36   44.11
  15   8   3  285.54   27.59
 -15   8  -3  297.20   30.57
 -15   8   3  269.09   26.45
 -15  -8   3  271.12   68.60
 -15  -8  -3  239.38   29.83
  16   8   3   19.07   30.09
 -16   8  -3   35.16   19.40
 -16   8   3   30.80   16.26
 -16  -8   3   34.52   20.08
 -16  -8  -3   25.91   20.15
  17   8   3    4.44    6.66
 -17   8  -3    3.52   12.21
 -17   8   3   12.42    7.16
 -17  -8   3   15.42   10.48
 -17  -8  -3    8.23   14.77
   1   9   3  378.68   57.08
   1   9  -3  436.40   37.78
   2   9   3   95.54   37.92
  -2  -9  -3  110.11   17.62
   3   9   3   48.74   31.14
  -3   9   3   41.47   27.36
   3   9  -3   39.22    9.94
  -3   9  -3   37.03   19.40
  -3  -9  -3   45.67   13.90
   3  -9  -3   54.86   15.39
  -4   9   3   15.13    6.35
   4   9  -3   14.67   10.28
  -4   9  -3   31.39   16.04
  -4  -9  -3   31.13   14.80
   5   9   3  294.99   22.83
  -5   9   3  257.39   16.51
   5   9  -3  278.55   19.27
   6   9   3  415.53   31.83
  -6   9   3  317.13   25.23
   7   9   3 1115.19  118.71
  -7  -9  -3 1175.47   66.30
  -8   9  -3  526.44   59.58
  -8  -9   3  419.69   47.49
  -8  -9  -3  613.54   68.18
   9   9   3 1121.81   98.13
  -9   9  -3  996.26   56.93
  -9  -9  -3 1070.30   62.19
  10   9   3  361.61   51.16
 -10   9  -3  219.17   24.60
 -10  -9   3  180.73   15.84
  11   9   3   36.19   26.28
 -11   9  -3   40.37   15.07
 -11   9   3   40.22   20.19
 -11  -9   3   42.31   15.53
  12   9   3   14.44   11.35
 -12   9  -3    8.12   14.89
 -12  -9   3    8.79   10.11
 -12  -9  -3   15.57    8.24
  13   9   3  231.71   23.16
 -13   9  -3  232.25   25.33
 -13   9   3  190.70   53.64
 -13  -9   3  189.54   22.00
 -13  -9  -3  216.52   30.87
  14   9   3  265.41   27.25
 -14   9  -3  245.81   23.32
 -14   9   3  234.28   51.63
 -14  -9   3  216.68   16.89
 -14  -9  -3  305.83   50.05
  15   9   3 1205.19   77.94
 -15   9  -3 1214.77   76.57
 -15   9   3 1009.25   66.71
 -15  -9   3 1144.81   71.57
 -15  -9  -3 1170.97   71.74
  16   9   3  648.26   60.34
 -16   9  -3  598.67   43.69
 -16   9   3  562.67   57.36
 -16  -9   3  542.78   39.56
  17   9   3 1248.66   96.21
 -17   9  -3 1168.28   89.64
 -17   9   3 1099.41   82.50
 -17  -9   3 1136.13   89.33
   0  10   3   20.09   16.85
   0  10  -3   13.95   12.43
   1  10  -3  231.34   19.82
   3  10   3  493.96   74.73
   3  10  -3  530.61   57.91
   4  10   3  112.38   26.32
  -4  10   3  103.77   49.28
   4  10  -3  177.46   24.13
   5  10   3   88.75   51.37
  -5  10   3   78.64   17.25
   5  10  -3   95.76   16.36
  -5 -10  -3   98.23   19.94
   6  10   3   89.37   46.29
  -6  10   3   74.28   12.07
   7  10   3  302.99   44.97
  -7  10   3  295.66   22.92
  -7  10  -3  336.78   34.07
   7 -10  -3  395.00   36.77
  -8  10   3  121.90   19.78
  -8 -10   3  128.88   43.62
   8 -10  -3  245.30   34.23
   9  10   3  178.84   27.23
  -9  10  -3  241.36   31.56
  -9 -10   3  214.62   19.81
   9 -10  -3  265.44   35.10
  10  10   3   -1.00    9.26
 -10  10  -3   23.72   16.88
 -10 -10   3    1.05    7.54
 -10 -10  -3    8.02   14.54
  10 -10  -3    0.79   14.33
  11  10   3   77.30   22.16
 -11  10  -3  107.80   21.21
 -11 -10   3   86.68   27.72
 -11 -10  -3  103.82   47.63
  12  10   3  118.35   21.88
 -12  10  -3  111.47   49.69
 -12  10   3  113.15   15.66
 -12 -10   3   99.90   33.07
 -12 -10  -3  148.79   23.33
  13  10   3  164.39   20.06
 -13  10  -3  206.26   41.93
 -13  10   3  145.03   34.81
 -13 -10   3  154.89   39.08
 -13 -10  -3  183.74   46.60
  14  10   3   13.91   12.32
 -14  10  -3   -0.68   12.96
 -14  10   3    7.02    7.68
 -14 -10   3    8.53   11.72
 -14 -10  -3   15.74   13.06
  15  10   3    3.07    6.63
 -15  10  -3    6.02   12.64
 -15  10   3    3.76    8.12
 -15 -10   3    4.49    6.83
 -15 -10  -3    4.84    9.89
  16  10   3    2.45    6.88
 -16  10  -3    6.41   20.41
 -16 -10  -3    5.60    9.22
   0  11  -3  174.17   25.56
  -2  11   3  104.57   33.87
   3  11   3  177.35   25.46
   3  11  -3  173.45   18.01
  -3 -11  -3  167.90   20.19
   4  11   3    7.23    7.74
  -4  11   3    8.30    9.50
   4  11  -3    7.81    9.93
   4 -11  -3    3.15   10.75
   5  11   3  113.69   24.32
  -5  11   3  107.50   18.39
   5  11  -3  106.61   14.00
  -5 -11  -3  140.47   29.81
   6  11   3  193.06   58.50
  -6  11   3  159.72   19.97
   8  11   3  262.50   31.67
  -8 -11  -3  317.67   39.81
   9  11   3  247.68   59.28
  -9 -11  -3  270.72   32.18
   9 -11  -3  305.30   36.70
  10  11   3   17.84   12.16
 -10  11  -3   20.38   14.07
 -10 -11   3   10.57    8.03
 -10 -11  -3   24.39   11.57
  10 -11  -3   23.95   15.26
  11  11   3    6.58    9.82
 -11  11  -3    5.51   14.23
 -11 -11   3    1.31    5.00
 -11 -11  -3    0.90    8.82
  11 -11  -3    8.01   15.52
  12  11   3    5.51    8.75
 -12  11  -3    7.94   11.44
 -12 -11   3    2.54    5.28
 -12 -11  -3    0.80    7.21
  12 -11  -3   14.32   16.89
  13  11   3   16.20   13.52
 -13  11  -3   18.22   13.61
 -13 -11   3   11.01    9.31
 -13 -11  -3   20.02   11.73
  14  11   3   26.66   23.37
 -14  11  -3   36.65   19.44
 -14 -11   3   26.47   15.07
 -14 -11  -3   41.26   13.92
   0  12   3   15.15   12.33
   1  12   3  428.65  101.97
  -4  12   3  872.64  100.11
  -6  12   3  380.00   45.61
  -7 -12  -3  499.21   56.68
   8  12   3   43.23   18.56
  -8 -12  -3   54.54   20.62
   9  12   3   16.52   17.31
  -9  12  -3   19.48   12.87
  -9 -12  -3   14.46   10.85
  10  12   3   93.21   17.16
 -10  12  -3  127.91   22.54
 -10 -12  -3  114.26   43.00
  11  12   3  721.59   54.16
 -11  12  -3  716.38   52.86
  11 -12  -3  844.68   65.02
  12  12   3  333.70   37.53
 -12  12  -3  320.46   29.92
  12 -12  -3  405.46   65.89
  13  12   3  731.66   61.86
 -13  12  -3  728.56   61.76
 -13 -12  -3  770.44   65.63
  13 -12  -3  806.60   72.61
   1  13   3  302.15   29.20
   2  13   3    7.49   11.43
  -2  13   3   12.86   13.47
   2  13  -3   13.36    9.48
   3  13   3  114.37   32.54
  -3  13   3  118.96   39.68
   3  13  -3   93.92   14.55
  -3 -13  -3  124.38   20.92
  -4  13   3  104.07   18.55
   4  13  -3  126.11   19.32
  -4 -13  -3  115.06   22.82
   5  13   3  214.21   25.45
  -5  13   3  195.63   23.84
   5  13  -3  224.85   23.33
  -5 -13  -3  246.93   30.85
   6  13   3   41.73   19.76
  -6  13   3   34.88   18.97
   7  13   3   79.08   40.90
  -7  13   3   82.00   36.42
  -7  13  -3   82.35   18.70
  -7 -13  -3   83.45   19.99
   8  13   3   94.96   14.84
  -8  13  -3  101.62   15.14
   9  13   3  400.45   34.70
  -9 -13  -3  433.24   53.88
  10  13   3  127.83   61.14
 -10  13  -3  155.40   20.44
 -10 -13  -3  197.60   30.88
  10 -13  -3  211.17   30.89
  11  13   3   46.97   28.76
 -11  13  -3   55.79   16.74
 -11 -13  -3   61.77   18.91
  11 -13  -3   69.11   23.96
   0  14   3    4.03    7.08
   0  14  -3    0.99    8.38
   0 -14  -3   -1.15    8.34
   1  14   3    5.68   10.33
  -1  14   3   14.18   13.66
   1  14  -3    7.16   19.38
  -1  14  -3   11.78   11.74
   1 -14  -3   14.69   10.64
   2  14   3   30.65   20.93
  -2  14   3   33.12   15.10
   2  14  -3   20.51   20.21
  -2  14  -3   35.46   12.04
  -2 -14  -3   47.65   14.55
   2 -14  -3   19.32    7.79
   3  14   3  132.31   62.89
  -3  14   3  120.35   17.36
   3  14  -3  138.73   18.71
  -3 -14  -3  146.19   19.88
   3 -14  -3  148.37   21.28
   4  14   3   71.09   35.05
  -4  14   3   55.09   29.00
   5  14   3  148.80   24.44
  -5  14   3  134.46   47.75
   6  14   3   71.84   19.15
  -6  14   3   49.31   24.56
  -6  14  -3   78.38   20.94
   7  14   3   37.15   13.54
  -7  14   3   33.03   28.45
  -7  14  -3   39.73   12.74
  -7 -14  -3   49.38   15.67
   8  14   3    2.83   10.76
  -8  14  -3    2.81   11.74
  -8 -14  -3    3.38   11.61
   8 -14  -3    4.34   11.11
   9  14   3   19.73   16.87
  -9  14  -3   39.06   21.51
  -9 -14  -3   15.65   20.40
   9 -14  -3   22.38   11.56
  -1  15   3  386.14   63.42
  -2  15   3   60.42   34.34
   3  15   3    5.72   10.23
  -3  15   3    2.36    5.06
   3  15  -3    3.84    9.31
  -3  15  -3    1.47   11.64
   4  15   3   43.14   20.75
  -4  15   3   37.78   20.00
   5  15   3  143.59   61.63
  -5  15   3  159.01   62.27
  -5  15  -3  202.79   31.34
   6  15   3  116.01   65.45
  -6  15   3   97.29   15.69
  -6  15  -3  217.80   36.10
  -2   0  -4  434.53   48.50
  -3   0  -4  212.71   27.51
  -4   0  -4    0.88    6.99
  -5   0  -4  190.76   23.77
  -5   0   4  171.13   26.66
  -6   0  -4   17.34   14.46
  -7   0   4  539.11   39.96
  -8   0  -4  147.23   19.35
  -9   0  -4 2387.02  168.68
 -10   0  -4  159.74   21.59
 -11   0   4  760.05   40.83
 -12   0  -4   44.29   20.76
 -12   0   4    0.48    6.05
 -13   0  -4  255.81   28.74
 -13   0   4  218.91   34.40
 -14   0   4   35.69   13.91
 -15   0   4  690.34   65.07
   0   1  -4   12.69   10.23
   0  -1  -4    6.20   11.42
   0  -1  -4   11.84    9.20
   1   1  -4  173.32   25.43
  -1   1  -4  208.26   31.23
   1  -1  -4  177.94   24.63
  -1  -1  -4  198.93   29.62
   1  -1  -4  136.31   18.89
  -2  -1  -4   40.70   12.80
  -3   1  -4  375.98   42.44
  -3  -1  -4  414.45   45.66
  -4   1  -4    2.42    7.28
  -4  -1  -4   33.16   10.76
  -5   1  -4  292.03   26.24
  -5   1   4  285.50   34.98
  -5  -1   4  267.09   38.84
  -6   1  -4   10.68    8.34
  -6  -1   4    5.27    8.07
  -7   1  -4    5.35    8.72
  -7   1   4    3.58    5.45
  -7  -1   4    1.62    5.91
  -8   1  -4    3.54    8.40
  -8  -1  -4    4.54    8.50
  -8   1   4    5.31   10.58
  -8  -1   4    4.05   10.87
  -9   1  -4  234.83   30.87
  -9   1   4  161.64   24.49
  -9  -1   4  178.05   47.01
 -10   1  -4    8.75   10.40
 -10  -1  -4   18.03   15.69
 -10  -1   4   16.94   20.78
 -11  -1  -4  826.88   47.53
 -11   1   4  759.09   42.24
 -11  -1   4  778.32   41.71
 -12   1  -4   40.68   11.87
 -12  -1  -4   25.35   19.76
 -12   1   4   37.19   19.01
 -12  -1   4   33.57   15.16
 -13  -1  -4  599.29   43.11
 -13   1   4  573.43   49.92
 -13  -1   4  550.36   41.59
 -14   1   4   28.13   12.05
 -14  -1   4   22.98   14.92
 -15   1   4    7.91    8.96
 -15  -1   4   13.73   13.22
   0  -2  -4  120.65   16.89
   1   2  -4  718.48   75.40
   1  -2  -4  737.39   77.01
  -1  -2  -4  680.47   72.25
  -2   2  -4   34.22   11.22
  -2  -2  -4   46.10   12.82
  -3   2  -4   19.66    8.51
  -3  -2  -4   17.56    8.99
   3  -2  -4   18.54    9.65
  -4   2  -4    5.14    9.84
  -4  -2  -4    2.45    7.48
  -4  -2   4    1.75    3.95
  -5   2  -4    3.89    7.64
  -5  -2  -4    5.29   10.47
  -5   2   4    2.91    5.96
  -5  -2   4    6.59    4.67
  -6   2  -4    8.32    6.64
  -6  -2  -4    3.45    7.91
  -6   2   4    4.85    6.46
  -6  -2   4    4.48    5.40
  -7   2  -4   44.35   12.29
  -7  -2  -4   41.33   11.93
  -7   2   4   40.53   25.25
  -7  -2   4   38.41   18.04
  -8   2  -4    6.74   11.02
  -8  -2  -4    3.02    8.29
  -8  -2   4   10.62    8.20
  -9   2  -4  425.42   38.93
  -9  -2  -4  380.57   37.51
  -9   2   4  375.12   43.04
 -10   2  -4   19.45   11.41
 -10  -2   4   34.20   38.05
 -11   2  -4  361.38   28.90
 -11  -2  -4  335.16   31.48
 -11   2   4  288.54   69.02
 -11  -2   4  275.22   41.90
 -12   2  -4    4.28   10.65
 -12   2   4    8.17   12.43
 -12  -2   4    4.70    5.55
 -13   2   4   40.24   18.67
 -13  -2   4   32.83   20.00
 -14   2  -4   16.06   15.03
 -14   2   4   10.29   10.49
 -14  -2   4    2.88    3.87
 -15   2   4   90.53   35.08
 -15  -2   4   79.50   33.37
   1  -3  -4  462.21   32.01
   4   3   4    4.90    7.37
  -4  -3  -4  117.15   14.08
  -5   3  -4  154.81   15.93
  -6   3  -4   12.78   11.84
  -6   3   4   19.14   10.37
  -7   3  -4   31.49   10.62
  -7   3   4   37.74   24.14
  -7  -3   4   31.36   13.07
  -8   3  -4    3.80    8.01
  -8  -3   4    3.74    5.74
  -9   3  -4  181.46   23.41
  -9   3   4  144.99   39.53
  -9  -3   4  141.39   33.49
 -10   3  -4    4.61   11.24
 -11   3  -4 2450.35  140.53
 -11  -3  -4 2183.37   96.26
 -12   3   4  156.95   83.66
 -12  -3   4  163.94   78.16
 -13   3   4 1844.07  115.73
 -13  -3   4 1893.32  137.04
 -14   3  -4   29.58   17.02
 -14   3   4   25.74   13.90
 -14  -3   4   20.11   18.33
   0   4   4   95.99   13.40
   1   4   4  553.62   34.95
  -2   4   4   45.43   10.00
   2   4   4    4.15    5.84
  -3   4  -4  299.72   29.59
   4   4   4    4.98    8.31
  -4   4  -4   22.78   12.29
   5   4   4   -0.46    5.87
  -5   4  -4    1.80    7.64
  -5  -4  -4    3.66    8.63
   5  -4  -4    5.39    8.99
   6   4   4    8.13    6.40
  -6   4  -4   10.05   12.34
   7   4   4  161.68   17.22
  -7   4  -4  174.07   22.76
   8   4   4    9.29   17.58
  -8   4  -4    9.34   13.37
  -9   4   4  281.03   45.59
  -9  -4   4  298.60   23.36
  10   4   4   17.64   13.86
 -10   4  -4   12.35   11.79
 -10   4   4   22.56   15.09
 -10  -4   4   24.66   13.32
 -11   4  -4  110.18   21.39
 -11   4   4   67.05   36.44
 -11  -4   4   80.15   41.70
 -12   4  -4   22.39   18.28
 -12   4   4    3.54    5.86
 -12  -4   4    0.90    4.75
 -13   4  -4   20.54   15.05
 -13   4   4   11.93    8.53
 -13  -4   4    9.03    6.71
 -14   4  -4    2.32   10.49
 -14   4   4   -0.16    7.76
 -14  -4   4    2.47    4.97
   0   5   4    4.97   10.99
   0  -5  -4   27.05   16.34
   1   5   4  403.18   28.47
   1   5  -4  372.24   30.29
  -1   5  -4  275.59   21.36
  -1  -5  -4  327.79   25.68
   1  -5  -4  340.32   29.36
  -2   5   4   82.71   10.55
   2   5   4   11.58   10.82
   3   5   4  787.85   59.81
  -3   5  -4  813.00   54.31
   3  -5  -4  764.69   49.08
   4   5   4    2.13    9.06
  -4   5  -4   30.97   11.74
  -4  -5  -4   37.94    9.32
   5   5   4   35.62   24.43
  -5   5  -4   22.54    9.80
  -5  -5  -4   30.10    9.60
   5  -5  -4   32.86   12.46
   6   5   4   -1.88    9.57
  -6   5  -4    1.84    8.79
  -6  -5  -4   10.25   12.40
   6  -5  -4    6.20   10.19
   7   5   4   51.31   35.86
  -7   5  -4   60.17   18.01
  -7  -5  -4   67.61   11.08
   8   5   4    7.19    8.19
  -8   5  -4   11.81   13.57
  -8   5   4    9.30    8.67
   9   5   4   12.87   13.20
  -9   5  -4   19.58   15.63
  -9   5   4   19.29    7.69
  10   5   4   12.87   13.37
 -10   5  -4   24.25   15.45
 -10  -5   4   16.96    9.12
  11   5   4 1128.71   72.75
 -11   5  -4 1207.01   75.86
 -11   5   4 1091.80   69.00
 -11  -5   4 1034.30   78.67
  12   5   4   63.97   13.02
 -12   5  -4    6.48   10.68
 -12   5   4   73.89   44.19
 -12  -5   4   60.00   33.26
 -13   5  -4  596.30   52.54
 -13   5   4  515.68   44.22
 -13  -5   4  539.20   48.28
   0   6   4   14.20   12.43
   1   6   4 3779.05  208.81
  -1   6   4 3849.21  269.57
   2   6   4  139.21   18.23
  -2   6   4  228.85   18.78
   3   6   4  487.57   35.75
  -3   6  -4  547.16   40.13
   3  -6  -4  543.91   43.68
   4   6   4    4.37    8.76
  -4   6  -4   18.91    8.83
   5   6   4  132.38   17.30
  -5   6  -4  136.75   19.55
  -5  -6  -4  129.54   18.00
   5  -6  -4  138.46   20.58
   6   6   4   34.16   30.16
  -6   6  -4   43.55   14.71
  -6  -6  -4  102.89   17.62
   7   6   4 1174.87   56.40
  -7   6  -4 1239.19   61.52
  -7  -6  -4 1129.35   52.30
   8   6   4   77.99   60.75
  -8   6  -4  147.78   33.07
   9   6   4 1527.72   93.42
  10   6   4   58.11   11.24
 -10   6  -4   85.50   19.24
  11   6   4  729.95   52.84
 -11   6  -4  711.36   51.05
 -11   6   4  660.44   52.08
  12   6   4    1.50    8.74
 -12   6   4    4.42    5.23
  13   6   4   84.64   44.31
 -13   6  -4  147.31   26.13
 -13   6   4  116.02   18.77
   0   7   4    0.40    5.96
   0   7  -4    0.88    7.66
   0  -7  -4   19.88   17.80
   1   7   4    9.07    8.28
  -1   7   4    6.11    7.29
  -1   7  -4    9.33   10.75
  -1  -7  -4    4.70    9.46
   1  -7  -4    4.06   13.23
   2   7   4    8.83    9.44
  -2   7   4   16.33    9.83
  -2   7  -4   14.73    9.59
  -2  -7  -4   20.89   11.23
   3   7   4  300.50   29.22
  -3   7  -4  301.77   32.79
   3  -7  -4  276.16   28.36
   4   7   4   16.83   15.76
   5   7   4  380.87   26.02
  -5  -7  -4  355.95   24.22
   6   7   4    0.30    6.60
  -6  -7  -4   20.59   10.23
   7   7   4    4.96    5.56
  -7   7  -4   11.88   14.45
  -7  -7  -4   -1.17    8.43
   8   7   4    2.29    5.74
  -8   7  -4   48.27   15.75
   9   7   4  600.81   47.12
  -9   7  -4  599.86   42.22
  -9  -7  -4  537.52   39.22
   9  -7  -4  623.30   45.10
  10   7   4   26.47   18.24
 -10   7  -4   66.07   21.70
  11   7   4  603.14   51.10
 -11   7   4  540.73   46.95
  12   7   4   16.99   13.85
 -12   7  -4   30.22   12.63
   0   8   4  120.19   12.44
   1   8   4  549.06   34.56
  -1   8   4  638.56   34.73
   2   8   4   12.48   15.67
  -2   8   4   -0.20    5.12
  -2  -8  -4   56.60   12.17
   3   8   4    6.34    6.71
  -3   8  -4    7.16   12.49
  -3  -8  -4    4.11    9.49
   3  -8  -4    6.72    9.94
   4   8   4    2.39   11.52
  -4   8  -4    6.39   10.64
  -4  -8  -4    3.22    9.11
   4  -8  -4    3.19   10.02
   5   8   4   14.98   10.24
  -5   8  -4   14.27    9.81
  -5  -8  -4   17.79   10.56
   5  -8  -4   14.87   15.95
   6   8   4    3.69    7.07
  -6   8  -4    4.19    9.33
   7   8   4    5.08    9.11
  -7   8  -4    3.85    9.83
  -7  -8  -4    9.96   12.46
   7  -8  -4   10.63   14.76
   8   8   4    5.20    8.99
  -8   8  -4    3.17    9.35
   9   8   4  507.21   39.60
  -9   8  -4  555.74   44.89
  10   8   4   38.72   26.31
 -10   8  -4   68.93   14.29
  11   8   4  210.48   30.99
 -11   8  -4  245.88   32.85
   0   9   4    3.17    7.48
   0   9  -4   16.38   11.61
   0  -9  -4   20.44   14.11
   1   9   4  154.61   18.17
  -1   9   4  141.00   16.04
  -1   9  -4  136.22   16.54
  -1  -9  -4  147.80   19.93
   1  -9  -4  140.54   21.42
  -2   9   4   31.88   20.68
  -2   9  -4   27.25   39.41
   4   9   4   51.71   23.79
   5   9   4  482.58   35.45
  -5  -9  -4  497.02   35.65
   6   9   4   21.12   12.94
  -6   9  -4   32.46   12.55
   7   9   4    7.20    7.81
  -7   9  -4    5.98   10.61
  -7  -9  -4   14.81   12.99
   7  -9  -4   17.99   14.17
   8   9   4    4.60    7.09
  -8   9  -4   11.88   16.33
   9   9   4  345.75   41.15
  -9   9  -4  331.97   34.64
   9  -9  -4  372.53   42.20
   0  10   4   29.62   19.00
   1  10   4  239.66   22.89
  -1  10   4  225.05   26.04
   2  10   4    3.21    7.96
   3  10   4  568.95   42.57
   4  10   4   17.59   14.80
  -4  10  -4   24.11   11.45
  -4 -10  -4   44.75   14.72
   5  10   4   11.27    6.22
  -5  10  -4   12.94   14.48
  -5 -10  -4   15.89   14.31
   5 -10  -4   11.97   14.14
   6  10   4    4.38    7.95
   7  10   4  417.60   38.11
  -7 -10  -4  419.53   39.15
   7 -10  -4  470.92   43.92
   0  11   4    2.04    3.83
   1  11   4  195.45   22.79
  -1  11   4  175.96   56.05
   2  11   4    6.54    6.52
  -2  11   4   30.35   12.89
  -2  11  -4   98.24   28.42
  -2 -11  -4   71.33   16.55
   3  11   4  456.09   41.14
   4  11   4   19.02   11.76
   0   0   0    0.00    0.00
;
_shelx_hkl_checksum              71042
loop_
_space_group_symop_operation_xyz
'x, y, z'
'-x+1/2, -y, z+1/2'
'-x, y+1/2, -z'
'x+1/2, -y+1/2, -z+1/2'
'-x, -y, -z'
'x-1/2, y, -z-1/2'
'x, -y-1/2, z'
'-x-1/2, y-1/2, z-1/2'
loop_
_atom_site_label
_atom_site_type_symbol
_atom_site_fract_x
_atom_site_fract_y
_atom_site_fract_z
_atom_site_U_iso_or_equiv
_atom_site_adp_type
_atom_site_occupancy
_atom_site_site_symmetry_order
_atom_site_calc_flag
_atom_site_refinement_flags_posn
_atom_site_refinement_flags_adp
_atom_site_refinement_flags_occupancy
Cd1 Cd 0.31208(2) 0.08317(3) 0.19884(15) 0.0089(3) Uani 1 1 d . . .
Cl1 Cl 0.21900(8) 0.08936(10) -0.3017(4) 0.0099(4) Uani 1 1 d . . .
Cl3 Cl 0.39690(7) 0.05712(11) 0.6975(4) 0.0121(4) Uani 1 1 d . . .
Cl2 Cl 0.32188(13) 0.2500 0.1952(7) 0.0217(6) Uani 1 2 d S T P
C2 C 0.0894(4) 0.1728(5) 0.2130(17) 0.0148(15) Uani 1 1 d . . .
H2 H 0.1122 0.1203 0.1819 0.018 Uiso 1 1 calc R U .
C1 C 0.0244(4) 0.1712(7) 0.310(2) 0.037(2) Uani 1 1 d . . .
H1 H 0.0026 0.1180 0.3419 0.045 Uiso 1 1 calc R U .
C3 C 0.1208(5) 0.2500 0.162(3) 0.020(2) Uani 1 2 d S T P
H3 H 0.1649 0.2500 0.0907 0.024 Uiso 1 2 calc R U P
N1 N -0.0092(5) 0.2500 0.359(3) 0.053(4) Uani 1 2 d S T P
H1A H -0.0502 0.2500 0.4203 0.063 Uiso 1 2 calc R U P
loop_
_atom_site_aniso_label
_atom_site_aniso_U_11
_atom_site_aniso_U_22
_atom_site_aniso_U_33
_atom_site_aniso_U_23
_atom_site_aniso_U_13
_atom_site_aniso_U_12
Cd1 0.0104(4) 0.0067(3) 0.0095(4) -0.00004(17) -0.00011(15) -0.00055(13)
Cl1 0.0101(8) 0.0075(7) 0.0120(9) 0.0003(5) -0.0003(5) -0.0001(5)
Cl3 0.0106(8) 0.0147(8) 0.0109(8) -0.0009(6) -0.0008(5) 0.0001(5)
Cl2 0.0343(14) 0.0058(11) 0.0252(16) 0.000 0.0022(10) 0.000
C2 0.016(3) 0.022(4) 0.006(3) 0.003(3) 0.001(2) -0.002(3)
C1 0.027(5) 0.059(7) 0.026(5) 0.000(4) 0.004(3) -0.017(4)
C3 0.010(4) 0.033(6) 0.017(6) 0.000 0.001(4) 0.000
N1 0.027(6) 0.101(12) 0.030(7) 0.000 0.008(5) 0.000
loop_
_atom_type_symbol
_atom_type_description
_atom_type_scat_dispersion_real
_atom_type_scat_dispersion_imag
_atom_type_scat_source
C C 0.0033 0.0016 'International Tables Vol C Tables 4.2.6.8 and 6.1.1.4'
H H 0.0000 0.0000 'International Tables Vol C Tables 4.2.6.8 and 6.1.1.4'
N N 0.0061 0.0033 'International Tables Vol C Tables 4.2.6.8 and 6.1.1.4'
Cl Cl 0.1484 0.1585 'International Tables Vol C Tables 4.2.6.8 and 6.1.1.4'
Cd Cd -0.8075 1.2024 'International Tables Vol C Tables 4.2.6.8 and 6.1.1.4'
loop_
_geom_angle_atom_site_label_1
_geom_angle_atom_site_label_2
_geom_angle_atom_site_label_3
_geom_angle
_geom_angle_site_symmetry_1
_geom_angle_site_symmetry_3
Cl2 Cd1 Cl3 96.07(8) . .
Cl2 Cd1 Cl3 95.60(8) . 1_554
Cl3 Cd1 Cl3 94.35(19) . 1_554
Cl2 Cd1 Cl1 91.33(7) . 1_556
Cl3 Cd1 Cl1 87.27(19) . 1_556
Cl3 Cd1 Cl1 172.67(5) 1_554 1_556
Cl2 Cd1 Cl1 90.89(7) . .
Cl3 Cd1 Cl1 172.72(5) . .
Cl3 Cd1 Cl1 87.07(19) 1_554 .
Cl1 Cd1 Cl1 90.45(19) 1_556 .
Cl2 Cd1 Cl1 171.01(8) . 2
Cl3 Cd1 Cl1 90.29(8) . 2
Cl3 Cd1 Cl1 90.23(8) 1_554 2
Cl1 Cd1 Cl1 82.61(6) 1_556 2
Cl1 Cd1 Cl1 82.56(7) . 2
Cd1 Cl1 Cd1 90.4(2) 1_554 .
Cd1 Cl1 Cd1 97.45(7) 1_554 2_554
Cd1 Cl1 Cd1 97.38(7) . 2_554
Cd1 Cl3 Cd1 94.35(19) . 1_556
Cd1 Cl2 Cd1 171.08(12) 7_565 .
C3 C2 C1 120.4(8) . .
C3 C2 H2 119.8 . .
C1 C2 H2 119.8 . .
C2 C1 N1 119.4(9) . .
C2 C1 H1 120.3 . .
N1 C1 H1 120.3 . .
C2 C3 C2 121.2(10) . 7_565
C2 C3 H3 119.4 . .
C2 C3 H3 119.4 7_565 .
C1 N1 C1 119.2(11) . 7_565
C1 N1 H1A 120.4 . .
C1 N1 H1A 120.4 7_565 .
loop_
_geom_bond_atom_site_label_1
_geom_bond_atom_site_label_2
_geom_bond_distance
_geom_bond_site_symmetry_2
Cd1 Cl2 2.549(7) .
Cd1 Cl3 2.582(4) .
Cd1 Cl3 2.590(4) 1_554
Cd1 Cl1 2.670(5) 1_556
Cd1 Cl1 2.673(5) .
Cd1 Cl1 2.702(7) 2
Cl1 Cd1 2.670(5) 1_554
Cl1 Cd1 2.702(7) 2_554
Cl3 Cd1 2.590(4) 1_556
Cl2 Cd1 2.549(7) 7_565
C2 C3 1.350(9) .
C2 C1 1.363(13) .
C2 H2 0.9300 .
C1 N1 1.391(12) .
C1 H1 0.9300 .
C3 C2 1.351(9) 7_565
C3 H3 0.9300 .
N1 C1 1.391(12) 7_565
N1 H1A 0.8600 .
loop_
_geom_hbond_atom_site_label_D
_geom_hbond_atom_site_label_H
_geom_hbond_atom_site_label_A
_geom_hbond_distance_DH
_geom_hbond_distance_HA
_geom_hbond_distance_DA
_geom_hbond_angle_DHA
_geom_hbond_site_symmetry_A
N1 H1A Cl2 0.86 2.62 3.417(14) 154.8 6_556
C1 H1 Cl3 0.93 2.91 3.625(10) 134.7 6_557
C2 H2 Cl3 0.93 2.71 3.514(12) 145.1 2_554
C2 H2 Cl1 0.93 2.87 3.504(9) 126.5 .
N1 H1A Cl2 0.86 2.62 3.417(14) 154.8 6_556
C1 H1 Cl3 0.93 2.91 3.625(10) 134.7 6_557
C2 H2 Cl3 0.93 2.71 3.514(12) 145.1 2_554
C2 H2 Cl1 0.93 2.87 3.504(9) 126.5 .
N1 H1A Cl2 0.86 2.62 3.417(14) 154.8 6_556
C1 H1 Cl3 0.93 2.91 3.625(10) 134.7 6_557
C2 H2 Cl3 0.93 2.71 3.514(12) 145.1 2_554
C2 H2 Cl1 0.93 2.87 3.504(9) 126.5 .
N1 H1A Cl2 0.86 2.62 3.417(14) 154.8 6_556
C1 H1 Cl3 0.93 2.91 3.625(10) 134.7 6_557
C2 H2 Cl3 0.93 2.71 3.514(12) 145.1 2_554
C2 H2 Cl1 0.93 2.87 3.504(9) 126.5 .
N1 H1A Cl2 0.86 2.62 3.417(14) 154.8 6_556
C1 H1 Cl3 0.93 2.91 3.625(10) 134.7 6_557
C2 H2 Cl3 0.93 2.71 3.514(12) 145.1 2_554
C2 H2 Cl1 0.93 2.87 3.504(9) 126.5 .
C2 H2 Cl1 0.93 2.87 3.504(9) 126.5 .
C2 H2 Cl3 0.93 2.71 3.514(12) 145.1 2_554
C1 H1 Cl3 0.93 2.91 3.625(10) 134.7 6_557
N1 H1A Cl2 0.86 2.62 3.417(14) 154.8 6_556
C2 H2 Cl1 0.93 2.87 3.504(9) 126.5 .
C2 H2 Cl3 0.93 2.71 3.514(12) 145.1 2_554
C1 H1 Cl3 0.93 2.91 3.625(10) 134.7 6_557
N1 H1A Cl2 0.86 2.62 3.417(14) 154.8 6_556
C2 H2 Cl1 0.93 2.87 3.504(9) 126.5 .
C2 H2 Cl3 0.93 2.71 3.514(12) 145.1 2_554
C1 H1 Cl3 0.93 2.91 3.625(10) 134.7 6_557
N1 H1A Cl2 0.86 2.62 3.417(14) 154.8 6_556
C2 H2 Cl1 0.93 2.87 3.504(9) 126.5 .
C2 H2 Cl3 0.93 2.71 3.514(12) 145.1 2_554
C1 H1 Cl3 0.93 2.91 3.625(10) 134.7 6_557
N1 H1A Cl2 0.86 2.62 3.417(14) 154.8 6_556
C2 H2 Cl1 0.93 2.87 3.504(9) 126.5 .
C2 H2 Cl3 0.93 2.71 3.514(12) 145.1 2_554
C1 H1 Cl3 0.93 2.91 3.625(10) 134.7 6_557
N1 H1A Cl2 0.86 2.62 3.417(14) 154.8 6_556
loop_
_geom_torsion_atom_site_label_1
_geom_torsion_atom_site_label_2
_geom_torsion_atom_site_label_3
_geom_torsion_atom_site_label_4
_geom_torsion
_geom_torsion_site_symmetry_4
C3 C2 C1 N1 -0.7(14) .
C1 C2 C3 C2 1.5(16) 7_565
C2 C1 N1 C1 0.0(18) 7_565
