#------------------------------------------------------------------------------
#$Date: 2017-03-04 15:11:37 +0200 (Sat, 04 Mar 2017) $
#$Revision: 193427 $
#$URL: file:///home/coder/svn-repositories/cod/cif/4/34/51/4345181.cif $
#------------------------------------------------------------------------------
#
# This file is available in the Crystallography Open Database (COD),
# http://www.crystallography.net/
#
# All data on this site have been placed in the public domain by the
# contributors.
#
data_4345181
loop_
_publ_author_name
'Pichaandi, Kothanda Rama'
'Kabalan, Lara'
'Amini, Hashem'
'Zhang, Guanghui'
'Zhu, Hanyu'
'Kentt\"amaa, Hilkka I'
'Fanwick, Phillip E.'
'Miller, Jeffrey T.'
'Kais, Sabre'
'Nabavizadeh, S. Masoud'
'Rashdi, Mehdi'
'Abu-Omar, Mahdi M'
_publ_section_title
;
 Mechanism of Me-Re Bond Addition to Platinum(II) and Dioxygen Activation
 by the Resulting Pt-Re Bimetallic Center.
;
_journal_issue                   4
_journal_name_full               'Inorganic chemistry'
_journal_page_first              2145
_journal_page_last               2152
_journal_paper_doi               10.1021/acs.inorgchem.6b02801
_journal_volume                  56
_journal_year                    2017
_chemical_formula_moiety         '13 H17 N2 O3 Pt1 Re1'
_chemical_formula_sum            'C13 H17 N2 O3 Pt Re'
_chemical_formula_weight         630.58
_space_group_crystal_system      triclinic
_space_group_IT_number           2
_space_group_name_Hall           '-P 1'
_space_group_name_H-M_alt        'P -1'
_symmetry_space_group_name_Hall  '-P 1'
_symmetry_space_group_name_H-M   'P -1'
_atom_sites_solution_hydrogens   geom
_atom_sites_solution_primary     iterative
_atom_sites_solution_secondary   difmap
_audit_creation_method           SHELXL-2014/7
_cell_angle_alpha                88.628(4)
_cell_angle_beta                 70.942(4)
_cell_angle_gamma                85.674(4)
_cell_formula_units_Z            2
_cell_length_a                   8.1990(6)
_cell_length_b                   9.5483(7)
_cell_length_c                   10.2508(7)
_cell_measurement_reflns_used    7753
_cell_measurement_temperature    200(2)
_cell_measurement_theta_max      28.276
_cell_measurement_theta_min      2.102
_cell_volume                     756.35(10)
_computing_cell_refinement       'HKL3000 (Otwinowski & Minor, 1997)'
_computing_data_collection       'Nonius Collect (Nonius, 1998)'
_computing_data_reduction        'HKL3000 (Otwinowski & Minor, 1997)'
_computing_publication_material  'local programs'
_computing_structure_refinement  'SHELXL-2014/7 (Sheldrick, 2014)'
_computing_structure_solution    'SHELXT (Sheldrick)'
_diffrn_ambient_temperature      200(2)
_diffrn_measured_fraction_theta_full 0.999
_diffrn_measured_fraction_theta_max 0.981
_diffrn_measurement_device_type  'Nonius KappaCCD'
_diffrn_measurement_method       '\w and \f'
_diffrn_radiation_type           MoK\a
_diffrn_radiation_wavelength     0.71073
_diffrn_reflns_av_R_equivalents  0.034
_diffrn_reflns_av_unetI/netI     0.0472
_diffrn_reflns_Laue_measured_fraction_max 0.981
_diffrn_reflns_limit_h_max       10
_diffrn_reflns_limit_h_min       0
_diffrn_reflns_limit_k_max       12
_diffrn_reflns_limit_k_min       -12
_diffrn_reflns_limit_l_max       13
_diffrn_reflns_limit_l_min       -12
_diffrn_reflns_number            7753
_diffrn_reflns_point_group_measured_fraction_full 0.999
_diffrn_reflns_point_group_measured_fraction_max 0.981
_diffrn_reflns_theta_full        25.242
_diffrn_reflns_theta_max         28.276
_diffrn_reflns_theta_min         2.102
_diffrn_source                   'fine focus tube'
_exptl_absorpt_coefficient_mu    17.240
_exptl_absorpt_correction_T_max  0.126
_exptl_absorpt_correction_T_min  0.010
_exptl_absorpt_correction_type   multi-scan
_exptl_absorpt_process_details   'SCALEPACK (Otwinowski & Minor, 1997)'
_exptl_crystal_colour            red
_exptl_crystal_density_diffrn    2.769
_exptl_crystal_description       brick
_exptl_crystal_F_000             572
_exptl_crystal_size_max          0.240
_exptl_crystal_size_mid          0.180
_exptl_crystal_size_min          0.120
_refine_diff_density_max         1.194
_refine_diff_density_min         -1.205
_refine_diff_density_rms         0.188
_refine_ls_extinction_coef       0.0046(3)
_refine_ls_extinction_expression Fc^*^=kFc[1+0.001xFc^2^\l^3^/sin(2\q)]^-1/4^
_refine_ls_extinction_method     'SHELXL-2014/7 (Sheldrick 2014'
_refine_ls_goodness_of_fit_ref   1.009
_refine_ls_hydrogen_treatment    constr
_refine_ls_matrix_type           full
_refine_ls_number_parameters     185
_refine_ls_number_reflns         3685
_refine_ls_number_restraints     0
_refine_ls_restrained_S_all      1.009
_refine_ls_R_factor_all          0.0525
_refine_ls_R_factor_gt           0.0332
_refine_ls_shift/su_max          0.001
_refine_ls_shift/su_mean         0.000
_refine_ls_structure_factor_coef Fsqd
_refine_ls_weighting_details
'w=1/[\s^2^(Fo^2^)+(0.0320P)^2^] where P=(Fo^2^+2Fc^2^)/3'
_refine_ls_weighting_scheme      calc
_refine_ls_wR_factor_gt          0.0656
_refine_ls_wR_factor_ref         0.0714
_reflns_Friedel_coverage         0.000
_reflns_number_gt                2715
_reflns_number_total             3685
_reflns_threshold_expression     'I > 2\s(I)'
_cod_data_source_file            ic6b02801_si_002.cif
_cod_data_source_block           RAM762
_cod_depositor_comments
'Adding full bibliography for 4345181--4345182.cif.'
_cod_database_code               4345181
_shelx_shelxl_version_number     2014/7
_shelx_space_group_comment
;
The symmetry employed for this shelxl refinement is uniquely defined
by the following loop, which should always be used as a source of
symmetry information in preference to the above space-group names.
They are only intended as comments.
;
_shelx_res_file
;

    xl.res created by SHELXL-2014/7

TITL xl in P-1
CELL  0.71073    8.1990    9.5483   10.2508    88.628    70.942    85.674
ZERR        2    0.0006    0.0007    0.0007     0.004     0.004     0.004
LATT   1
SFAC C H N O PT RE
UNIT 26 34 4 6 2 2
EQIV $1 -x+1, -y+1, -z+1
HTAB
OMIT     2   0   0
OMIT    -2  -3   1
TEMP  -73
L.S. 5
FMAP 2
PLAN -20
ACTA
BOND $H
CONF
WGHT    0.032000
EXTI    0.004554
FVAR       0.40982
PT1   5    0.171295    0.339240    0.300800    11.00000    0.04679    0.03984 =
         0.03753   -0.00688   -0.01617    0.00082
RE1   6    0.511510    0.214539    0.148294    11.00000    0.04947    0.03740 =
         0.03997   -0.00150   -0.01944   -0.00628
O1    4    0.575642    0.378870    0.155628    11.00000    0.06246    0.04873 =
         0.08513   -0.01521   -0.01970   -0.01188
O2    4    0.435847    0.172106    0.019088    11.00000    0.05426    0.07608 =
         0.04875   -0.01891   -0.02269    0.00324
O3    4    0.487035    0.103350    0.284788    11.00000    0.06636    0.05787 =
         0.05737    0.01054   -0.01208    0.00883
N1    3    0.191987    0.293274    0.498822    11.00000    0.05001    0.03831 =
         0.03400   -0.00618   -0.01205   -0.00316
N2    3    0.249825    0.528281    0.353746    11.00000    0.05551    0.02858 =
         0.04917   -0.00284   -0.01479    0.00389
C1    1    0.767035    0.129548    0.041797    11.00000    0.05373    0.06414 =
         0.06128    0.00649   -0.02843    0.00305
AFIX 137
H1A   2    0.840727    0.140056    0.098882    11.00000   -1.50000
H1B   2    0.813490    0.179742   -0.045528    11.00000   -1.50000
H1C   2    0.764518    0.029722    0.023011    11.00000   -1.50000
AFIX   0
C2    1    0.233892    0.401557    0.561354    11.00000    0.04010    0.04580 =
         0.03380   -0.01007   -0.00879    0.00357
C3    1    0.266354    0.534022    0.480971    11.00000    0.04294    0.03573 =
         0.04174   -0.00752   -0.01046    0.00170
C4    1    0.285517    0.644138    0.273596    11.00000    0.07994    0.04631 =
         0.05448    0.00427   -0.02643   -0.00102
AFIX  43
H4    2    0.278314    0.641555    0.183061    11.00000   -1.20000
AFIX   0
C5    1    0.331992    0.766029    0.317851    11.00000    0.06739    0.03612 =
         0.07862    0.00561   -0.01286    0.00140
AFIX  43
H5    2    0.354355    0.845998    0.259459    11.00000   -1.20000
AFIX   0
C6    1    0.345107    0.769253    0.446877    11.00000    0.06543    0.03834 =
         0.06835   -0.01169   -0.01677   -0.00171
AFIX  43
H6    2    0.377144    0.851929    0.479190    11.00000   -1.20000
AFIX   0
C7    1    0.312083    0.653276    0.529849    11.00000    0.05899    0.04997 =
         0.04953   -0.01041   -0.01680   -0.00757
AFIX  43
H7    2    0.320551    0.654880    0.620037    11.00000   -1.20000
AFIX   0
C8    1    0.246803    0.386126    0.693716    11.00000    0.05759    0.06146 =
         0.04298   -0.01049   -0.01723   -0.00547
AFIX  43
H8    2    0.273720    0.462981    0.738304    11.00000   -1.20000
AFIX   0
C9    1    0.219906    0.257861    0.758380    11.00000    0.07289    0.06955 =
         0.03513    0.00618   -0.01704   -0.01354
AFIX  43
H9    2    0.231023    0.244584    0.847315    11.00000   -1.20000
AFIX   0
C10   1    0.177181    0.149970    0.693862    11.00000    0.07607    0.05607 =
         0.04400    0.01115   -0.01368   -0.01874
AFIX  43
H10   2    0.155000    0.061635    0.738282    11.00000   -1.20000
AFIX   0
C11   1    0.166646    0.170962    0.563215    11.00000    0.06732    0.04429 =
         0.04565    0.00515   -0.02026   -0.01629
AFIX  43
H11   2    0.140170    0.094678    0.517623    11.00000   -1.20000
AFIX   0
C12   1    0.140124    0.409230    0.119290    11.00000    0.07309    0.07311 =
         0.05552   -0.01052   -0.03007    0.01692
AFIX 137
H12A  2    0.085457    0.338465    0.083187    11.00000   -1.50000
H12B  2    0.253360    0.425536    0.052007    11.00000   -1.50000
H12C  2    0.066647    0.497162    0.135871    11.00000   -1.50000
AFIX   0
C13   1    0.082206    0.154678    0.270935    11.00000    0.06024    0.05351 =
         0.05525   -0.00511   -0.02624   -0.02022
AFIX 137
H13A  2    0.097134    0.143835    0.172797    11.00000   -1.50000
H13B  2   -0.040799    0.153812    0.325008    11.00000   -1.50000
H13C  2    0.147160    0.077049    0.300545    11.00000   -1.50000
AFIX   0
HKLF 4

REM  xl in P-1
REM R1 =  0.0332 for    2715 Fo > 4sig(Fo)  and  0.0525 for all    3685 data
REM    185 parameters refined using      0 restraints

END

WGHT      0.0319      0.0000

REM Instructions for potential hydrogen bonds
HTAB C8 O1_$1

REM Highest difference peak  1.194,  deepest hole -1.205,  1-sigma level  0.188
Q1    1   0.3488  0.3639  0.2626  11.00000  0.05    1.19
Q2    1   0.1736  0.3900  0.2674  11.00000  0.05    1.06
Q3    1   0.3389  0.2019  0.1755  11.00000  0.05    1.05
Q4    1   0.1175  0.4506  0.3739  11.00000  0.05    0.98
Q5    1   0.2195  0.2361  0.2198  11.00000  0.05    0.92
Q6    1   0.1822  0.3426  0.4252  11.00000  0.05    0.91
Q7    1   0.1833  0.7689  0.6005  11.00000  0.05    0.87
Q8    1   0.2175  0.3227  0.2962  11.00000  0.05    0.87
Q9    1   0.1660  0.5397  0.5609  11.00000  0.05    0.87
Q10   1   0.6946  0.2355  0.1006  11.00000  0.05    0.87
Q11   1  -0.0199  0.3239  0.3686  11.00000  0.05    0.85
Q12   1   0.4693  0.3260  0.2257  11.00000  0.05    0.85
Q13   1   0.5955  0.2011  0.1126  11.00000  0.05    0.84
Q14   1   0.8471  0.0862 -0.0003  11.00000  0.05    0.83
Q15   1   0.1836  0.1151  0.2445  11.00000  0.05    0.83
Q16   1   0.5988  0.3231  0.1345  11.00000  0.05    0.81
Q17   1   0.0754  0.3453  0.3554  11.00000  0.05    0.76
Q18   1   0.1484  0.3027  0.2939  11.00000  0.05    0.73
Q19   1   0.6429  0.1173  0.1148  11.00000  0.05    0.73
Q20   1   0.0735  0.2334  0.3183  11.00000  0.05    0.72
;
_shelx_res_checksum              38325
_shelx_hkl_file
;
   0   0   1   16.41    1.56
   0   0   2 3080.34   60.17
   0   0   3    1.56    0.78
   0   0   4   70.33    3.13
   0   0   5 2816.22   72.67
   0   0   6 1657.38   42.98
   0   0   7 3131.13   71.11
   0   0   8  123.46    7.03
   0   0   9  222.70   10.16
   0   0  10    0.78    4.69
   0   0  11  168.79   10.94
   0   0  12   22.66   18.75
   0   1 -12   78.92   10.16
   0   1 -11   10.94    6.25
   0   1 -10   81.27    7.03
   0   1  -9    0.78    3.13
   0   1  -8 2021.52   54.70
   0   1  -7  300.85   10.94
   0   1  -6 2292.67   57.82
   0   1  -5  290.69   11.72
   0   1  -4   72.67    3.91
   0   1  -3  576.69   15.63
   0   1  -2 2974.85   70.33
   0   1  -1 9907.57  223.49
   0   1   0  820.49   22.66
   0   1   1 3120.19   78.14
   0   1   2  507.14   10.16
   0   1   3  217.23    5.47
   0   1   4  600.91   14.85
   0   1   5 3814.09   79.70
   0   1   6 1605.81   29.69
   0   1   7  685.30   17.97
   0   1   8  545.43   15.63
   0   1   9    1.56    3.13
   0   1  10  169.57    8.60
   0   1  11    7.03    6.25
   0   1  12  361.80   28.13
   0   2 -12    8.60    8.60
   0   2 -11    7.81    7.03
   0   2 -10   24.22    7.81
   0   2  -9 1129.15   34.38
   0   2  -8   -0.78    4.69
   0   2  -7 2110.60   56.26
   0   2  -6   32.04    3.91
   0   2  -5   90.64    5.47
   0   2  -4  332.88   10.16
   0   2  -3 2045.75   51.57
   0   2  -2 4500.96  105.49
   0   2  -1 1533.92   33.60
   0   2   0 5692.62  112.52
   0   2   1   23.44    3.13
   0   2   2  151.59    7.03
   0   2   3    2.34    1.56
   0   2   4 2892.02   75.02
   0   2   5  682.18   16.41
   0   2   6 2382.54   53.14
   0   2   7  502.45   14.07
   0   2   8    2.34    3.13
   0   2   9  203.95   10.16
   0   2  10   29.69    5.47
   0   2  11  625.13   37.51
   0   2  12   10.16   15.63
   0   3 -12    3.91   11.72
   0   3 -11   50.01    9.38
   0   3 -10  489.95   21.88
   0   3  -9  152.38    9.38
   0   3  -8 1139.30   35.95
   0   3  -7    3.13    3.91
   0   3  -6   38.29    3.91
   0   3  -5   46.88    3.91
   0   3  -4 2583.36   63.29
   0   3  -3 1047.88   27.35
   0   3  -2 3624.99   88.30
   0   3  -1 2413.01   51.57
   0   3   0   76.58    3.13
   0   3   1  395.40   15.63
   0   3   2   10.94    3.91
   0   3   3 4103.22  103.93
   0   3   4   66.42    3.13
   0   3   5 4213.40  107.84
   0   3   6  193.79    9.38
   0   3   7   84.39    6.25
   0   3   8  125.81    7.81
   0   3   9  132.84    7.81
   0   3  10  697.80   42.98
   0   3  11   53.92   12.50
   0   3  12  185.20   22.66
   0   4 -12   50.01   10.94
   0   4 -11  147.69   35.16
   0   4 -10  267.24   13.28
   0   4  -9  622.01   21.88
   0   4  -8   86.74    8.60
   0   4  -7   57.04    6.25
   0   4  -6   -0.78    3.13
   0   4  -5 2011.36   50.79
   0   4  -4  150.03    5.47
   0   4  -3 4426.72  104.71
   0   4  -2 1796.48   39.07
   0   4  -1  812.67   17.19
   0   4   0  227.39    7.81
   0   4   1   74.23    5.47
   0   4   2 6111.46  150.81
   0   4   3  447.75   16.41
   0   4   4 4397.81   92.99
   0   4   5    7.81    2.34
   0   4   6  389.15   15.63
   0   4   7  271.93   15.63
   0   4   8  632.95   23.44
   0   4   9  618.88   35.16
   0   4  10  276.62   17.19
   0   4  11  303.97   28.13
   0   4  12   28.13   13.28
   0   5 -11  205.51   19.54
   0   5 -10  189.10   13.28
   0   5  -9  122.68    9.38
   0   5  -8   75.80    7.03
   0   5  -7   35.16    5.47
   0   5  -6  635.29   20.32
   0   5  -5    4.69    3.13
   0   5  -4 3968.81   96.11
   0   5  -3  294.59    9.38
   0   5  -2 1303.40   28.91
   0   5  -1    3.13    3.13
   0   5   0  622.01   17.19
   0   5   1 3056.12   67.98
   0   5   2 1316.69   39.85
   0   5   3 3724.23  102.37
   0   5   4   58.61    7.03
   0   5   5  615.76   17.19
   0   5   6   14.85    3.13
   0   5   7  928.32   31.26
   0   5   8  153.94   12.50
   0   5   9  423.53   29.69
   0   5  10  295.38   25.79
   0   5  11   78.92   24.22
   0   6 -11   14.07   11.72
   0   6 -10  157.85   16.41
   0   6  -9   47.67    7.03
   0   6  -8   -1.56    3.13
   0   6  -7  227.39   11.72
   0   6  -6  146.91    8.60
   0   6  -5 2342.69   50.79
   0   6  -4    7.81    3.13
   0   6  -3 1443.28   34.38
   0   6  -2   64.86    3.91
   0   6  -1  281.31    9.38
   0   6   0  745.47   19.54
   0   6   1 2277.83   53.92
   0   6   2 2287.99   64.08
   0   6   3  661.86   22.66
   0   6   4  744.69   28.13
   0   6   5    3.91    3.91
   0   6   6  528.24   17.19
   0   6   7    5.47    7.03
   0   6   8  883.78   49.23
   0   6   9  200.82   23.44
   0   6  10  238.33   26.57
   0   6  11   10.94   17.97
   0   7 -10   22.66   11.72
   0   7  -9    0.00    4.69
   0   7  -8   33.60    7.81
   0   7  -7  272.71   11.72
   0   7  -6  855.65   25.01
   0   7  -5  240.68    9.38
   0   7  -4  922.07   24.22
   0   7  -3    5.47    3.91
   0   7  -2  157.06    9.38
   0   7  -1   56.26    4.69
   0   7   0 2500.53   58.61
   0   7   1  754.07   21.88
   0   7   2 1582.37   38.29
   0   7   3  418.84   16.41
   0   7   4   -4.69    5.47
   0   7   5  208.64   14.07
   0   7   6   29.69    6.25
   0   7   7 1297.93   46.88
   0   7   8  -18.75   15.63
   0   7   9  351.64   33.60
   0   7  10   -1.56   18.75
   0   8  -9   -3.91    4.69
   0   8  -8  216.45   11.72
   0   8  -7  207.86   11.72
   0   8  -6  349.29   14.07
   0   8  -5  348.51   13.28
   0   8  -4   13.28    4.69
   0   8  -3   39.07    7.81
   0   8  -2   33.60    6.25
   0   8  -1 1587.84   51.57
   0   8   0   50.01    6.25
   0   8   1 1564.40   41.42
   0   8   2   82.83    7.81
   0   8   3   29.69    6.25
   0   8   4   90.64   10.16
   0   8   5  168.00   13.28
   0   8   6  944.73   39.07
   0   8   7   56.26   16.41
   0   8   8  327.41   35.16
   0   8   9  196.92   92.99
   0   9  -8   17.19   12.50
   0   9  -7  281.31   12.50
   0   9  -6  189.10   11.72
   0   9  -5   36.73    6.25
   0   9  -4   -1.56    5.47
   0   9  -3   34.38    7.81
   0   9  -2  800.17   30.48
   0   9  -1    1.56    7.81
   0   9   0 1252.61   35.16
   0   9   1   46.10    7.81
   0   9   2   90.64    9.38
   0   9   3   19.54    7.81
   0   9   4  243.02   14.85
   0   9   5  465.72   37.51
   0   9   6  214.11   30.48
   0   9   7  297.72   33.60
   0   9   8    2.34   20.32
   0   9   9   12.50   18.75
   0  10  -7   32.04   14.85
   0  10  -6   46.10   10.94
   0  10  -5    2.34    7.03
   0  10  -4   46.88    9.38
   0  10  -3  315.69   18.75
   0  10  -2  131.28   11.72
   0  10  -1  832.21   34.38
   0  10   0   14.07    7.03
   0  10   1   75.80   10.16
   0  10   2   10.16    9.38
   0  10   3  327.41   22.66
   0  10   4  217.23   18.75
   0  10   5  412.59   32.82
   0  10   6  205.51   31.26
   0  10   7   41.42   21.88
   0  11  -6   -3.13   10.94
   0  11  -5   41.42   16.41
   0  11  -4   39.07   11.72
   0  11  -3  129.72   16.41
   0  11  -2  360.23   28.91
   0  11  -1   46.10   12.50
   0  11   0   63.29   14.07
   0  11   1    5.47   11.72
   0  11   2  203.95   21.88
   0  11   3   21.10   13.28
   0  11   4  431.34   41.42
   0  11   5   75.80   19.54
   0  11   6   48.45   16.41
   0  12  -4  152.38   21.88
   0  12  -3  110.18   18.75
   0  12  -2  139.87   28.13
   0  12  -1   39.85   19.54
   0  12   0   10.16   12.50
   0  12   1   77.36   16.41
   0  12   2    7.03   13.28
   0  12   3  304.75   33.60
   0  12   4   17.19   18.75
   1 -12  -3   21.10   14.07
   1 -12  -2  200.82   28.13
   1 -12  -1   46.10   22.66
   1 -12   0  226.61   29.69
   1 -12   1    1.56   11.72
   1 -12   2   -7.03   15.63
   1 -12   3    4.69   11.72
   1 -11  -5  -10.16   14.07
   1 -11  -4   36.73   16.41
   1 -11  -3  185.20   28.91
   1 -11  -2  181.29   25.79
   1 -11  -1  401.65   51.57
   1 -11   0   28.13   16.41
   1 -11   1   46.88   10.94
   1 -11   2   -4.69   10.16
   1 -11   3  229.74   17.19
   1 -11   4   21.88   14.07
   1 -11   5  216.45   23.44
   1 -10  -7   85.17   26.57
   1 -10  -6   -7.03   20.32
   1 -10  -5   67.98   15.63
   1 -10  -4   89.86   17.19
   1 -10  -3  429.78   25.79
   1 -10  -2  451.66   26.57
   1 -10  -1  197.70   12.50
   1 -10   0   56.26    7.81
   1 -10   1    7.03    9.38
   1 -10   2  322.72   18.75
   1 -10   3    0.78    7.03
   1 -10   4  527.46   24.22
   1 -10   5   39.07    8.60
   1 -10   6   61.73    9.38
   1  -9  -8   51.57   21.88
   1  -9  -7   22.66   24.22
   1  -9  -6  117.99   33.60
   1  -9  -5   -0.78   15.63
   1  -9  -4  760.32   37.51
   1  -9  -3  223.49   14.07
   1  -9  -2  624.35   23.44
   1  -9  -1    5.47    6.25
   1  -9   0   67.98    7.81
   1  -9   1  250.83   12.50
   1  -9   2   91.43    9.38
   1  -9   3 1065.85   39.85
   1  -9   4    3.91    5.47
   1  -9   5  178.16   10.16
   1  -9   6    2.34    5.47
   1  -9   7   65.64    8.60
   1  -9   8   46.10   19.54
   1  -8  -9   35.16   25.01
   1  -8  -8   15.63   14.85
   1  -8  -7   58.61   15.63
   1  -8  -6   12.50    4.69
   1  -8  -5  914.26   48.45
   1  -8  -4   21.10    8.60
   1  -8  -3  948.64   29.69
   1  -8  -2   46.10    7.03
   1  -8  -1   38.29    7.81
   1  -8   0   96.90    7.81
   1  -8   1  381.33   15.63
   1  -8   2 1835.55   57.82
   1  -8   3  144.56    7.81
   1  -8   4  452.44   14.85
   1  -8   5    7.03    4.69
   1  -8   6   33.60    4.69
   1  -8   7   24.22    5.47
   1  -8   8  355.54   18.75
   1  -8   9  105.49   10.16
   1  -8  10   65.64   22.66
   1  -7 -10    2.34   14.07
   1  -7  -9   33.60   21.88
   1  -7  -8   51.57   17.97
   1  -7  -7   81.27   18.75
   1  -7  -6 1047.10   51.57
   1  -7  -5   69.55    6.25
   1  -7  -4 1492.50   50.01
   1  -7  -3    3.91    6.25
   1  -7  -2   21.10    5.47
   1  -7  -1  182.85    9.38
   1  -7   0 1443.28   35.16
   1  -7   1 1806.63   42.98
   1  -7   2 1072.88   34.38
   1  -7   3 1188.53   28.91
   1  -7   4   40.63    4.69
   1  -7   5   39.85    4.69
   1  -7   6    0.00    4.69
   1  -7   7  897.85   26.57
   1  -7   8   61.73    6.25
   1  -7   9  300.06   17.97
   1  -7  10   39.85   10.16
   1  -6 -10   39.85   11.72
   1  -6  -9    0.00   14.85
   1  -6  -8  105.49   17.97
   1  -6  -7  671.24   36.73
   1  -6  -6  361.80   18.75
   1  -6  -5 1534.70   36.73
   1  -6  -4   21.88    5.47
   1  -6  -3   96.90    9.38
   1  -6  -2   11.72    4.69
   1  -6  -1 1895.72   47.67
   1  -6   0  788.45   21.10
   1  -6   1 2967.04   65.64
   1  -6   2 1376.07   32.04
   1  -6   3  347.73   10.94
   1  -6   4   10.94    3.91
   1  -6   5   75.80    4.69
   1  -6   6 1061.94   28.13
   1  -6   7   -1.56    4.69
   1  -6   8  900.97   31.26
   1  -6   9   41.42    7.03
   1  -6  10    3.13    7.81
   1  -5 -11   75.80   21.88
   1  -5 -10   -0.78   17.19
   1  -5  -9  156.28   21.88
   1  -5  -8  305.53   23.44
   1  -5  -7 1101.02   38.29
   1  -5  -6 1201.04   39.85
   1  -5  -5  368.05   15.63
   1  -5  -4  240.68   10.94
   1  -5  -3   35.95    6.25
   1  -5  -2 2174.68   59.39
   1  -5  -1   78.14    6.25
   1  -5   0 5336.29  112.52
   1  -5   1  328.98    9.38
   1  -5   2  390.71   11.72
   1  -5   3    6.25    2.34
   1  -5   4  291.47    8.60
   1  -5   5 1358.10   37.51
   1  -5   6  521.99   17.19
   1  -5   7 1274.49   37.51
   1  -5   8    0.78    2.34
   1  -5   9   26.57    5.47
   1  -5  10    8.60    6.25
   1  -5  11  120.34   14.85
   1  -4 -11    7.03   17.19
   1  -4 -10  104.71   16.41
   1  -4  -9   17.97   10.16
   1  -4  -8 1051.00   37.51
   1  -4  -7  423.53   17.19
   1  -4  -6  871.28   27.35
   1  -4  -5  128.93    8.60
   1  -4  -4   21.10    1.56
   1  -4  -3 1872.27   51.57
   1  -4  -2  475.88   16.41
   1  -4  -1 5723.87  123.46
   1  -4   0   23.44    3.13
   1  -4   1 1389.36   28.91
   1  -4   2  132.06    5.47
   1  -4   3  206.29    7.03
   1  -4   4 1365.13   35.95
   1  -4   5 1415.14   36.73
   1  -4   6 1545.64   42.20
   1  -4   7   21.88    3.91
   1  -4   8  343.04   13.28
   1  -4   9    5.47    3.91
   1  -4  10  263.34   13.28
   1  -4  11   14.07    7.03
   1  -4  12  180.51   16.41
   1  -3 -12    3.13   17.97
   1  -3 -11   25.79   11.72
   1  -3 -10   -2.34   12.50
   1  -3  -9 1018.19   50.79
   1  -3  -8   65.64   10.16
   1  -3  -7 1464.37   40.63
   1  -3  -6   43.76    5.47
   1  -3  -5    4.69    3.91
   1  -3  -4  996.31   29.69
   1  -3  -3  974.43   21.88
   1  -3  -2 5968.46  150.03
   1  -3  -1  559.49   19.54
   1  -3   0 3247.57   70.33
   1  -3   1   12.50    2.34
   1  -3   2  765.79   18.75
   1  -3   3 1294.81   32.04
   1  -3   4 4033.67   97.68
   1  -3   5 2416.14   58.61
   1  -3   6 1130.71   26.57
   1  -3   7  561.06   18.75
   1  -3   8   18.75    3.91
   1  -3   9  489.17   17.97
   1  -3  10    0.78    6.25
   1  -3  11  568.09   22.66
   1  -3  12   32.04    9.38
   1  -2 -12   -2.34   14.85
   1  -2 -11   10.94    9.38
   1  -2 -10  681.39   37.51
   1  -2  -9   32.82    3.91
   1  -2  -8 1202.60   30.48
   1  -2  -7    9.38    2.34
   1  -2  -6    2.34    1.56
   1  -2  -5  425.87   14.07
   1  -2  -4 1757.40   43.76
   1  -2  -3 3830.50   94.55
   1  -2  -2 1931.66   50.79
   1  -2  -1 3969.59   99.24
   1  -2   0   25.01    2.34
   1  -2   1  180.51    4.69
   1  -2   2   46.10    2.34
   1  -2   3 6213.04  142.22
   1  -2   4 1347.94   33.60
   1  -2   5 3064.71   71.89
   1  -2   6  632.95   17.19
   1  -2   7    3.13    2.34
   1  -2   8  338.35   12.50
   1  -2   9  143.78    7.81
   1  -2  10 1108.05   35.16
   1  -2  11    3.13    7.03
   1  -2  12  207.08   20.32
   1  -2  13   21.88   14.07
   1  -1 -12   11.72   14.07
   1  -1 -11  307.88   24.22
   1  -1 -10  177.38   10.94
   1  -1  -9  840.02   23.44
   1  -1  -8    7.03    3.13
   1  -1  -7   13.28    3.13
   1  -1  -6   28.13    3.13
   1  -1  -5 2260.64   49.23
   1  -1  -4 1707.39   43.76
   1  -1  -3 3538.25   70.33
   1  -1  -2 2559.92   62.51
   1  -1  -1  915.04   19.54
   1  -1   0  302.41    6.25
   1  -1   1  270.37    6.25
   1  -1   2 7755.55  243.02
   1  -1   3  116.43    3.91
   1  -1   4 6815.51  156.28
   1  -1   5  220.36    7.81
   1  -1   6   82.83    4.69
   1  -1   7  128.15    6.25
   1  -1   8  657.95   21.10
   1  -1   9 1175.25   32.82
   1  -1  10  131.28    8.60
   1  -1  11  418.06   15.63
   1  -1  12   -1.56    4.69
   1  -1  13  -10.94   12.50
   1   0 -12   53.92   12.50
   1   0 -11  214.11   14.07
   1   0 -10  374.30   17.97
   1   0  -9   73.45    7.03
   1   0  -8   64.08    6.25
   1   0  -7   10.16    4.69
   1   0  -6 1899.62   50.01
   1   0  -5  383.68   12.50
   1   0  -4 5543.37  131.28
   1   0  -3  929.10   26.57
   1   0  -2 1422.18   36.73
   1   0  -1    0.78    0.78
   1   0   0 1195.57   23.44
   1   0   1 6919.44  132.06
   1   0   2  736.09   14.85
   1   0   3 7585.99  150.81
   1   0   4   35.16    2.34
   1   0   5  303.97    9.38
   1   0   6    6.25    2.34
   1   0   7 1211.98   31.26
   1   0   8  918.95   25.01
   1   0   9  729.06   20.32
   1   0  10  737.66   24.22
   1   0  11   47.67    7.03
   1   0  12    4.69    5.47
   1   0  13   -2.34   11.72
   1   1 -12  166.44   20.32
   1   1 -11  130.50   11.72
   1   1 -10  222.70   14.85
   1   1  -9   72.67    7.03
   1   1  -8   15.63    4.69
   1   1  -7 1086.95   29.69
   1   1  -6   35.95    3.91
   1   1  -5 4870.57  118.78
   1   1  -4   16.41    2.34
   1   1  -3 2535.70   62.51
   1   1  -2   10.94    1.56
   1   1  -1 1428.43   35.95
   1   1   0 4415.00   72.67
   1   1   1 3479.65   85.17
   1   1   2 8517.44  143.00
   1   1   3  371.17    8.60
   1   1   4  991.62   23.44
   1   1   5   16.41    2.34
   1   1   6 1327.63   30.48
   1   1   7  459.47   12.50
   1   1   8 1962.92   44.54
   1   1   9  616.54   18.75
   1   1  10  247.71   11.72
   1   1  11    7.81    7.03
   1   1  12    6.25    7.03
   1   1  13  138.31   15.63
   1   2 -12   10.16    9.38
   1   2 -11  248.49   20.32
   1   2 -10   42.98   10.16
   1   2  -9    6.25    5.47
   1   2  -8  459.47   17.19
   1   2  -7  301.63   12.50
   1   2  -6 3121.76   64.08
   1   2  -5  117.99    7.03
   1   2  -4 2866.23   69.55
   1   2  -3    5.47    1.56
   1   2  -2  271.93   10.16
   1   2  -1  638.42   17.19
   1   2   0 5745.75  136.75
   1   2   1 5321.44  127.37
   1   2   2 1458.90   42.98
   1   2   3 1131.49   25.01
   1   2   4   25.01    3.91
   1   2   5 1268.24   25.01
   1   2   6   32.04    3.13
   1   2   7 3674.22   77.36
   1   2   8  328.19   10.94
   1   2   9  612.63   14.85
   1   2  10    0.78    3.91
   1   2  11   10.16    6.25
   1   2  12  172.69   20.32
   1   2  13   11.72   14.07
   1   3 -12   86.74   14.07
   1   3 -11    2.34   11.72
   1   3 -10    3.91    7.03
   1   3  -9  100.80    9.38
   1   3  -8  739.22   25.79
   1   3  -7  869.72   27.35
   1   3  -6  356.33   12.50
   1   3  -5 1269.02   33.60
   1   3  -4   96.90    7.03
   1   3  -3  410.24   13.28
   1   3  -2   17.19    2.34
   1   3  -1 6153.65  118.78
   1   3   0 1869.93   39.85
   1   3   1 2444.27   64.86
   1   3   2  830.65   26.57
   1   3   3   16.41    3.13
   1   3   4  824.39   21.10
   1   3   5  295.38   10.16
   1   3   6 4397.81   93.77
   1   3   7    1.56    4.69
   1   3   8  916.60   28.13
   1   3   9   10.16    6.25
   1   3  10   33.60    8.60
   1   3  11  145.34   17.19
   1   3  12  192.23   21.10
   1   4 -11   18.75   13.28
   1   4 -10   10.94   10.16
   1   4  -9  330.54   17.19
   1   4  -8  293.81   11.72
   1   4  -7  335.23   14.07
   1   4  -6  954.89   26.57
   1   4  -5   70.33    4.69
   1   4  -4   83.61    5.47
   1   4  -3  300.85   12.50
   1   4  -2 3600.77   70.33
   1   4  -1  421.18   13.28
   1   4   0 4512.68   92.21
   1   4   1  270.37   10.16
   1   4   2  155.50    8.60
   1   4   3 1117.43   34.38
   1   4   4 1075.23   26.57
   1   4   5 4037.58   85.17
   1   4   6  364.92   12.50
   1   4   7 1813.67   51.57
   1   4   8    0.78    6.25
   1   4   9   10.16    7.03
   1   4  10   75.02   14.85
   1   4  11  382.89   21.10
   1   4  12  122.68   17.19
   1   5 -11   -3.13    9.38
   1   5 -10  239.11   18.75
   1   5  -9   42.20    7.03
   1   5  -8  858.78   30.48
   1   5  -7  228.95   10.94
   1   5  -6  154.72    8.60
   1   5  -5   23.44    4.69
   1   5  -4  178.16    7.81
   1   5  -3 3342.90   67.20
   1   5  -2  114.87    6.25
   1   5  -1 5283.15  128.93
   1   5   0   42.20    3.91
   1   5   1   74.23    6.25
   1   5   2  268.03   12.50
   1   5   3 1965.26   56.26
   1   5   4 1850.39   55.48
   1   5   5 1544.86   39.07
   1   5   6 1744.12   40.63
   1   5   7   75.02    6.25
   1   5   8   17.19    8.60
   1   5   9   -2.34    7.81
   1   5  10  511.05   34.38
   1   5  11   35.16   17.19
   1   5  12  253.18   30.48
   1   6 -10    5.47   12.50
   1   6  -9  451.66   21.88
   1   6  -8   46.10    7.81
   1   6  -7  192.23   10.94
   1   6  -6    3.91    3.91
   1   6  -5  156.28    8.60
   1   6  -4 1218.23   29.69
   1   6  -3  959.58   24.22
   1   6  -2 3541.38   94.55
   1   6  -1   22.66    5.47
   1   6   0  432.12   17.19
   1   6   1   35.16    4.69
   1   6   2 1347.16   41.42
   1   6   3  773.60   26.57
   1   6   4 2385.66   66.42
   1   6   5 1360.45   42.98
   1   6   6  189.88    9.38
   1   6   7   22.66    5.47
   1   6   8    4.69    6.25
   1   6   9  541.52   39.07
   1   6  10   -1.56   10.94
   1   6  11  361.80   32.04
   1   7 -10  228.17   18.75
   1   7  -9  -10.16   11.72
   1   7  -8  193.79   13.28
   1   7  -7    0.78    6.25
   1   7  -6  118.78    7.03
   1   7  -5  136.75    7.03
   1   7  -4  943.17   24.22
   1   7  -3 1490.94   35.16
   1   7  -2  339.13   13.28
   1   7  -1  213.33   13.28
   1   7   0   64.86    5.47
   1   7   1  875.97   25.79
   1   7   2   14.07    8.60
   1   7   3 2706.83   73.45
   1   7   4  333.66   17.97
   1   7   5  539.18   23.44
   1   7   6   28.13    7.03
   1   7   7   37.51    7.03
   1   7   8  508.70   24.22
   1   7   9   56.26   14.07
   1   7  10  455.57   35.95
   1   7  11    7.81   20.32
   1   8  -9   75.02   12.50
   1   8  -8    3.91   10.16
   1   8  -7   18.75    5.47
   1   8  -6    3.91    4.69
   1   8  -5  574.34   19.54
   1   8  -4  404.77   13.28
   1   8  -3  481.35   18.75
   1   8  -2  196.92   11.72
   1   8  -1   50.01    8.60
   1   8   0  124.25    7.03
   1   8   1   -3.13    6.25
   1   8   2 2339.56   56.26
   1   8   3    2.34   11.72
   1   8   4  704.84   28.13
   1   8   5   21.10    9.38
   1   8   6   32.04    8.60
   1   8   7  253.96   17.97
   1   8   8  260.21   34.38
   1   8   9  434.47   39.85
   1   8  10   47.67   21.88
   1   9  -8   10.94   13.28
   1   9  -7  143.78   36.73
   1   9  -6  373.52   19.54
   1   9  -5   29.69    5.47
   1   9  -4  461.04   21.10
   1   9  -3   72.67    8.60
   1   9  -2   -0.78    7.03
   1   9  -1  143.00   10.94
   1   9   0  148.47    8.60
   1   9   1 1563.61   42.20
   1   9   2  176.60   10.94
   1   9   3  700.15   25.01
   1   9   4   23.44   20.32
   1   9   5    5.47   10.94
   1   9   6  121.12   14.07
   1   9   7  425.09   38.29
   1   9   8  241.46   30.48
   1   9   9  101.58   25.01
   1  10  -7   93.77   17.97
   1  10  -6   -5.47   10.16
   1  10  -5  317.25   26.57
   1  10  -4   16.41    8.60
   1  10  -3    8.60    7.81
   1  10  -2   28.91    8.60
   1  10  -1  277.40   17.97
   1  10   0  475.10   25.01
   1  10   1  200.04   11.72
   1  10   2  649.36   28.13
   1  10   3   14.07   10.94
   1  10   4    9.38    8.60
   1  10   5   54.70   27.35
   1  10   6  440.72   42.98
   1  10   7  997.09  176.60
   1  10   8  153.16   25.79
   1  11  -6  137.53   27.35
   1  11  -5   -6.25   11.72
   1  11  -4   25.79   13.28
   1  11  -3    0.00   13.28
   1  11  -2  189.10   22.66
   1  11  -1  137.53   21.88
   1  11   0  341.48   30.48
   1  11   1  273.50   27.35
   1  11   2   36.73   17.19
   1  11   3   -7.81   11.72
   1  11   4   17.97   14.07
   1  11   5  251.62   32.04
   1  11   6   12.50   14.85
   1  12  -3   58.61   14.85
   1  12  -2    9.38   21.88
   1  12  -1  232.08   25.01
   1  12   0   77.36   17.97
   1  12   1   58.61   25.01
   1  12   2   21.88   14.07
   1  12   3   18.75   14.85
   1  12   4  107.84   25.01
   2 -12  -1   49.23   22.66
   2 -12   0  100.02   19.54
   2 -12   1  203.95   27.35
   2 -12   2   47.67   15.63
   2 -11  -4   32.82   22.66
   2 -11  -3    4.69   13.28
   2 -11  -2    7.03   19.54
   2 -11  -1  185.98   27.35
   2 -11   0  218.02   23.44
   2 -11   1  187.54   17.97
   2 -11   2  164.88   25.01
   2 -11   3   -2.34   10.16
   2 -11   4    1.56   14.85
   2 -10  -6  132.84   23.44
   2 -10  -5   17.97   14.85
   2 -10  -4   -9.38   17.97
   2 -10  -3    7.03   18.75
   2 -10  -2  366.48   23.44
   2 -10  -1   58.61    9.38
   2 -10   0  638.42   26.57
   2 -10   1  124.25   10.16
   2 -10   2   57.04    8.60
   2 -10   3   18.75    8.60
   2 -10   4   34.38    8.60
   2 -10   5  434.47   31.26
   2 -10   6  -10.94   16.41
   2 -10   7  252.40   43.76
   2  -9  -7  118.78   26.57
   2  -9  -6   90.64   17.97
   2  -9  -5    7.03   11.72
   2  -9  -4    4.69   16.41
   2  -9  -3  328.98   17.97
   2  -9  -2    2.34    8.60
   2  -9  -1  845.49   28.91
   2  -9   0  122.68   13.28
   2  -9   1  163.32   11.72
   2  -9   2   12.50    9.38
   2  -9   3  140.65   13.28
   2  -9   4  332.88   14.85
   2  -9   5   82.83    9.38
   2  -9   6  439.16   22.66
   2  -9   7   10.94    9.38
   2  -9   8   39.85   17.97
   2  -9   9   -4.69   14.07
   2  -8  -8   32.82   15.63
   2  -8  -7  160.19   22.66
   2  -8  -6   -3.13   17.97
   2  -8  -5    9.38    2.34
   2  -8  -4  389.93   19.54
   2  -8  -3   28.13    7.03
   2  -8  -2 1491.72   42.98
   2  -8  -1   -4.69    6.25
   2  -8   0  532.93   18.75
   2  -8   1   -0.78    4.69
   2  -8   2  221.92   13.28
   2  -8   3  447.75   15.63
   2  -8   4  512.61   17.97
   2  -8   5  759.54   25.01
   2  -8   6   71.11    6.25
   2  -8   7   57.82    6.25
   2  -8   8   -3.13    3.91
   2  -8   9  171.91   25.79
   2  -8  10    1.56   21.10
   2  -7  -9    7.03   10.16
   2  -7  -8  261.77   31.26
   2  -7  -7    7.81   15.63
   2  -7  -6   12.50   11.72
   2  -7  -5  246.93   16.41
   2  -7  -4  378.99   23.44
   2  -7  -3 1498.76   42.20
   2  -7  -2  217.23   10.94
   2  -7  -1  878.31   28.13
   2  -7   0    0.78    4.69
   2  -7   1  438.37   14.85
   2  -7   2  178.16    8.60
   2  -7   3 1893.37   50.01
   2  -7   4  783.76   24.22
   2  -7   5  543.08   16.41
   2  -7   6  140.65    7.03
   2  -7   7   -0.78    3.13
   2  -7   8  213.33   10.94
   2  -7   9   16.41    6.25
   2  -7  10  340.70   35.95
   2  -7  11   33.60   16.41
   2  -6 -10   13.28   17.19
   2  -6  -9  242.24   25.01
   2  -6  -8   11.72   15.63
   2  -6  -7   10.16    9.38
   2  -6  -6  120.34   10.16
   2  -6  -5  776.73   28.91
   2  -6  -4  968.96   27.35
   2  -6  -3  896.28   29.69
   2  -6  -2 1356.54   37.51
   2  -6  -1   96.90    7.03
   2  -6   0  127.37    7.03
   2  -6   1    1.56    3.13
   2  -6   2 3174.11   61.73
   2  -6   3  414.93   14.07
   2  -6   4 1644.88   39.07
   2  -6   5  160.97    7.81
   2  -6   6   -0.78    2.34
   2  -6   7  115.65    6.25
   2  -6   8  152.38    8.60
   2  -6   9  643.11   25.79
   2  -6  10    7.03    7.03
   2  -5 -10  222.70   25.01
   2  -5  -9    3.91   10.94
   2  -5  -8   34.38   15.63
   2  -5  -7  177.38   64.08
   2  -5  -6  930.67   31.26
   2  -5  -5  421.18   17.97
   2  -5  -4 1551.89   46.88
   2  -5  -3 1023.66   32.04
   2  -5  -2  641.54   17.97
   2  -5  -1   21.10    3.91
   2  -5   0  105.49    8.60
   2  -5   1 3792.21   72.67
   2  -5   2    5.47    2.34
   2  -5   3 2924.06   64.86
   2  -5   4  167.22    6.25
   2  -5   5  112.52    5.47
   2  -5   6   21.10    2.34
   2  -5   7  336.79   12.50
   2  -5   8  891.60   27.35
   2  -5   9  135.18    7.81
   2  -5  10  321.94   15.63
   2  -5  11   -4.69    7.03
   2  -5  12   -2.34   35.95
   2  -4 -11   71.11   17.19
   2  -4 -10   78.92   15.63
   2  -4  -9    9.38   10.16
   2  -4  -8   10.16   13.28
   2  -4  -7  828.30   31.26
   2  -4  -6   63.29    6.25
   2  -4  -5 2073.88   54.70
   2  -4  -4  246.93   10.94
   2  -4  -3  783.76   17.97
   2  -4  -2   18.75    3.91
   2  -4  -1  511.83   14.85
   2  -4   0 2934.22   63.29
   2  -4   1  389.93   10.94
   2  -4   2 3221.78   60.95
   2  -4   3    3.91    2.34
   2  -4   4  276.62    8.60
   2  -4   5   33.60    2.34
   2  -4   6 1042.41   28.91
   2  -4   7  593.09   19.54
   2  -4   8  875.19   26.57
   2  -4   9  586.06   20.32
   2  -4  10   25.01    5.47
   2  -4  11   -1.56    3.13
   2  -4  12    3.13   19.54
   2  -3 -11   84.39   20.32
   2  -3 -10    0.00    9.38
   2  -3  -9    3.13   12.50
   2  -3  -8  616.54   63.29
   2  -3  -7   22.66    6.25
   2  -3  -6 2035.59   55.48
   2  -3  -5   13.28    3.91
   2  -3  -4  489.95   17.97
   2  -3  -3    2.34    3.13
   2  -3  -2  857.99   20.32
   2  -3  -1 2455.99   53.14
   2  -3   0 2670.10   60.17
   2  -3   1 4197.77   78.14
   2  -3   2  277.40    7.81
   2  -3   3  182.85    5.47
   2  -3   4   71.89    3.13
   2  -3   5 1625.35   39.85
   2  -3   6  255.52    8.60
   2  -3   7 2667.75   68.76
   2  -3   8  546.99   17.97
   2  -3   9  200.82   10.16
   2  -3  10    2.34    3.13
   2  -3  11   20.32    5.47
   2  -3  12  207.08   15.63
   2  -3  13   11.72   25.79
   2  -2 -11   -7.03    9.38
   2  -2 -10    0.00    9.38
   2  -2  -9  211.76   18.75
   2  -2  -8  264.12   13.28
   2  -2  -7 1472.97   41.42
   2  -2  -6   42.20    5.47
   2  -2  -5 1010.37   30.48
   2  -2  -4    4.69    3.13
   2  -2  -3  826.74   18.75
   2  -2  -2  429.78   13.28
   2  -2  -1 5051.07  100.80
   2  -2   0 4515.80   81.27
   2  -2   1  885.34   17.97
   2  -2   2  396.18    9.38
   2  -2   3   17.97    0.78
   2  -2   4 2470.84   60.17
   2  -2   5    3.91    1.56
   2  -2   6 5137.81  121.12
   2  -2   7  269.59    9.38
   2  -2   8  660.30   18.75
   2  -2   9   17.19    3.91
   2  -2  10   21.88    4.69
   2  -2  11  264.90   13.28
   2  -2  12   78.14    9.38
   2  -2  13  201.61   16.41
   2  -1 -11   25.01   31.26
   2  -1 -10   55.48   10.94
   2  -1  -9  325.07   13.28
   2  -1  -8  857.99   24.22
   2  -1  -7  454.78   14.85
   2  -1  -6 1230.73   35.16
   2  -1  -5  214.89    9.38
   2  -1  -4  486.82   14.07
   2  -1  -3   35.16    3.13
   2  -1  -2 6177.88  121.12
   2  -1  -1 6921.00  133.62
   2  -1   0 9999.00  135.97
   2  -1   1  780.63   13.28
   2  -1   2  109.40    3.91
   2  -1   3 1039.28   23.44
   2  -1   4  192.23    6.25
   2  -1   5 7453.93  153.16
   2  -1   6   22.66    2.34
   2  -1   7 2073.88   49.23
   2  -1   8   38.29    3.91
   2  -1   9   60.17    4.69
   2  -1  10  245.36   10.94
   2  -1  11  314.91   14.07
   2  -1  12  303.97   15.63
   2  -1  13   25.01    9.38
   2   0 -11   11.72   13.28
   2   0 -10  294.59   16.41
   2   0  -9  245.36   14.85
   2   0  -8  728.28   24.22
   2   0  -7  533.71   18.75
   2   0  -6  104.71    6.25
   2   0  -5   99.24    7.03
   2   0  -4  171.91    7.03
   2   0  -3 4967.46  119.56
   2   0  -2   28.13    2.34
   2   0  -1 8596.36  198.48
   2   0   0   49.23    1.56
   2   0   1  183.63    3.91
   2   0   2   57.82    2.34
   2   0   3 1906.66   36.73
   2   0   4 5897.35  119.56
   2   0   5 1683.95   37.51
   2   0   6 2668.54   58.61
   2   0   7   31.26    2.34
   2   0   8   64.86    4.69
   2   0   9   32.82    4.69
   2   0  10  738.44   23.44
   2   0  11  264.12   12.50
   2   0  12  228.95   13.28
   2   0  13   60.95   10.94
   2   1 -11  138.31   17.19
   2   1 -10   17.97    7.81
   2   1  -9  623.57   32.82
   2   1  -8  230.52   11.72
   2   1  -7  203.95   10.94
   2   1  -6    9.38    3.13
   2   1  -5  147.69    5.47
   2   1  -4 2642.75   67.20
   2   1  -3  328.98   10.16
   2   1  -2 5112.81  118.78
   2   1  -1  272.71    8.60
   2   1   0  539.96   11.72
   2   1   1   10.94    1.56
   2   1   2 2130.14   45.32
   2   1   3 1316.69   26.57
   2   1   4 3246.00   61.73
   2   1   5 2953.75   56.26
   2   1   6   60.95    3.91
   2   1   7    3.91    2.34
   2   1   8    3.13    3.13
   2   1   9 1388.58   28.91
   2   1  10   91.43    7.81
   2   1  11  813.45   27.35
   2   1  12   55.48    7.81
   2   1  13    5.47   11.72
   2   2 -11   -2.34   16.41
   2   2 -10  473.54   29.69
   2   2  -9    9.38    7.03
   2   2  -8  153.94   10.16
   2   2  -7   -1.56    3.13
   2   2  -6  331.32   11.72
   2   2  -5 1329.19   38.29
   2   2  -4 1508.13   39.85
   2   2  -3 3326.49   80.49
   2   2  -2  282.09   10.16
   2   2  -1  201.61    7.03
   2   2   0  133.62    3.91
   2   2   1 3371.81   83.61
   2   2   2  770.48   24.22
   2   2   3 4509.55   92.21
   2   2   4 2274.70   50.79
   2   2   5 1044.75   22.66
   2   2   6    0.00    2.34
   2   2   7   57.04    4.69
   2   2   8 1664.42   39.07
   2   2   9    0.78    3.13
   2   2  10 1280.74   34.38
   2   2  11    4.69    6.25
   2   2  12   56.26    8.60
   2   2  13    7.03   15.63
   2   3 -11  225.83   21.88
   2   3 -10    0.78   10.94
   2   3  -9  197.70   17.97
   2   3  -8   -1.56    6.25
   2   3  -7  157.06    9.38
   2   3  -6  467.29   16.41
   2   3  -5 1820.70   46.10
   2   3  -4 1799.60   45.32
   2   3  -3  525.89   15.63
   2   3  -2  755.63   20.32
   2   3  -1   10.94    1.56
   2   3   0 3030.33   74.23
   2   3   1  528.24   16.41
   2   3   2 8115.79  194.57
   2   3   3  616.54   22.66
   2   3   4 1934.00   43.76
   2   3   5   16.41    3.13
   2   3   6   60.95    4.69
   2   3   7 2345.03   57.82
   2   3   8  228.95   12.50
   2   3   9 1879.31   56.26
   2   3  10   12.50    5.47
   2   3  11  186.76   21.10
   2   3  12   13.28   13.28
   2   3  13   42.20   12.50
   2   4 -11   21.10   10.94
   2   4 -10  114.87   14.85
   2   4  -9  -10.16    9.38
   2   4  -8  103.93    7.81
   2   4  -7   13.28    5.47
   2   4  -6 1405.77   41.42
   2   4  -5  615.76   19.54
   2   4  -4 1236.98   32.82
   2   4  -3  566.53   17.97
   2   4  -2    3.13    2.34
   2   4  -1 1830.86   46.10
   2   4   0  226.61    8.60
   2   4   1 7110.10  179.73
   2   4   2    3.13    3.91
   2   4   3 1794.13   52.35
   2   4   4  200.04    7.81
   2   4   5  243.02    9.38
   2   4   6 1304.18   37.51
   2   4   7 1689.42   43.76
   2   4   8 1200.26   39.07
   2   4   9   89.08   10.94
   2   4  10  257.87   19.54
   2   4  11   -1.56   11.72
   2   4  12  120.34   11.72
   2   5 -10    0.78    9.38
   2   5  -9   10.94    7.81
   2   5  -8    0.78    6.25
   2   5  -7  775.95   28.13
   2   5  -6  107.84    7.81
   2   5  -5 1354.19   36.73
   2   5  -4  185.20    8.60
   2   5  -3   -2.34    2.34
   2   5  -2  254.74    9.38
   2   5  -1  954.11   27.35
   2   5   0 4179.79  101.58
   2   5   1  325.85   12.50
   2   5   2 2745.11   69.55
   2   5   3   47.67    7.03
   2   5   4   68.76    7.03
   2   5   5  154.72    8.60
   2   5   6 2111.39   51.57
   2   5   7  979.11   30.48
   2   5   8  381.33   16.41
   2   5   9  420.40   22.66
   2   5  10    6.25   14.07
   2   5  11   75.02   13.28
   2   5  12   -5.47   10.94
   2   6 -10   -1.56    9.38
   2   6  -9   15.63   11.72
   2   6  -8  426.65   26.57
   2   6  -7   13.28    7.03
   2   6  -6  930.67   31.26
   2   6  -5    9.38    3.91
   2   6  -4   41.42    3.13
   2   6  -3   45.32    3.13
   2   6  -2 1211.98   35.16
   2   6  -1 1817.57   49.23
   2   6   0 1290.12   37.51
   2   6   1 1998.08   46.88
   2   6   2   46.88    7.03
   2   6   3   14.07    5.47
   2   6   4    6.25    6.25
   2   6   5 2183.28   61.73
   2   6   6  383.68   14.85
   2   6   7 1431.55   48.45
   2   6   8  214.11   13.28
   2   6   9   43.76    8.60
   2   6  10   53.92   15.63
   2   6  11   13.28   14.07
   2   6  12  310.22   28.13
   2   7  -9  127.37   21.10
   2   7  -8   71.11   12.50
   2   7  -7  439.16   20.32
   2   7  -6    7.03    5.47
   2   7  -5   51.57    4.69
   2   7  -4   -2.34    4.69
   2   7  -3  925.98   28.91
   2   7  -2  325.85   14.07
   2   7  -1 1575.33   46.88
   2   7   0  884.56   27.35
   2   7   1  282.87   10.16
   2   7   2   -0.78    7.03
   2   7   3   48.45    7.81
   2   7   4 1669.89   50.79
   2   7   5   15.63    8.60
   2   7   6 1756.62   50.79
   2   7   7   36.73    7.81
   2   7   8   84.39    9.38
   2   7   9   29.69   15.63
   2   7  10  128.93   23.44
   2   7  11  293.81   29.69
   2   8  -9   89.08   17.97
   2   8  -8  162.53   19.54
   2   8  -7   18.75   13.28
   2   8  -6   64.08    6.25
   2   8  -5    9.38    3.91
   2   8  -4  268.03   14.07
   2   8  -3   21.88    5.47
   2   8  -2 1151.81   39.85
   2   8  -1  339.13   16.41
   2   8   0  264.90   13.28
   2   8   1   11.72    4.69
   2   8   2  121.12    9.38
   2   8   3  841.59   32.04
   2   8   4   91.43   12.50
   2   8   5 1609.72   52.35
   2   8   6    7.03    9.38
   2   8   7  114.87   11.72
   2   8   8   29.69   17.19
   2   8   9  164.88   21.88
   2   8  10  138.31   25.01
   2   9  -8   49.23   21.88
   2   9  -7   25.79   14.85
   2   9  -6   -2.34   12.50
   2   9  -5  112.52   13.28
   2   9  -4   13.28    7.03
   2   9  -3  879.09   34.38
   2   9  -2   25.01    7.81
   2   9  -1  375.08   19.54
   2   9   0    8.60   10.94
   2   9   1   59.39    6.25
   2   9   2  441.50   17.19
   2   9   3  470.41   19.54
   2   9   4 1196.35   64.08
   2   9   5   49.23   14.07
   2   9   6  129.72   15.63
   2   9   7   11.72   10.16
   2   9   8  137.53   32.04
   2   9   9   53.14   21.88
   2  10  -7   28.13   20.32
   2  10  -6   31.26   16.41
   2  10  -5   58.61   14.85
   2  10  -4  425.09   49.23
   2  10  -3    0.00   12.50
   2  10  -2  279.75   23.44
   2  10  -1   10.16   14.07
   2  10   0   46.88   15.63
   2  10   1   71.89   14.85
   2  10   2  634.51   27.35
   2  10   3  454.78   25.01
   2  10   4  218.02   16.41
   2  10   5  167.22   25.79
   2  10   6   17.97   14.07
   2  10   7   83.61   19.54
   2  10   8   -2.34   21.88
   2  11  -5   78.92   25.79
   2  11  -4   25.01   12.50
   2  11  -3  214.89   23.44
   2  11  -2   -4.69   14.85
   2  11  -1   14.07   14.85
   2  11   0   -3.13   14.07
   2  11   1  441.50   36.73
   2  11   2  103.93   21.10
   2  11   3  272.71   28.91
   2  11   4   96.11   19.54
   2  11   5    2.34   14.07
   2  11   6   39.85   17.97
   2  11   7   13.28   17.97
   2  12  -3   -1.56   10.94
   2  12  -2   20.32   29.69
   2  12  -1   32.04   17.97
   2  12   0  150.03   21.88
   2  12   1    2.34   12.50
   2  12   2  235.99   30.48
   2  12   3   50.79   16.41
   2  12   4   13.28   11.72
   3 -11  -3   17.97   18.75
   3 -11  -2   39.07   22.66
   3 -11  -1   12.50   14.85
   3 -11   0   28.91   17.97
   3 -11   1   -3.91   16.41
   3 -11   2  296.94   26.57
   3 -10  -5   89.08   25.79
   3 -10  -4   82.05   19.54
   3 -10  -3   74.23   21.88
   3 -10  -2    0.00   11.72
   3 -10  -1   68.76   14.07
   3 -10   0    6.25   10.94
   3 -10   1  464.16   22.66
   3 -10   2   34.38    7.81
   3 -10   3  311.79   32.82
   3 -10   4   22.66   12.50
   3 -10   6   32.82   17.19
   3 -10   7   43.76   18.75
   3  -9  -6   18.75   20.32
   3  -9  -5  211.76   25.01
   3  -9  -4   91.43   21.10
   3  -9  -3   40.63    9.38
   3  -9  -2   64.86   12.50
   3  -9  -1   70.33   10.16
   3  -9   0  506.36   21.10
   3  -9   1    3.13    7.03
   3  -9   2  827.52   33.60
   3  -9   3    2.34    5.47
   3  -9   4    4.69    5.47
   3  -9   5   25.79    6.25
   3  -9   6  160.97   21.88
   3  -9   7  248.49   31.26
   3  -9   8   63.29   17.19
   3  -9   9   96.11   26.57
   3  -8  -7  576.69  105.49
   3  -8  -6  446.19   38.29
   3  -8  -5   19.54   17.97
   3  -8  -4   99.24    7.81
   3  -8  -3   14.85    6.25
   3  -8  -2   58.61    9.38
   3  -8  -1  720.47   24.22
   3  -8   0  128.93    9.38
   3  -8   1 1418.27   39.85
   3  -8   2    3.91    6.25
   3  -8   3   57.82    6.25
   3  -8   4   11.72    4.69
   3  -8   5  381.33   14.07
   3  -8   6  301.63   10.94
   3  -8   7  418.84   21.10
   3  -8   8  208.64   32.04
   3  -8   9   16.41   14.07
   3  -8  10   10.16   17.97
   3  -7  -8   42.20   28.91
   3  -7  -7  504.79   27.35
   3  -7  -6   -1.56   15.63
   3  -7  -5  135.18   16.41
   3  -7  -4    6.25    7.81
   3  -7  -3  146.91    7.81
   3  -7  -2  497.76   17.97
   3  -7  -1  780.63   25.79
   3  -7   0 1331.53   38.29
   3  -7   1  150.81   10.16
   3  -7   2  193.01    9.38
   3  -7   3   -2.34    2.34
   3  -7   4  672.80   21.10
   3  -7   5   52.35    4.69
   3  -7   6  944.73   28.13
   3  -7   7  214.89   10.16
   3  -7   8   87.52    9.38
   3  -7   9   10.16   14.07
   3  -7  10   29.69   60.17
   3  -7  11  104.71   26.57
   3  -6  -9   48.45   19.54
   3  -6  -8  471.98   35.95
   3  -6  -7   66.42   17.19
   3  -6  -6  306.32   28.91
   3  -6  -5    3.91    7.03
   3  -6  -4  112.52    9.38
   3  -6  -3  255.52    9.38
   3  -6  -2 1594.87   35.95
   3  -6  -1 1014.28   28.13
   3  -6   0  936.14   27.35
   3  -6   1  150.03    7.81
   3  -6   2   17.19    3.91
   3  -6   3  873.62   27.35
   3  -6   4   18.75    2.34
   3  -6   5 1960.57   47.67
   3  -6   6   35.95    3.13
   3  -6   7  408.68   14.07
   3  -6   8   -1.56    3.13
   3  -6   9   44.54    5.47
   3  -6  10  132.84   24.22
   3  -6  11   66.42   35.95
   3  -5  -9  191.45   25.01
   3  -5  -8  239.11   25.79
   3  -5  -7  201.61   21.88
   3  -5  -6   23.44    7.81
   3  -5  -5  176.60   11.72
   3  -5  -4   41.42    5.47
   3  -5  -3 2474.74   48.45
   3  -5  -2  137.53    6.25
   3  -5  -1 1950.41   42.20
   3  -5   0  217.23    8.60
   3  -5   1   51.57    3.91
   3  -5   2  430.56   11.72
   3  -5   3  177.38    7.03
   3  -5   4 2826.38   59.39
   3  -5   5   57.04    3.13
   3  -5   6  619.66   17.19
   3  -5   7   47.67    3.91
   3  -5   8   40.63    3.91
   3  -5   9  105.49    7.03
   3  -5  10  331.32   17.19
   3  -5  11  232.86   45.32
   3  -5  12   25.79   27.35
   3  -4 -10   51.57   26.57
   3  -4  -9  291.47   28.91
   3  -4  -8  203.17   21.88
   3  -4  -7   67.20   11.72
   3  -4  -6   92.99    9.38
   3  -4  -5    5.47    5.47
   3  -4  -4 1753.50   39.85
   3  -4  -3   -0.78    3.91
   3  -4  -2 2685.73   51.57
   3  -4  -1  132.06    5.47
   3  -4   0   50.79    3.13
   3  -4   1  413.37   10.94
   3  -4   2  828.30   20.32
   3  -4   3 3814.87   78.14
   3  -4   4  591.53   14.07
   3  -4   5 1740.99   35.95
   3  -4   6    0.00    2.34
   3  -4   7    3.13    1.56
   3  -4   8  126.59    6.25
   3  -4   9  981.46   28.13
   3  -4  10  229.74   10.94
   3  -4  11  185.98   11.72
   3  -4  12  106.27   46.88
   3  -3 -10  308.66   26.57
   3  -3  -9   35.95   10.94
   3  -3  -8   74.23   11.72
   3  -3  -7   29.69    7.03
   3  -3  -6   98.46    7.81
   3  -3  -5 1334.66   39.07
   3  -3  -4  148.47    8.60
   3  -3  -3 2607.59   68.76
   3  -3  -2    6.25    3.91
   3  -3  -1  113.31    3.91
   3  -3   0   21.88    3.91
   3  -3   1 2231.72   40.63
   3  -3   2 2278.61   40.63
   3  -3   3 2073.88   89.08
   3  -3   4 1818.36   87.52
   3  -3   6   21.10    1.56
   3  -3   7   22.66    2.34
   3  -3   8 1878.52   47.67
   3  -3   9   60.95    5.47
   3  -3  10  757.19   25.79
   3  -3  11   53.92    6.25
   3  -3  12    8.60   21.88
   3  -3  13    0.78   24.22
   3  -2 -10   -7.81   10.16
   3  -2  -9   82.05   13.28
   3  -2  -8    4.69    7.03
   3  -2  -7  164.10   10.16
   3  -2  -6  724.37   23.44
   3  -2  -5  662.64   21.88
   3  -2  -4 1886.34   51.57
   3  -2  -3  196.92    7.81
   3  -2  -2  406.34   13.28
   3  -2  -1    3.13    1.56
   3  -2   0 3614.83   64.86
   3  -2   1 1401.86   25.01
   3  -2   2 4601.76   75.02
   3  -2   3 1626.91   55.48
   3  -2   4 1063.51   61.73
   3  -2   5    7.03    0.78
   3  -2   6  203.95    7.03
   3  -2   7 2144.21   59.39
   3  -2   8   45.32    3.91
   3  -2   9 1614.41   39.85
   3  -2  10   14.85    4.69
   3  -2  11   35.16    7.81
   3  -2  12   -1.56    5.47
   3  -2  13   56.26   17.97
   3  -1 -11    3.13   11.72
   3  -1 -10   75.80   15.63
   3  -1  -9    7.81   11.72
   3  -1  -8  175.82    8.60
   3  -1  -7  199.26   10.16
   3  -1  -6 1121.33   34.38
   3  -1  -5 1118.21   31.26
   3  -1  -4  854.09   23.44
   3  -1  -3  390.71   10.94
   3  -1  -2   42.98    3.13
   3  -1  -1 3883.64   69.55
   3  -1   0    4.69    1.56
   3  -1   1 7310.93  101.58
   3  -1   2  490.73   10.16
   3  -1   3 2245.79   42.98
   3  -1   4   18.75    1.56
   3  -1   5  439.94   11.72
   3  -1   6 1593.31   38.29
   3  -1   7  750.94   20.32
   3  -1   8 2404.42   57.04
   3  -1   9    3.13    3.91
   3  -1  10  214.89   10.16
   3  -1  11    6.25    4.69
   3  -1  12  121.12   10.94
   3  -1  13   31.26   10.16
   3   0 -11   66.42   12.50
   3   0 -10    3.13    9.38
   3   0  -9   42.98   12.50
   3   0  -8   19.54   10.16
   3   0  -7 1136.18   36.73
   3   0  -6  344.60   14.07
   3   0  -5 1607.37   45.32
   3   0  -4  282.09   10.94
   3   0  -3   -0.78    2.34
   3   0  -2 1322.94   33.60
   3   0  -1  414.15   10.94
   3   0   0 8348.65  127.37
   3   0   1   75.80    2.34
   3   0   2 3278.04   53.14
   3   0   3   13.28    1.56
   3   0   4  178.94    5.47
   3   0   5  600.13   16.41
   3   0   6 1905.87   42.20
   3   0   7 2826.38   64.86
   3   0   8  246.15    9.38
   3   0   9  379.77   14.07
   3   0  10   17.19    5.47
   3   0  11  247.71   12.50
   3   0  12   14.85    7.03
   3   0  13  292.25   18.75
   3   1 -11    7.81   14.85
   3   1 -10   14.85   13.28
   3   1  -9    1.56    7.81
   3   1  -8  789.23   41.42
   3   1  -7   20.32    5.47
   3   1  -6 1328.41   39.07
   3   1  -5  101.58    6.25
   3   1  -4   59.39    5.47
   3   1  -3  221.14    8.60
   3   1  -2 1400.30   35.95
   3   1  -1 5072.95  102.37
   3   1   0  386.80    9.38
   3   1   1 3080.34   54.70
   3   1   2   17.19    2.34
   3   1   3   18.75    1.56
   3   1   4   90.64    3.91
   3   1   5 3803.15   71.11
   3   1   6 2076.22   42.20
   3   1   7 1160.40   27.35
   3   1   8  529.02   15.63
   3   1   9    7.03    4.69
   3   1  10  231.30   10.94
   3   1  11   15.63    6.25
   3   1  12  545.43   21.88
   3   1  13    8.60    7.03
   3   2 -11   -7.81   13.28
   3   2 -10    8.60    9.38
   3   2  -9  402.43   27.35
   3   2  -8   69.55   10.16
   3   2  -7  674.36   24.22
   3   2  -6    3.13    3.91
   3   2  -5   59.39    4.69
   3   2  -4   83.61    5.47
   3   2  -3 1882.43   46.88
   3   2  -2 1966.82   51.57
   3   2  -1 1581.59   36.73
   3   2   0 1959.01   41.42
   3   2   1  166.44    5.47
   3   2   2   59.39    3.91
   3   2   3   32.82    3.13
   3   2   4 4461.10   92.21
   3   2   5  404.77   12.50
   3   2   6 3364.00   64.86
   3   2   7  300.06    9.38
   3   2   8   23.44    3.91
   3   2   9  225.83   10.16
   3   2  10  126.59    7.81
   3   2  11  841.59   24.22
   3   2  12   17.97    7.81
   3   2  13  239.89   27.35
   3   3 -10   99.24   17.19
   3   3  -9  128.15   15.63
   3   3  -8  252.40   19.54
   3   3  -7    3.91    5.47
   3   3  -6   67.20    6.25
   3   3  -5    0.78    4.69
   3   3  -4 1635.50   43.76
   3   3  -3  332.10   12.50
   3   3  -2 2262.98   57.04
   3   3  -1 1383.11   30.48
   3   3   0  432.12   14.85
   3   3   1   74.23    3.91
   3   3   2   12.50    3.13
   3   3   3 4310.29  109.40
   3   3   4   13.28    3.91
   3   3   5 5046.38  107.05
   3   3   6  140.65    7.03
   3   3   7  106.27    6.25
   3   3   8   82.05    7.81
   3   3   9  308.66   16.41
   3   3  10  812.67   30.48
   3   3  11  223.49   14.85
   3   3  12  376.64   20.32
   3   3  13    4.69   16.41
   3   4 -10  134.40   18.75
   3   4  -9  225.05   20.32
   3   4  -8   88.30   13.28
   3   4  -7   71.11    7.81
   3   4  -6   -0.78    3.91
   3   4  -5  859.56   26.57
   3   4  -4   54.70    6.25
   3   4  -3 3205.37   80.49
   3   4  -2  857.21   21.88
   3   4  -1  965.83   27.35
   3   4   0   28.91    3.91
   3   4   1  245.36    7.81
   3   4   2 3253.82   84.39
   3   4   3  922.85   29.69
   3   4   4 4869.79  103.15
   3   4   5    0.78    3.91
   3   4   6  339.13   11.72
   3   4   7   55.48    6.25
   3   4   8  589.97   21.10
   3   4   9  514.17   22.66
   3   4  10  718.90   31.26
   3   4  11  443.06   29.69
   3   4  12   48.45   14.85
   3   4  13    1.56    7.81
   3   5 -10   46.88   13.28
   3   5  -9  100.80   14.85
   3   5  -8   29.69   11.72
   3   5  -7    8.60    7.81
   3   5  -6  242.24   14.07
   3   5  -5   46.10    5.47
   3   5  -4 2614.62   71.11
   3   5  -3   34.38    5.47
   3   5  -2 1125.24   30.48
   3   5  -1   31.26    3.91
   3   5   0  210.20   10.94
   3   5   1  929.10   23.44
   3   5   2 1506.57   45.32
   3   5   3 3553.88   91.43
   3   5   4  125.03    9.38
   3   5   5  686.86   20.32
   3   5   6   13.28    4.69
   3   5   7  565.75   18.75
   3   5   8  111.74    9.38
   3   5   9 1002.56   35.16
   3   5  10  240.68   20.32
   3   5  11  180.51   20.32
   3   5  12   16.41   11.72
   3   6  -9   23.44   10.94
   3   6  -8   14.85   11.72
   3   6  -7   52.35   10.94
   3   6  -6  193.01   11.72
   3   6  -5 1013.50   39.85
   3   6  -4   64.08    6.25
   3   6  -3  876.75   27.35
   3   6  -2    4.69    4.69
   3   6  -1  210.98   10.16
   3   6   0   93.77    8.60
   3   6   1 2271.58   61.73
   3   6   2 1221.35   39.07
   3   6   3 1051.00   32.82
   3   6   4  668.11   23.44
   3   6   5    4.69    7.81
   3   6   6  435.25   16.41
   3   6   7    0.00    7.03
   3   6   8 1513.60   46.10
   3   6   9   46.88   10.16
   3   6  10  362.58   32.04
   3   6  11    6.25   17.19
   3   6  12    7.81   13.28
   3   7  -9   -3.91   10.94
   3   7  -8    4.69   14.07
   3   7  -7  168.00   17.97
   3   7  -6  245.36   18.75
   3   7  -5  146.91    7.81
   3   7  -4  539.18   21.10
   3   7  -3   -3.91    3.91
   3   7  -2   73.45    7.03
   3   7  -1   65.64    7.81
   3   7   0 1005.68   31.26
   3   7   1  327.41   17.19
   3   7   2 1527.67   46.10
   3   7   3  343.82   17.19
   3   7   4   -5.47    7.81
   3   7   5  196.14   15.63
   3   7   6  130.50   10.16
   3   7   7 1236.98   43.76
   3   7   8   14.85   11.72
   3   7   9  570.43   32.82
   3   7  10    7.81   12.50
   3   7  11   30.48   21.88
   3   8  -8   76.58   23.44
   3   8  -7   67.20   16.41
   3   8  -6  247.71   19.54
   3   8  -5  202.39   20.32
   3   8  -4   35.95    7.03
   3   8  -3   26.57    7.81
   3   8  -2   21.88    5.47
   3   8  -1  929.10   32.04
   3   8   0   39.85    7.03
   3   8   1 1904.31   57.82
   3   8   2   28.13    5.47
   3   8   3   21.88    9.38
   3   8   4   68.76   11.72
   3   8   5  194.57   14.85
   3   8   6 1093.98   42.98
   3   8   7  178.94   17.19
   3   8   8  537.61   28.13
   3   8   9    0.00   11.72
   3   8  10   21.10   16.41
   3   9  -7  148.47   23.44
   3   9  -6   49.23   11.72
   3   9  -5   36.73   14.07
   3   9  -4   -0.78    8.60
   3   9  -3   20.32   13.28
   3   9  -2  507.14   30.48
   3   9  -1   70.33   10.16
   3   9   0  935.36   35.95
   3   9   1    2.34    9.38
   3   9   2   74.23    6.25
   3   9   3    4.69    7.03
   3   9   4  353.98   28.13
   3   9   5  460.25   32.82
   3   9   6  368.05   25.79
   3   9   7  336.79   23.44
   3   9   8   28.13   14.07
   3   9   9   10.16   14.85
   3  10  -6   35.16   14.07
   3  10  -5    3.13   10.16
   3  10  -4   32.04   15.63
   3  10  -3  141.44   17.97
   3  10  -2  126.59   15.63
   3  10  -1  529.02   32.82
   3  10   0   14.07   10.94
   3  10   1  112.52   19.54
   3  10   2   14.07   17.19
   3  10   3  297.72   27.35
   3  10   4   78.92   20.32
   3  10   5  449.31   36.73
   3  10   6  252.40   27.35
   3  10   7   82.05   23.44
   3  10   8   14.07   16.41
   3  11  -4   22.66   12.50
   3  11  -3  198.48   35.16
   3  11  -2  182.85   25.01
   3  11  -1   57.82   17.19
   3  11   0   72.67   15.63
   3  11   1   13.28   11.72
   3  11   2   72.67   18.75
   3  11   3    9.38   18.75
   3  11   4  559.49   46.10
   3  11   5   64.86   19.54
   3  11   6   57.82   19.54
   3  12  -2   67.98   21.88
   3  12  -1   60.17   17.19
   3  12   0    3.91   13.28
   3  12   1   29.69   18.75
   3  12   2   13.28   17.97
   3  12   3  246.93   39.07
   3  12   4   68.76   26.57
   4 -11  -1   70.33   24.22
   4 -11   0   40.63   21.10
   4 -10  -4   -7.03   14.85
   4 -10  -3  118.78   26.57
   4 -10  -2   64.08   24.22
   4 -10  -1   57.82   15.63
   4 -10   0   21.88   16.41
   4 -10   1   12.50   14.85
   4 -10   2   85.96   18.75
   4 -10   6   50.79   25.01
   4 -10   7   -2.34   17.19
   4  -9  -5   17.19   24.22
   4  -9  -4  232.86   30.48
   4  -9  -3   35.16   15.63
   4  -9  -2  233.64   15.63
   4  -9  -1   22.66    7.81
   4  -9   0    0.00   10.94
   4  -9   1  145.34   14.85
   4  -9   2   64.08    7.81
   4  -9   3  489.95   22.66
   4  -9   4    0.78    8.60
   4  -9   5  201.61   25.01
   4  -9   6   -0.78   14.07
   4  -9   7   34.38   18.75
   4  -9   8   28.13   19.54
   4  -8  -6   -6.25   15.63
   4  -8  -5  367.27   24.22
   4  -8  -4   12.50   27.35
   4  -8  -3  462.60   17.19
   4  -8  -2    1.56    7.03
   4  -8  -1    0.78    5.47
   4  -8   0  116.43   12.50
   4  -8   1  409.46   17.19
   4  -8   2  768.13   26.57
   4  -8   3  210.98   11.72
   4  -8   4  358.67   13.28
   4  -8   5    7.03    3.13
   4  -8   6   24.22   14.85
   4  -8   7    4.69   12.50
   4  -8   8  343.82   35.95
   4  -8   9   42.98   17.19
   4  -8  10   91.43   29.69
   4  -7  -7   23.44   15.63
   4  -7  -6  349.29   33.60
   4  -7  -5  102.37   24.22
   4  -7  -4  609.50   42.20
   4  -7  -3    7.81    3.91
   4  -7  -2   42.98    6.25
   4  -7  -1   35.16    5.47
   4  -7   0  621.23   20.32
   4  -7   1  504.79   17.97
   4  -7   2  793.92   25.01
   4  -7   3  529.80   17.19
   4  -7   4   63.29    4.69
   4  -7   5    7.03    2.34
   4  -7   6   13.28   15.63
   4  -7   7  641.54   42.98
   4  -7   8   23.44   18.75
   4  -7   9  301.63   34.38
   4  -7  10   35.95   20.32
   4  -7  11    2.34   17.97
   4  -6  -8   -3.91   21.88
   4  -6  -7  260.99   29.69
   4  -6  -6  285.22   25.01
   4  -6  -5  393.05   29.69
   4  -6  -4   85.17   10.94
   4  -6  -3  103.93    9.38
   4  -6  -2   25.79    4.69
   4  -6  -1  730.62   20.32
   4  -6   0  167.22    8.60
   4  -6   1 1558.14   37.51
   4  -6   2  418.84   13.28
   4  -6   3  243.02    9.38
   4  -6   4    6.25    2.34
   4  -6   5  103.93   13.28
   4  -6   6  565.75   39.07
   4  -6   7   15.63   25.79
   4  -6   8  700.15   48.45
   4  -6   9   -1.56   15.63
   4  -6  10   13.28   14.07
   4  -6  11    0.00   14.07
   4  -5  -9   35.16   20.32
   4  -5  -8   75.80   23.44
   4  -5  -7  443.84   34.38
   4  -5  -6  252.40   20.32
   4  -5  -5  205.51   13.28
   4  -5  -4   63.29    7.03
   4  -5  -3   10.16    5.47
   4  -5  -2  800.95   17.97
   4  -5  -1    6.25    3.13
   4  -5   0 2252.82   48.45
   4  -5   1   73.45    4.69
   4  -5   2  514.17   13.28
   4  -5   3   11.72    3.13
   4  -5   4  105.49   15.63
   4  -5   5  780.63   39.85
   4  -5   6  368.83   26.57
   4  -5   7 1326.84   63.29
   4  -5   8   25.79   11.72
   4  -5   9   85.96   17.19
   4  -5  10   32.04   29.69
   4  -5  11  113.31   30.48
   4  -5  12   15.63   26.57
   4  -4  -9    2.34   13.28
   4  -4  -8  388.36   27.35
   4  -4  -7   73.45   14.07
   4  -4  -6  370.39   25.01
   4  -4  -5    8.60    4.69
   4  -4  -4    3.91    6.25
   4  -4  -3  564.96   17.19
   4  -4  -2  239.11   10.16
   4  -4  -1 2811.53   54.70
   4  -4   0   17.19    2.34
   4  -4   1  914.26   20.32
   4  -4   2    3.91    1.56
   4  -4   3  277.40    7.81
   4  -4   4  707.18   28.13
   4  -4   5 1580.80   60.95
   4  -4   6 1485.47   64.08
   4  -4   7  311.79   23.44
   4  -4   8  146.91   25.79
   4  -4   9    2.34    1.56
   4  -4  10  205.51   12.50
   4  -4  11  -10.16   26.57
   4  -4  12  377.42   53.14
   4  -3  -9  695.46  113.31
   4  -3  -8  -11.72   14.85
   4  -3  -7  412.59   26.57
   4  -3  -6    9.38    6.25
   4  -3  -5    7.03    5.47
   4  -3  -4  217.23   10.94
   4  -3  -3  716.56   21.88
   4  -3  -2 2353.63   52.35
   4  -3  -1  435.25   10.94
   4  -3   0 1533.92   31.26
   4  -3   1    0.78    1.56
   4  -3   2  293.03    7.03
   4  -3   3  296.94    7.81
   4  -3   4 3240.53   97.68
   4  -3   5 1354.19   50.79
   4  -3   6 1228.39   55.48
   4  -3   7  332.10   32.82
   4  -3   8    0.00    0.78
   4  -3   9  201.61    8.60
   4  -3  10   10.94    3.13
   4  -3  11  567.31   25.01
   4  -3  12    2.34   17.19
   4  -3  13   73.45   29.69
   4  -2 -10  121.12   17.97
   4  -2  -9   19.54   14.07
   4  -2  -8  400.87   28.91
   4  -2  -7    1.56   10.16
   4  -2  -6   35.95    5.47
   4  -2  -5  139.09    8.60
   4  -2  -4  928.32   29.69
   4  -2  -3 1115.86   27.35
   4  -2  -2  983.80   23.44
   4  -2  -1 3285.07   66.42
   4  -2   0  260.21    7.03
   4  -2   1   52.35    2.34
   4  -2   2    3.13    1.56
   4  -2   3 3670.31   64.86
   4  -2   4  485.26   21.10
   4  -2   5 2925.62   95.33
   4  -2   6  573.56   37.51
   4  -2   7   16.41    1.56
   4  -2   8  110.18    5.47
   4  -2   9  154.72    7.03
   4  -2  10  900.19   28.13
   4  -2  11   25.01    6.25
   4  -2  12  282.09   33.60
   4  -2  13   -8.60   14.07
   4  -1 -10   51.57   14.07
   4  -1  -9  259.43   22.66
   4  -1  -8   26.57   12.50
   4  -1  -7   12.50    3.13
   4  -1  -6   22.66    3.13
   4  -1  -5  930.67   22.66
   4  -1  -4  171.91    7.03
   4  -1  -3 2370.03   52.35
   4  -1  -2 1265.11   26.57
   4  -1  -1 1149.46   20.32
   4  -1   0  364.14    9.38
   4  -1   1  695.46   13.28
   4  -1   2 3248.35   50.01
   4  -1   3   38.29    2.34
   4  -1   4 5480.07   95.33
   4  -1   5   38.29    1.56
   4  -1   6  135.97    4.69
   4  -1   7   23.44    2.34
   4  -1   8  680.61   18.75
   4  -1   9  802.51   22.66
   4  -1  10  341.48   13.28
   4  -1  11  517.30   18.75
   4  -1  12   -0.78    4.69
   4  -1  13  -10.94   19.54
   4   0 -10   92.99   16.41
   4   0  -9   52.35   10.94
   4   0  -8   20.32   13.28
   4   0  -7    6.25    7.03
   4   0  -6  449.31   17.97
   4   0  -5    9.38    3.91
   4   0  -4 2127.01   57.82
   4   0  -3  192.23    8.60
   4   0  -2  617.32   16.41
   4   0  -1   28.13    2.34
   4   0   0  734.53   16.41
   4   0   1 1596.43   27.35
   4   0   2  920.51   17.19
   4   0   3 3937.56   64.08
   4   0   4  140.65    4.69
   4   0   5  388.36   10.16
   4   0   6   11.72    2.34
   4   0   7  884.56   22.66
   4   0   8  507.92   14.85
   4   0   9 1075.23   24.22
   4   0  10  604.82   20.32
   4   0  11  100.02    7.81
   4   0  12    4.69    6.25
   4   0  13    0.00    7.03
   4   1 -10   77.36   14.85
   4   1  -9   10.94   13.28
   4   1  -8    7.03    7.03
   4   1  -7  269.59   20.32
   4   1  -6   64.08    7.03
   4   1  -5 1721.46   48.45
   4   1  -4   12.50    4.69
   4   1  -3 1126.80   29.69
   4   1  -2    0.78    2.34
   4   1  -1  329.76    9.38
   4   1   0 1696.45   38.29
   4   1   1 2084.04   35.95
   4   1   2 3001.42   56.26
   4   1   3  554.81   14.07
   4   1   4 1013.50   21.10
   4   1   5   17.19    2.34
   4   1   6 1202.60   28.13
   4   1   7  132.06    6.25
   4   1   8 2080.91   46.88
   4   1   9  338.35   11.72
   4   1  10  362.58   13.28
   4   1  11   10.16    5.47
   4   1  12    9.38    7.03
   4   1  13  176.60   13.28
   4   2 -10    7.03   13.28
   4   2  -9   -3.13    8.60
   4   2  -8   44.54   11.72
   4   2  -7  121.12   14.07
   4   2  -6  857.21   30.48
   4   2  -5  143.00    8.60
   4   2  -4  821.27   24.22
   4   2  -3   27.35    4.69
   4   2  -2  222.70    7.81
   4   2  -1  351.64   10.94
   4   2   0 2720.11   59.39
   4   2   1 2603.68   57.82
   4   2   2 2023.09   40.63
   4   2   3  875.19   21.88
   4   2   4   28.13    3.91
   4   2   5  979.90   25.01
   4   2   6    2.34    2.34
   4   2   7 3278.82   67.20
   4   2   8  190.67    8.60
   4   2   9  843.15   24.22
   4   2  10   16.41    5.47
   4   2  11   10.16    8.60
   4   2  12  159.41   12.50
   4   2  13   61.73   11.72
   4   3 -10   -4.69   10.16
   4   3  -9   16.41   13.28
   4   3  -8  213.33   32.04
   4   3  -7  347.73   25.01
   4   3  -6  343.04   16.41
   4   3  -5  532.14   19.54
   4   3  -4   -0.78    4.69
   4   3  -3   28.91    3.91
   4   3  -2   19.54    3.13
   4   3  -1 3632.02   76.58
   4   3   0  675.14   20.32
   4   3   1 2977.20   63.29
   4   3   2  203.95    7.81
   4   3   3    9.38    3.91
   4   3   4  381.33   12.50
   4   3   5  440.72   14.07
   4   3   6 4335.30   96.11
   4   3   7  142.22    7.81
   4   3   8  961.92   30.48
   4   3   9    3.91    7.03
   4   3  10   12.50    6.25
   4   3  11  113.31   10.16
   4   3  12  286.00   23.44
   4   3  13  238.33   24.22
   4   4  -9  119.56   15.63
   4   4  -8   41.42   10.94
   4   4  -7  293.81   22.66
   4   4  -6  252.40   14.85
   4   4  -5   52.35    6.25
   4   4  -4    8.60    3.91
   4   4  -3  138.31    6.25
   4   4  -2 2345.81   50.79
   4   4  -1    8.60    3.13
   4   4   0 2982.67   74.23
   4   4   1  130.50    5.47
   4   4   2   87.52    5.47
   4   4   3   11.72    5.47
   4   4   4  993.96   25.01
   4   4   5 2478.65   60.17
   4   4   6  650.14   22.66
   4   4   7 1241.67   34.38
   4   4   8   28.91    7.03
   4   4   9    3.13    6.25
   4   4  10   13.28    7.03
   4   4  11  566.53   36.73
   4   4  12   91.43   14.07
   4   4  13  150.03   19.54
   4   5  -9   10.94   10.16
   4   5  -8  281.31   24.22
   4   5  -7   65.64   10.94
   4   5  -6  132.06   12.50
   4   5  -5    3.13    4.69
   4   5  -4  135.18    9.38
   4   5  -3 1040.85   26.57
   4   5  -2  174.26    9.38
   4   5  -1 2625.56   68.76
   4   5   0   13.28    4.69
   4   5   1  286.00   13.28
   4   5   2    3.13    3.13
   4   5   3 1203.38   35.16
   4   5   4  910.35   30.48
   4   5   5 1565.18   41.42
   4   5   6 1508.91   40.63
   4   5   7  122.68    8.60
   4   5   8   15.63    7.81
   4   5   9    6.25    7.03
   4   5  10  632.17   33.60
   4   5  11   28.13   14.85
   4   5  12  372.74   28.91
   4   6  -8    2.34   14.07
   4   6  -7   89.86   13.28
   4   6  -6   11.72    7.81
   4   6  -5   87.52   10.16
   4   6  -4  311.79   10.94
   4   6  -3  565.75   21.10
   4   6  -2 1239.33   37.51
   4   6  -1   89.08    7.81
   4   6   0  326.63   14.85
   4   6   1    5.47    4.69
   4   6   2  743.13   21.10
   4   6   3  103.15    8.60
   4   6   4 2101.23   63.29
   4   6   5  785.32   25.79
   4   6   6  369.61   16.41
   4   6   7    8.60    7.81
   4   6   8   13.28    7.81
   4   6   9  502.45   26.57
   4   6  10   25.01   10.16
   4   6  11  777.51   48.45
   4   6  12   15.63   14.07
   4   7  -8   60.95   17.97
   4   7  -7    7.03   10.16
   4   7  -6   28.91   10.16
   4   7  -5   15.63    9.38
   4   7  -4  459.47   28.13
   4   7  -3  389.15   18.75
   4   7  -2  160.97   11.72
   4   7  -1  228.95   12.50
   4   7   0    5.47    8.60
   4   7   1  393.83   18.75
   4   7   2   34.38    3.91
   4   7   3 1878.52   58.61
   4   7   4  180.51   12.50
   4   7   5  639.20   28.13
   4   7   6    4.69    7.03
   4   7   7   43.76   11.72
   4   7   8  357.89   25.01
   4   7   9  153.94   16.41
   4   7  10  532.93   35.95
   4   7  11    1.56   18.75
   4   8  -7   12.50   11.72
   4   8  -6   -8.60   14.07
   4   8  -5  307.10   27.35
   4   8  -4  110.18   14.07
   4   8  -3  337.57   23.44
   4   8  -2  139.09   21.10
   4   8  -1    0.78    7.03
   4   8   0  119.56   10.16
   4   8   1  107.84   10.94
   4   8   2 1376.07   50.79
   4   8   3   -2.34    7.81
   4   8   4  742.35   32.82
   4   8   5    6.25    9.38
   4   8   6   48.45   10.94
   4   8   7  138.31   15.63
   4   8   8  311.00   21.88
   4   8   9  389.93   35.95
   4   8  10   42.20   22.66
   4   9  -6  165.66   25.01
   4   9  -5   -6.25   14.85
   4   9  -4  272.71   27.35
   4   9  -3   21.88    9.38
   4   9  -2   -3.13    9.38
   4   9  -1   40.63   15.63
   4   9   0  196.92   17.97
   4   9   1  821.27   48.45
   4   9   2  125.81   16.41
   4   9   3  681.39   28.91
   4   9   4    9.38   10.16
   4   9   5   36.73   17.97
   4   9   6   24.22   10.94
   4   9   7  407.12   27.35
   4   9   8  204.73   19.54
   4   9   9  157.06   24.22
   4  10  -5  150.03   19.54
   4  10  -4   11.72   11.72
   4  10  -3   25.01   16.41
   4  10  -2    2.34   10.94
   4  10  -1  144.56   19.54
   4  10   0  229.74   21.88
   4  10   1  251.62   27.35
   4  10   2  414.93   32.82
   4  10   3    6.25   11.72
   4  10   4    0.00   13.28
   4  10   5    7.03   17.97
   4  10   6  391.49   38.29
   4  10   7   50.01   22.66
   4  10   8  310.22   39.07
   4  11  -3  -13.28   13.28
   4  11  -2  108.62   21.88
   4  11  -1   29.69   41.42
   4  11   0  239.89   24.22
   4  11   1  139.09   23.44
   4  11   2   23.44   13.28
   4  11   3   12.50   13.28
   4  11   4 1763.66  229.74
   4  11   5  178.94   29.69
   4  11   6    2.34   12.50
   4  12   0   42.20   15.63
   4  12   1   47.67   14.85
   4  12   2    6.25   17.19
   4  12   3   -7.81   15.63
   5 -10  -2   92.21   16.41
   5 -10  -1    4.69   14.85
   5 -10   0  153.94   36.73
   5 -10   1   36.73   33.60
   5 -10   2   31.26   29.69
   5 -10   3    7.03   42.20
   5 -10   4    3.13   37.51
   5 -10   5    7.81   40.63
   5 -10   6   14.07   22.66
   5  -9  -4    7.03   16.41
   5  -9  -3   65.64   19.54
   5  -9  -2   -7.03   13.28
   5  -9  -1  293.81   23.44
   5  -9   0   18.75    7.03
   5  -9   1  100.02   14.85
   5  -9   2    2.34    7.81
   5  -9   3   50.79   35.95
   5  -9   4  123.46   37.51
   5  -9   5   69.55   16.41
   5  -9   6  235.99   27.35
   5  -9   7   -6.25   25.01
   5  -9   8   28.13   24.22
   5  -8  -5    7.81   21.88
   5  -8  -4   67.20   26.57
   5  -8  -3   17.97   18.75
   5  -8  -2  397.74   21.88
   5  -8  -1    7.03    6.25
   5  -8   0  208.64   12.50
   5  -8   1   -1.56    3.91
   5  -8   2   68.76    7.81
   5  -8   3  135.18    8.60
   5  -8   4  346.17   20.32
   5  -8   5  210.20   23.44
   5  -8   6   92.21   21.10
   5  -8   7   39.85   21.10
   5  -8   8    0.00   24.22
   5  -8   9   77.36   24.22
   5  -7  -6    2.34   14.07
   5  -7  -5   66.42   18.75
   5  -7  -4  107.84   22.66
   5  -7  -3  403.21   21.10
   5  -7  -2  163.32    9.38
   5  -7  -1  373.52   17.19
   5  -7   0   12.50    5.47
   5  -7   1   94.55    7.81
   5  -7   2   50.79    5.47
   5  -7   3  808.77   25.01
   5  -7   4  178.94    7.03
   5  -7   5  397.74   28.13
   5  -7   6   80.49   13.28
   5  -7   7   -6.25   20.32
   5  -7   8   97.68   20.32
   5  -7   9   20.32   15.63
   5  -7  10  272.71   33.60
   5  -6  -7  -10.16   14.07
   5  -6  -6   26.57   14.85
   5  -6  -5  165.66   24.22
   5  -6  -4  293.03   28.91
   5  -6  -3  527.46   21.88
   5  -6  -2  310.22   13.28
   5  -6  -1   48.45    5.47
   5  -6   0   85.17    7.03
   5  -6   1    8.60    3.91
   5  -6   2  987.71   28.13
   5  -6   3   72.67    4.69
   5  -6   4  968.96   27.35
   5  -6   5   37.51   10.16
   5  -6   6    1.56    9.38
   5  -6   7   31.26   15.63
   5  -6   8  106.27   15.63
   5  -6   9  418.84   35.16
   5  -6  10   20.32   17.19
   5  -6  11  115.65   26.57
   5  -5  -8    7.81   15.63
   5  -5  -7    9.38   17.97
   5  -5  -6  209.42   24.22
   5  -5  -5   47.67   16.41
   5  -5  -4  649.36   25.79
   5  -5  -3  166.44   12.50
   5  -5  -2  116.43    7.81
   5  -5  -1    4.69    3.13
   5  -5   0   46.10    5.47
   5  -5   1 1105.70   25.79
   5  -5   2    2.34    2.34
   5  -5   3 1766.78   38.29
   5  -5   4   10.16    7.81
   5  -5   5   60.95   10.16
   5  -5   6    5.47    9.38
   5  -5   7  187.54   17.19
   5  -5   8  687.65   37.51
   5  -5   9  232.86   23.44
   5  -5  10  270.37   29.69
   5  -5  11   -7.03   15.63
   5  -5  12    4.69   19.54
   5  -4  -8    1.56   21.10
   5  -4  -7  214.11   24.22
   5  -4  -6   -1.56   10.94
   5  -4  -5  577.47   34.38
   5  -4  -4   42.20    7.81
   5  -4  -3  257.09   12.50
   5  -4  -2    0.00    3.91
   5  -4  -1  188.32    8.60
   5  -4   0  992.40   21.88
   5  -4   1  342.26   10.16
   5  -4   2 1701.14   32.82
   5  -4   3   99.24    4.69
   5  -4   4  182.85   14.07
   5  -4   5    3.91    8.60
   5  -4   6  805.64   41.42
   5  -4   7  346.17   25.79
   5  -4   8  947.08   52.35
   5  -4   9  290.69   28.13
   5  -4  10   55.48   19.54
   5  -4  11    1.56   27.35
   5  -4  12   11.72   31.26
   5  -3  -8   82.05   14.85
   5  -3  -7   20.32   10.94
   5  -3  -6  593.09   37.51
   5  -3  -5    1.56    5.47
   5  -3  -4  339.13   14.85
   5  -3  -3    0.00    4.69
   5  -3  -2  235.99   10.16
   5  -3  -1  703.27   19.54
   5  -3   0 1050.22   22.66
   5  -3   1 1748.03   32.82
   5  -3   2  426.65   10.16
   5  -3   3  369.61    9.38
   5  -3   4   -1.56    5.47
   5  -3   5  981.46   36.73
   5  -3   6   35.16    7.81
   5  -3   7 1812.10   67.20
   5  -3   8  225.83   18.75
   5  -3   9  287.56   32.82
   5  -3  10   -3.91   20.32
   5  -3  11   28.13   17.19
   5  -3  12  150.03   25.01
   5  -2  -9   29.69   17.97
   5  -2  -8   95.33   21.10
   5  -2  -7  399.30   26.57
   5  -2  -6  107.84   14.85
   5  -2  -5  346.17   16.41
   5  -2  -4    5.47    2.34
   5  -2  -3  185.98    7.81
   5  -2  -2  243.02    8.60
   5  -2  -1 2691.98   57.82
   5  -2   0  936.92   22.66
   5  -2   1 1352.63   25.79
   5  -2   2  401.65    9.38
   5  -2   3   30.48    2.34
   5  -2   4  969.74   20.32
   5  -2   5   77.36    8.60
   5  -2   6 3068.62  100.02
   5  -2   7   52.35   12.50
   5  -2   8  602.47   38.29
   5  -2   9   14.07    1.56
   5  -2  10   13.28    2.34
   5  -2  11   81.27   18.75
   5  -2  12  128.15   21.88
   5  -2  13  196.92   29.69
   5  -1  -9   80.49   15.63
   5  -1  -8  146.91   19.54
   5  -1  -7  187.54   15.63
   5  -1  -6  300.85   12.50
   5  -1  -5   41.42    4.69
   5  -1  -4   39.85    3.91
   5  -1  -3   -0.78    2.34
   5  -1  -2 2184.84   42.98
   5  -1  -1  299.28    7.81
   5  -1   0 1884.78   38.29
   5  -1   1  441.50   10.94
   5  -1   2   56.26    2.34
   5  -1   3  249.27    7.03
   5  -1   4  711.87   15.63
   5  -1   5 2768.56   52.35
   5  -1   6   15.63    1.56
   5  -1   7 1176.03   28.13
   5  -1   8    8.60    2.34
   5  -1   9    3.91    3.13
   5  -1  10  106.27    5.47
   5  -1  11  408.68   17.97
   5  -1  12  209.42   28.13
   5  -1  13   51.57   26.57
   5   0  -9   50.01   13.28
   5   0  -8  263.34   23.44
   5   0  -7  110.18   12.50
   5   0  -6   77.36   10.94
   5   0  -5    4.69    2.34
   5   0  -4   40.63    3.91
   5   0  -3 1318.25   28.13
   5   0  -2    7.81    3.13
   5   0  -1 2360.66   46.10
   5   0   0   53.14    3.91
   5   0   1  154.72    5.47
   5   0   2   27.35    2.34
   5   0   3 1110.39   21.10
   5   0   4 2098.88   39.85
   5   0   5  703.27   15.63
   5   0   6 1788.66   41.42
   5   0   7   10.16    2.34
   5   0   8    6.25    3.91
   5   0   9   15.63    3.91
   5   0  10  843.15   26.57
   5   0  11  109.40    8.60
   5   0  12  296.16   17.19
   5   0  13   60.17   21.88
   5   1  -9  186.76   22.66
   5   1  -8    5.47   12.50
   5   1  -7   48.45   11.72
   5   1  -6    5.47    8.60
   5   1  -5   64.86    6.25
   5   1  -4  673.58   22.66
   5   1  -3  274.28   10.16
   5   1  -2 1744.90   40.63
   5   1  -1   16.41    3.13
   5   1   0  150.81    5.47
   5   1   1   20.32    2.34
   5   1   2 1388.58   29.69
   5   1   3  912.69   20.32
   5   1   4 2430.20   51.57
   5   1   5 1510.48   32.04
   5   1   6  239.11    8.60
   5   1   7    6.25    3.13
   5   1   8    0.78    3.91
   5   1   9 1080.70   28.91
   5   1  10    6.25    4.69
   5   1  11  757.97   25.01
   5   1  12   57.82    9.38
   5   1  13   32.04   22.66
   5   2  -9    3.13   15.63
   5   2  -8   14.07    9.38
   5   2  -7    2.34    7.81
   5   2  -6   82.83   13.28
   5   2  -5  276.62   14.85
   5   2  -4  673.58   20.32
   5   2  -3  960.36   26.57
   5   2  -2  144.56    7.03
   5   2  -1  159.41    6.25
   5   2   0    9.38    2.34
   5   2   1 1284.65   26.57
   5   2   2  264.12    7.81
   5   2   3 3575.76   68.76
   5   2   4  943.95   23.44
   5   2   5  687.65   20.32
   5   2   6    5.47    3.91
   5   2   7   67.98    5.47
   5   2   8  944.73   25.01
   5   2   9   71.89    6.25
   5   2  10 1229.95   35.16
   5   2  11    2.34    6.25
   5   2  12   72.67   11.72
   5   2  13   -9.38   11.72
   5   3  -9   32.82   14.85
   5   3  -8   -0.78   12.50
   5   3  -7   11.72   11.72
   5   3  -6   83.61   10.94
   5   3  -5  604.03   23.44
   5   3  -4  514.17   17.19
   5   3  -3  357.89   14.07
   5   3  -2  329.76   10.94
   5   3  -1    4.69    3.13
   5   3   0  935.36   22.66
   5   3   1    1.56    2.34
   5   3   2 4291.54   89.08
   5   3   3  249.27    7.81
   5   3   4 1262.77   31.26
   5   3   5   21.88    4.69
   5   3   6   92.99    7.03
   5   3   7  689.21   25.79
   5   3   8  301.63   14.07
   5   3   9 1465.16   45.32
   5   3  10   34.38    9.38
   5   3  11  147.69   13.28
   5   3  12    0.78    7.81
   5   3  13   56.26   11.72
   5   4  -8   16.41   11.72
   5   4  -7    0.78    9.38
   5   4  -6  471.19   28.91
   5   4  -5  113.31   11.72
   5   4  -4  689.21   21.10
   5   4  -3  187.54    8.60
   5   4  -2   -2.34    3.91
   5   4  -1  298.50   10.16
   5   4   0  273.50   10.94
   5   4   1 2750.58   61.73
   5   4   2    6.25    5.47
   5   4   3 1551.11   37.51
   5   4   4  103.93    6.25
   5   4   5  135.18    8.60
   5   4   6  186.76   10.16
   5   4   7  978.33   29.69
   5   4   8  983.02   33.60
   5   4   9  271.15   15.63
   5   4  10  272.71   17.19
   5   4  11   -3.91    7.81
   5   4  12   93.77   14.07
   5   5  -8   14.07   14.85
   5   5  -7  189.10   20.32
   5   5  -6   -9.38   10.94
   5   5  -5  524.33   23.44
   5   5  -4   53.92    9.38
   5   5  -3    5.47    3.91
   5   5  -2   44.54    5.47
   5   5  -1  596.22   21.88
   5   5   0 1387.01   42.20
   5   5   1  480.57   17.97
   5   5   2 1558.93   35.95
   5   5   3   -0.78    3.91
   5   5   4   23.44    5.47
   5   5   5    9.38    5.47
   5   5   6 1333.88   39.07
   5   5   7  461.82   17.97
   5   5   8  762.66   27.35
   5   5   9  253.96   14.85
   5   5  10    5.47   10.94
   5   5  11   71.89   17.19
   5   5  12   26.57   21.10
   5   6  -7  330.54   83.61
   5   6  -6  200.82   19.54
   5   6  -5    0.78    7.81
   5   6  -4   39.85    7.03
   5   6  -3    9.38   32.82
   5   6  -2  558.71   21.88
   5   6  -1  208.64   11.72
   5   6   0  624.35   23.44
   5   6   1  807.98   26.57
   5   6   2   54.70    5.47
   5   6   3    0.78    3.91
   5   6   4   31.26    7.81
   5   6   5 1310.43   42.20
   5   6   6   40.63    8.60
   5   6   7 1152.59   38.29
   5   6   8  107.05   10.94
   5   6   9   43.76   11.72
   5   6  10    5.47   12.50
   5   6  11   61.73   21.10
   5   6  12  321.94   28.13
   5   7  -7  106.27   17.97
   5   7  -6   16.41   15.63
   5   7  -5   39.85   14.85
   5   7  -4    0.78   11.72
   5   7  -3  286.00   21.10
   5   7  -2   87.52   48.45
   5   7  -1  591.53   25.01
   5   7   0  596.22   23.44
   5   7   1  333.66   17.19
   5   7   2   -0.78    7.81
   5   7   3   42.20    5.47
   5   7   4  801.73   30.48
   5   7   5    3.13    7.81
   5   7   6 1323.72   46.10
   5   7   7   21.88    8.60
   5   7   8  121.90   13.28
   5   7   9    0.78   10.16
   5   7  10  114.09   18.75
   5   7  11  243.80   28.91
   5   8  -6   14.85   16.41
   5   8  -5    4.69    9.38
   5   8  -4  102.37   14.07
   5   8  -3   -0.78   13.28
   5   8  -2  625.91   39.85
   5   8  -1   68.76   12.50
   5   8   0  228.17   19.54
   5   8   1   -8.60   11.72
   5   8   2   88.30   14.85
   5   8   3  437.59   19.54
   5   8   4  164.10   21.88
   5   8   5 1145.56   62.51
   5   8   6    3.91   12.50
   5   8   7  141.44   17.19
   5   8   8   -7.03   10.94
   5   8   9  107.84   20.32
   5   8  10   89.08   35.16
   5   9  -5   19.54   14.07
   5   9  -4   25.01   12.50
   5   9  -3  377.42   28.13
   5   9  -2    4.69   19.54
   5   9  -1  183.63   22.66
   5   9   0   12.50   14.85
   5   9   1   41.42   17.97
   5   9   2  127.37   17.19
   5   9   3  418.84   35.95
   5   9   4  544.65   37.51
   5   9   5   43.76   17.19
   5   9   6  175.04   22.66
   5   9   7   -4.69   11.72
   5   9   8  130.50   25.01
   5   9   9    5.47   15.63
   5  10  -4  100.80   21.10
   5  10  -3   20.32   17.19
   5  10  -2  124.25   21.88
   5  10  -1   -3.91   17.19
   5  10   0   14.85   17.97
   5  10   1    1.56   17.19
   5  10   2  328.19   28.91
   5  10   3  216.45   22.66
   5  10   4  152.38   22.66
   5  10   5  145.34   32.82
   5  10   6   20.32   23.44
   5  10   7   44.54   29.69
   5  10   8   10.16   18.75
   5  11  -2   46.10   15.63
   5  11  -1    0.78   14.85
   5  11   0   -3.91   19.54
   5  11   1  175.82   26.57
   5  11   2   33.60   16.41
   5  11   3  294.59   32.82
   5  11   4   12.50   18.75
   5  11   5    1.56   19.54
   6 -10   2    3.13   30.48
   6 -10   3   89.08   44.54
   6  -9  -2   14.85   24.22
   6  -9  -1    6.25   20.32
   6  -9   0  232.86   37.51
   6  -9   1   31.26   17.19
   6  -9   2  271.15   43.76
   6  -9   3    6.25   22.66
   6  -9   4   16.41   28.13
   6  -9   5   24.22   42.98
   6  -9   6   77.36   25.01
   6  -9   7   66.42   25.01
   6  -8  -3    2.34   21.10
   6  -8  -2   38.29   22.66
   6  -8  -1  155.50   21.10
   6  -8   0  114.87   13.28
   6  -8   1  391.49   23.44
   6  -8   2   17.19    8.60
   6  -8   3   46.10   27.35
   6  -8   4    0.78   30.48
   6  -8   5  143.78   22.66
   6  -8   6   30.48   17.97
   6  -8   7  205.51   32.82
   6  -8   8   53.14   26.57
   6  -7  -5    7.81   22.66
   6  -7  -4    8.60   14.85
   6  -7  -3   46.10   18.75
   6  -7  -2  103.93   15.63
   6  -7  -1  260.21   12.50
   6  -7   0  313.35   14.07
   6  -7   1  100.80    7.03
   6  -7   2   54.70    7.03
   6  -7   3   -2.34    3.13
   6  -7   4  193.79   22.66
   6  -7   5   14.07   14.07
   6  -7   6  414.15   32.04
   6  -7   7   40.63   17.19
   6  -7   8   64.86   21.10
   6  -7   9   -7.03   32.82
   6  -7  10   37.51   30.48
   6  -6  -6   39.85   22.66
   6  -6  -5   17.19   18.75
   6  -6  -4   14.07   12.50
   6  -6  -3   33.60   17.19
   6  -6  -2  444.63   20.32
   6  -6  -1  167.22    9.38
   6  -6   0  284.44   14.85
   6  -6   1   47.67    5.47
   6  -6   2   -0.78    3.91
   6  -6   3  227.39    8.60
   6  -6   4   23.44   11.72
   6  -6   5  704.06   39.07
   6  -6   6   20.32   13.28
   6  -6   7  281.31   24.22
   6  -6   8    3.13   11.72
   6  -6   9   11.72   20.32
   6  -6  10   64.86   22.66
   6  -5  -6   62.51   39.85
   6  -5  -5   82.83   25.01
   6  -5  -4    4.69   15.63
   6  -5  -3  510.26   21.10
   6  -5  -2   35.16    7.03
   6  -5  -1  589.97   22.66
   6  -5   0   34.38    3.91
   6  -5   1    8.60    3.91
   6  -5   2  216.45    8.60
   6  -5   3  151.59    7.03
   6  -5   4 1137.74   46.88
   6  -5   5   65.64   13.28
   6  -5   6  557.15   32.04
   6  -5   7   25.79   57.82
   6  -5   8   21.10   13.28
   6  -5   9   96.90   21.88
   6  -5  10  265.68   27.35
   6  -5  11  128.15   28.13
   6  -4  -7   -3.13   18.75
   6  -4  -6   13.28   14.07
   6  -4  -5    8.60   14.85
   6  -4  -4  450.88   28.13
   6  -4  -3   21.88    6.25
   6  -4  -2  840.02   25.01
   6  -4  -1   13.28    5.47
   6  -4   0   10.94    3.13
   6  -4   1  113.31    6.25
   6  -4   2  407.12   11.72
   6  -4   3  993.18   22.66
   6  -4   4  453.22   24.22
   6  -4   5  815.80   34.38
   6  -4   6   10.94    8.60
   6  -4   7   22.66    9.38
   6  -4   8    5.47   10.94
   6  -4   9  507.14   37.51
   6  -4  10   82.83   16.41
   6  -4  11  205.51   25.79
   6  -4  12   35.16   24.22
   6  -3  -7   -7.03   14.85
   6  -3  -6   26.57   15.63
   6  -3  -5  289.91   46.10
   6  -3  -4  169.57   16.41
   6  -3  -3  772.82   25.79
   6  -3  -2   -4.69    4.69
   6  -3  -1  105.49    7.03
   6  -3   0   25.01    4.69
   6  -3   1  650.92   17.97
   6  -3   2  468.85   11.72
   6  -3   3 1170.56   25.79
   6  -3   4  806.42   17.97
   6  -3   5  107.84   10.16
   6  -3   6    1.56   11.72
   6  -3   7   39.07   10.94
   6  -3   8  699.37   39.07
   6  -3   9   15.63   14.07
   6  -3  10  530.58   38.29
   6  -3  11   21.10   28.13
   6  -3  12    7.81   20.32
   6  -2  -8    2.34   12.50
   6  -2  -7   16.41   15.63
   6  -2  -6  134.40   15.63
   6  -2  -5  328.19   22.66
   6  -2  -4  441.50   17.97
   6  -2  -3   93.77    5.47
   6  -2  -2  199.26    8.60
   6  -2  -1   61.73    3.91
   6  -2   0 1138.52   28.13
   6  -2   1   42.98    3.91
   6  -2   2 1875.40   34.38
   6  -2   3  416.49   10.94
   6  -2   4  631.38   14.85
   6  -2   5   16.41    7.81
   6  -2   6  112.52   11.72
   6  -2   7  872.84   36.73
   6  -2   8   91.43   14.07
   6  -2   9  933.01   56.26
   6  -2  10    4.69   13.28
   6  -2  11   75.80   17.97
   6  -2  12   -1.56   16.41
   6  -1  -8   26.57   13.28
   6  -1  -7   30.48   15.63
   6  -1  -6  299.28   22.66
   6  -1  -5  149.25    9.38
   6  -1  -4  259.43   10.94
   6  -1  -3   92.21    6.25
   6  -1  -2    2.34    3.13
   6  -1  -1  705.62   18.75
   6  -1   0   80.49    3.91
   6  -1   1 1771.47   38.29
   6  -1   2   22.66    2.34
   6  -1   3 1156.50   23.44
   6  -1   4   10.16    2.34
   6  -1   5  225.05    7.03
   6  -1   6  530.58   13.28
   6  -1   7  459.47   11.72
   6  -1   8 1078.35   26.57
   6  -1   9   57.82    3.13
   6  -1  10  172.69   10.16
   6  -1  11  -11.72   17.19
   6  -1  12   73.45   19.54
   6  -1  13    7.03   23.44
   6   0  -8   -5.47   18.75
   6   0  -7  242.24   24.22
   6   0  -6   14.85   10.16
   6   0  -5  475.88   23.44
   6   0  -4   53.92    5.47
   6   0  -3    1.56    3.13
   6   0  -2  235.99    8.60
   6   0  -1  106.27    5.47
   6   0   0 1809.76   36.73
   6   0   1   54.70    3.91
   6   0   2 1275.27   27.35
   6   0   3   16.41    2.34
   6   0   4   69.55    3.91
   6   0   5  264.12    7.81
   6   0   6 1130.71   25.01
   6   0   7 1060.38   26.57
   6   0   8  357.89   11.72
   6   0   9  213.33    9.38
   6   0  10    9.38    2.34
   6   0  11  115.65    8.60
   6   0  12    4.69   14.07
   6   0  13  268.81   32.04
   6   1  -8   71.11   18.75
   6   1  -7   -2.34   13.28
   6   1  -6  280.53   25.01
   6   1  -5   23.44   10.16
   6   1  -4   -0.78    3.91
   6   1  -3   49.23    4.69
   6   1  -2  389.15   11.72
   6   1  -1 1077.57   23.44
   6   1   0  361.80   10.16
   6   1   1 1167.44   25.01
   6   1   2   14.07    3.13
   6   1   3   12.50    2.34
   6   1   4   45.32    3.13
   6   1   5 1848.05   42.98
   6   1   6  672.02   17.19
   6   1   7  795.48   21.10
   6   1   8  279.75   11.72
   6   1   9   17.97    4.69
   6   1  10   79.70    6.25
   6   1  11   33.60    7.03
   6   1  12  408.68   40.63
   6   1  13   -8.60   15.63
   6   2  -8   19.54   25.01
   6   2  -7  196.92   25.01
   6   2  -6   24.22   17.19
   6   2  -5   10.16    7.81
   6   2  -4   -2.34    6.25
   6   2  -3  368.05   14.07
   6   2  -2  531.36   16.41
   6   2  -1  835.33   21.10
   6   2   0  812.67   19.54
   6   2   1  218.80    8.60
   6   2   2   39.85    3.91
   6   2   3   71.11    4.69
   6   2   4 2332.53   50.01
   6   2   5  150.03    7.03
   6   2   6 2155.15   53.92
   6   2   7   78.92    7.81
   6   2   8   59.39    6.25
   6   2   9   51.57    7.03
   6   2  10  148.47    9.38
   6   2  11  618.88   32.04
   6   2  12   38.29   10.16
   6   3  -8   45.32   12.50
   6   3  -7    9.38    9.38
   6   3  -6   15.63    8.60
   6   3  -5    7.81   10.94
   6   3  -4  384.46   21.10
   6   3  -3   86.74    7.03
   6   3  -2 1169.00   35.95
   6   3  -1  271.15   10.16
   6   3   0  273.50   10.94
   6   3   1   10.94    3.91
   6   3   2  236.77    8.60
   6   3   3 1301.84   28.13
   6   3   4   34.38    3.91
   6   3   5 2451.30   57.04
   6   3   6    0.78    4.69
   6   3   7   44.54    7.03
   6   3   8   13.28    5.47
   6   3   9  239.11   13.28
   6   3  10  331.32   17.97
   6   3  11  246.15   18.75
   6   3  12  353.20   27.35
   6   4  -7   17.97   11.72
   6   4  -6    5.47   16.41
   6   4  -5  177.38   13.28
   6   4  -4    8.60    6.25
   6   4  -3  840.02   28.91
   6   4  -2   82.83    6.25
   6   4  -1  460.25   16.41
   6   4   0   12.50    4.69
   6   4   1  108.62    7.81
   6   4   2  660.30   18.75
   6   4   3  470.41   13.28
   6   4   4 2128.58   47.67
   6   4   5   16.41    4.69
   6   4   6  323.51   13.28
   6   4   7    2.34    5.47
   6   4   8  179.73   10.94
   6   4   9  147.69   11.72
   6   4  10  637.64   30.48
   6   4  11  263.34   22.66
   6   4  12   25.79   13.28
   6   5  -7   17.97   15.63
   6   5  -6   42.20   13.28
   6   5  -5   21.88   13.28
   6   5  -4  542.30   21.88
   6   5  -3   -1.56    4.69
   6   5  -2  358.67   16.41
   6   5  -1   10.16    5.47
   6   5   0   74.23   10.94
   6   5   1  106.27    8.60
   6   5   2  930.67   25.79
   6   5   3 1060.38   28.91
   6   5   4  205.51    9.38
   6   5   5  313.35   14.07
   6   5   6    3.13    6.25
   6   5   7  254.74   14.07
   6   5   8    0.00    4.69
   6   5   9  840.80   34.38
   6   5  10  141.44   19.54
   6   5  11  266.46   27.35
   6   5  12   -3.91   15.63
   6   6  -6   43.76   15.63
   6   6  -5  165.66   17.97
   6   6  -4   37.51   10.16
   6   6  -3  210.20   19.54
   6   6  -2    9.38    8.60
   6   6  -1   16.41   10.94
   6   6   0    4.69    6.25
   6   6   1 1018.97   35.16
   6   6   2  328.98   15.63
   6   6   3  511.05   16.41
   6   6   4  261.77   12.50
   6   6   5    3.13    7.03
   6   6   6  170.35   12.50
   6   6   7   14.85    9.38
   6   6   8  997.09   57.82
   6   6   9   -5.47   15.63
   6   6  10  342.26   32.04
   6   6  11   -1.56   17.19
   6   7  -6   20.32   14.07
   6   7  -5   86.74   25.79
   6   7  -4  154.72   21.10
   6   7  -3   -3.91    8.60
   6   7  -2   -7.03   11.72
   6   7  -1   11.72    8.60
   6   7   0  613.41   36.73
   6   7   1   28.91   13.28
   6   7   2  615.76   35.95
   6   7   3  144.56    8.60
   6   7   4   11.72    7.03
   6   7   5   76.58   12.50
   6   7   6  143.00   20.32
   6   7   7  739.22   47.67
   6   7   8   38.29   13.28
   6   7   9  364.92   34.38
   6   7  10    7.03   14.07
   6   8  -5   16.41   12.50
   6   8  -4   25.79   11.72
   6   8  -3    2.34   10.94
   6   8  -2    6.25   14.07
   6   8  -1  353.20   32.04
   6   8   0   10.94   10.16
   6   8   1  694.68   43.76
   6   8   2   30.48   11.72
   6   8   3   40.63   14.07
   6   8   4    8.60    6.25
   6   8   5  219.58   25.79
   6   8   6  418.06   35.16
   6   8   7  199.26   31.26
   6   8   8  432.12   35.95
   6   8   9    5.47   13.28
   6   8  10    1.56   18.75
   6   9  -4   32.04   22.66
   6   9  -3    6.25   17.19
   6   9  -2  110.96   17.19
   6   9  -1   35.95   18.75
   6   9   0  402.43   36.73
   6   9   1    5.47   17.19
   6   9   2   53.14   19.54
   6   9   3    0.78   10.94
   6   9   4  141.44   19.54
   6   9   5   79.70   18.75
   6   9   6  338.35   34.38
   6   9   7  280.53   29.69
   6   9   8   18.75   23.44
   6  10  -2   72.67   17.97
   6  10  -1  142.22   25.79
   6  10   0   -0.78   18.75
   6  10   1   21.88   15.63
   6  10   2  222.70   90.64
   6  10   3  101.58   24.22
   6  10   4   27.35   20.32
   6  10   6   55.48   17.19
   6  10   7  104.71   29.69
   6  11   1    7.81   14.85
   6  11   2   34.38   16.41
   6  11   3   -9.38   16.41
   7  -9   2   27.35   28.91
   7  -9   3  114.87   29.69
   7  -8  -1   24.22   18.75
   7  -8   1  142.22   29.69
   7  -8   2  203.17   58.61
   7  -8   3  133.62   39.85
   7  -8   4  125.03  100.02
   7  -8   5   -2.34   25.79
   7  -8   6    2.34   18.75
   7  -8   7    0.00   31.26
   7  -7  -3   12.50   21.10
   7  -7  -2    4.69   17.97
   7  -7  -1   17.97   17.19
   7  -7   0  166.44   15.63
   7  -7   1   84.39   10.16
   7  -7   2  260.99   17.97
   7  -7   3  151.59   37.51
   7  -7   4   42.20   15.63
   7  -7   5    5.47   16.41
   7  -7   6   -5.47   15.63
   7  -7   7  200.04   25.79
   7  -7   8   -3.13   20.32
   7  -7   9  125.03   25.01
   7  -6  -4   14.07   21.10
   7  -6  -3  281.31   71.89
   7  -6  -2   11.72   15.63
   7  -6  -1  121.12   10.94
   7  -6   0   10.94    6.25
   7  -6   1  361.01   14.85
   7  -6   2   95.33    7.03
   7  -6   3  137.53   11.72
   7  -6   4   -4.69   14.85
   7  -6   5   47.67   15.63
   7  -6   6  162.53   19.54
   7  -6   7   17.97   17.97
   7  -6   8  334.45   31.26
   7  -6   9    8.60   19.54
   7  -6  10   20.32   30.48
   7  -5  -5   37.51   16.41
   7  -5  -4    1.56   15.63
   7  -5  -3    6.25   15.63
   7  -5  -2  128.15   12.50
   7  -5  -1   -4.69    7.81
   7  -5   0  586.84   21.88
   7  -5   1    7.03    5.47
   7  -5   2  263.34   10.94
   7  -5   3   -2.34    2.34
   7  -5   4   56.26   12.50
   7  -5   5  216.45   21.10
   7  -5   6  184.41   17.97
   7  -5   7  516.52   32.82
   7  -5   8   69.55   19.54
   7  -5   9   47.67   14.85
   7  -5  10  -10.16   25.01
   7  -4  -5    7.03   17.97
   7  -4  -4   14.85   10.94
   7  -4  -3  136.75   20.32
   7  -4  -2   65.64    8.60
   7  -4  -1  638.42   22.66
   7  -4   0   27.35    7.81
   7  -4   1  350.07   13.28
   7  -4   2    2.34    3.13
   7  -4   3   60.17    4.69
   7  -4   4  121.90    5.47
   7  -4   5  645.45   32.82
   7  -4   6  449.31   28.13
   7  -4   7  214.89   21.10
   7  -4   8   79.70   16.41
   7  -4   9    0.78   18.75
   7  -4  10   60.17   17.97
   7  -4  11    6.25   17.19
   7  -3  -6   -4.69   12.50
   7  -3  -5   -0.78   10.94
   7  -3  -4   46.88   11.72
   7  -3  -3  191.45   20.32
   7  -3  -2  566.53   20.32
   7  -3  -1  263.34   11.72
   7  -3   0  461.82   17.19
   7  -3   1   23.44    4.69
   7  -3   2   27.35    4.69
   7  -3   3   46.10    3.91
   7  -3   4 1007.25   24.22
   7  -3   5  280.53   20.32
   7  -3   6  614.97   31.26
   7  -3   7  117.99   15.63
   7  -3   8   14.07   12.50
   7  -3   9   50.01   16.41
   7  -3  10   32.82   25.01
   7  -3  11  289.91   35.16
   7  -2  -6   18.75   17.19
   7  -2  -5   12.50   14.07
   7  -2  -4  187.54   21.88
   7  -2  -3  168.00   15.63
   7  -2  -2  462.60   15.63
   7  -2  -1  293.81   12.50
   7  -2   0   29.69    4.69
   7  -2   1    3.13    3.91
   7  -2   2   11.72    3.13
   7  -2   3 1099.45   26.57
   7  -2   4    4.69    2.34
   7  -2   5  951.76   21.88
   7  -2   6  111.74   13.28
   7  -2   7   17.19   11.72
   7  -2   8   16.41   11.72
   7  -2   9  107.05   15.63
   7  -2  10  407.12   30.48
   7  -2  11   33.60   21.10
   7  -2  12  170.35   34.38
   7  -1  -6    5.47   15.63
   7  -1  -5  144.56   17.97
   7  -1  -4  176.60   35.95
   7  -1  -3  513.39   19.54
   7  -1  -2  153.16    7.81
   7  -1  -1  148.47    7.81
   7  -1   0    1.56    2.34
   7  -1   1   45.32    4.69
   7  -1   2  736.88   17.97
   7  -1   3  105.49    5.47
   7  -1   4 1414.36   28.91
   7  -1   5   16.41    2.34
   7  -1   6  115.65    4.69
   7  -1   7    6.25    1.56
   7  -1   8  312.57   22.66
   7  -1   9  342.26   25.01
   7  -1  10  325.07   24.22
   7  -1  11  243.02   26.57
   7  -1  12   -0.78   24.22
   7   0  -6   46.88   13.28
   7   0  -5   10.94   14.07
   7   0  -4  447.75   17.97
   7   0  -3   14.07    7.03
   7   0  -2  188.32   10.16
   7   0  -1    0.00    3.13
   7   0   0   96.11    5.47
   7   0   1  438.37   11.72
   7   0   2  436.03   11.72
   7   0   3 1378.42   30.48
   7   0   4  101.58    5.47
   7   0   5  214.11    8.60
   7   0   6    2.34    2.34
   7   0   7  382.11   10.16
   7   0   8  145.34    6.25
   7   0   9  722.03   19.54
   7   0  10  222.70   13.28
   7   0  11   45.32   22.66
   7   0  12    3.91   22.66
   7   1  -7   14.07   12.50
   7   1  -5  337.57   27.35
   7   1  -4   10.94    6.25
   7   1  -3  192.23   10.16
   7   1  -2    3.91    3.91
   7   1  -1   67.98    5.47
   7   1   0  220.36    7.81
   7   1   1  725.94   17.19
   7   1   2  850.18   21.88
   7   1   3  378.99   11.72
   7   1   4  282.09    9.38
   7   1   5    7.03    3.91
   7   1   6  451.66   14.07
   7   1   7   10.16    3.91
   7   1   8 1172.91   34.38
   7   1   9  102.37    7.03
   7   1  10  257.09   14.07
   7   1  11   14.07   13.28
   7   1  12    6.25   14.07
   7   2  -6  129.72   19.54
   7   2  -5   60.95   13.28
   7   2  -4  183.63   10.94
   7   2  -3    3.91    3.91
   7   2  -2   32.04    5.47
   7   2  -1   45.32    5.47
   7   2   0  865.81   20.32
   7   2   1  400.87   12.50
   7   2   2  768.13   20.32
   7   2   3  318.82   10.16
   7   2   4    2.34    3.91
   7   2   5  264.12   10.16
   7   2   6   45.32    5.47
   7   2   7 1172.91   31.26
   7   2   8   18.75    4.69
   7   2   9  551.68   23.44
   7   2  10   11.72    5.47
   7   2  11   28.13    8.60
   7   3  -6   97.68   19.54
   7   3  -5  128.15   14.85
   7   3  -4   -6.25    7.81
   7   3  -3    7.81   12.50
   7   3  -2    0.78    6.25
   7   3  -1  767.35   22.66
   7   3   0   31.26    6.25
   7   3   1 1006.46   28.13
   7   3   2  154.72    7.81
   7   3   3    6.25    3.91
   7   3   4   63.29    6.25
   7   3   5  301.63   11.72
   7   3   6 1084.61   30.48
   7   3   7   67.20    7.81
   7   3   8  736.88   30.48
   7   3   9    3.13    6.25
   7   3  10    7.81    8.60
   7   3  11   10.94   10.16
   7   4  -6   60.95   18.75
   7   4  -5   11.72   10.16
   7   4  -4   -4.69    7.81
   7   4  -3   29.69    7.03
   7   4  -2  433.69   24.22
   7   4  -1   28.91    5.47
   7   4   0  916.60   32.82
   7   4   1   17.19    5.47
   7   4   2   80.49    6.25
   7   4   3    3.91    4.69
   7   4   4  444.63   14.07
   7   4   5  596.22   18.75
   7   4   6  373.52   14.07
   7   4   7  693.90   24.22
   7   4   8   11.72    7.81
   7   4   9   -7.03    7.81
   7   4  10   -9.38    8.60
   7   4  11  369.61   37.51
   7   4  12   55.48   14.85
   7   5  -5   14.07   15.63
   7   5  -4   28.91   17.19
   7   5  -3  137.53   14.85
   7   5  -2  150.03   16.41
   7   5  -1  418.84   53.14
   7   5   0    9.38    7.81
   7   5   1   95.33    8.60
   7   5   2    7.03    6.25
   7   5   3  412.59   14.07
   7   5   4  172.69   10.16
   7   5   5  750.94   23.44
   7   5   6  395.40   17.97
   7   5   7  131.28   14.07
   7   5   8   16.41   11.72
   7   5   9   13.28   10.94
   7   5  10  343.82   29.69
   7   5  11    5.47   10.94
   7   6  -5   25.01   17.97
   7   6  -4  308.66   96.11
   7   6  -3  148.47   20.32
   7   6  -2  193.01   17.97
   7   6  -1   20.32   12.50
   7   6   0  246.93   56.26
   7   6   1   -7.03   11.72
   7   6   2  246.93   21.10
   7   6   3    3.13    5.47
   7   6   4  742.35   26.57
   7   6   5  165.66   10.94
   7   6   6  250.83   20.32
   7   6   7   18.75   12.50
   7   6   8   20.32   14.07
   7   6   9  278.97   27.35
   7   6  10   83.61   71.11
   7   6  11  346.95   31.26
   7   7  -4   99.24   25.79
   7   7  -3  250.83   78.14
   7   7  -2  107.84   16.41
   7   7  -1   71.89   14.07
   7   7   0   -4.69   14.07
   7   7   1  160.97   18.75
   7   7   2   33.60   11.72
   7   7   3  740.00   42.98
   7   7   4   36.73    7.81
   7   7   5  354.76   21.88
   7   7   6    4.69    8.60
   7   7   7    7.03   12.50
   7   7   8  102.37   20.32
   7   7   9  151.59   25.01
   7   7  10  304.75   35.16
   7   8  -3   70.33   24.22
   7   8  -2   23.44   17.19
   7   8  -1  -11.72   10.94
   7   8   0    3.91   16.41
   7   8   1   57.82   18.75
   7   8   2  426.65   32.82
   7   8   3    5.47   12.50
   7   8   4  285.22   31.26
   7   8   5    0.78   11.72
   7   8   6   10.16   13.28
   7   8   7    9.38   13.28
   7   8   8  246.93   30.48
   7   8   9  228.95   32.04
   7   9  -2   -6.25   18.75
   7   9  -1    1.56   14.07
   7   9   0  107.84   20.32
   7   9   1  178.94   26.57
   7   9   2  110.18   34.38
   7   9   3  245.36   28.91
   7   9   4   -4.69   14.07
   7   9   5   15.63   20.32
   7   9   6   16.41   14.85
   7   9   7  282.09   34.38
   7  10   1   92.21   25.01
   7  10   2  105.49   20.32
   7  10   3    8.60   14.85
   7  10   4    6.25   24.22
   7  10   5   25.79   22.66
   8  -7   2   -0.78   14.85
   8  -7   3  153.94   26.57
   8  -7   4   25.01   31.26
   8  -7   5   64.08   18.75
   8  -7   6   36.73   17.97
   8  -7   7    9.38   21.88
   8  -6  -2   35.16   14.85
   8  -6  -1   50.79   32.82
   8  -6   0  -10.16   14.85
   8  -6   1    0.00    7.03
   8  -6   2  215.67   28.13
   8  -6   3   -6.25   16.41
   8  -6   4  277.40   27.35
   8  -6   5   24.22   15.63
   8  -6   6   13.28   17.19
   8  -6   7   85.96   63.29
   8  -6   8   25.79   19.54
   8  -5  -3   21.10   14.85
   8  -5  -2   78.14   24.22
   8  -5  -1    8.60   10.16
   8  -5   0   12.50   11.72
   8  -5   1  235.21   20.32
   8  -5   2   35.16    7.81
   8  -5   3  446.97   19.54
   8  -5   4    2.34   14.07
   8  -5   5   23.44   20.32
   8  -5   6    7.81   17.97
   8  -5   7  132.84   22.66
   8  -5   8   89.86   19.54
   8  -5   9   80.49   20.32
   8  -4  -4   21.10   17.97
   8  -4  -3   23.44   17.19
   8  -4  -2  -10.16    8.60
   8  -4  -1   14.85    7.81
   8  -4   0  159.41   12.50
   8  -4   1  161.75   14.07
   8  -4   2  459.47   17.19
   8  -4   3   37.51    4.69
   8  -4   4   60.17    7.03
   8  -4   5   16.41   13.28
   8  -4   6  182.85   19.54
   8  -4   7   58.61   14.85
   8  -4   8  273.50   25.01
   8  -4   9   85.96   19.54
   8  -4  10   32.82   17.97
   8  -3  -4   71.11   18.75
   8  -3  -3   -7.03    9.38
   8  -3  -2    3.13   12.50
   8  -3  -1  114.87    9.38
   8  -3   0  328.98   14.85
   8  -3   1  254.74   11.72
   8  -3   2  193.79    9.38
   8  -3   3  125.81    6.25
   8  -3   4    0.00    3.13
   8  -3   5  200.82   17.97
   8  -3   6   10.16   14.07
   8  -3   7  544.65   34.38
   8  -3   8   38.29   15.63
   8  -3   9  157.06   19.54
   8  -3  10    7.03   15.63
   8  -3  11   -2.34   20.32
   8  -2  -5   21.88   14.85
   8  -2  -4    7.81   10.94
   8  -2  -3   17.97   14.85
   8  -2  -2   21.88   13.28
   8  -2  -1  448.53   17.97
   8  -2   0   57.82    6.25
   8  -2   1  338.35   13.28
   8  -2   2  113.31    7.03
   8  -2   3    7.81    3.13
   8  -2   4  160.19    7.81
   8  -2   5   42.20    3.91
   8  -2   6  679.83   34.38
   8  -2   7    4.69   11.72
   8  -2   8  292.25   23.44
   8  -2   9    3.91   17.19
   8  -2  10  -10.94   17.19
   8  -2  11   21.10   20.32
   8  -1  -5    4.69   16.41
   8  -1  -4    4.69   10.94
   8  -1  -3   22.66   13.28
   8  -1  -2  309.44   16.41
   8  -1  -1   21.88    7.03
   8  -1   0  433.69   14.85
   8  -1   1   50.79    5.47
   8  -1   2    7.03    4.69
   8  -1   3   52.35    4.69
   8  -1   4  167.22    8.60
   8  -1   5  667.33   18.75
   8  -1   6   53.14    3.91
   8  -1   7  392.27   11.72
   8  -1   8   -3.13    7.81
   8  -1   9    4.69   13.28
   8  -1  10   10.16   11.72
   8  -1  11  143.78   20.32
   8   0  -5   -6.25   14.85
   8   0  -4   10.94   10.94
   8   0  -3  229.74   21.10
   8   0  -2   17.19    7.81
   8   0  -1  444.63   15.63
   8   0   0   -3.91    3.91
   8   0   1   32.82    4.69
   8   0   2    7.81    3.13
   8   0   3  275.84   10.16
   8   0   4  514.17   15.63
   8   0   5  291.47   10.16
   8   0   6  411.81   15.63
   8   0   7   21.88    3.91
   8   0   8   -2.34    2.34
   8   0   9   -0.78   12.50
   8   0  10  349.29   28.91
   8   0  11   26.57   14.07
   8   0  12   63.29   34.38
   8   1  -5    6.25   16.41
   8   1  -4   82.05   12.50
   8   1  -3   83.61   15.63
   8   1  -2  343.04   16.41
   8   1  -1   19.54    6.25
   8   1   0   66.42    5.47
   8   1   1    7.03    4.69
   8   1   2  378.21   12.50
   8   1   3  171.13    7.81
   8   1   4  725.94   21.10
   8   1   5  390.71   13.28
   8   1   6  150.03    9.38
   8   1   7    5.47    3.91
   8   1   8    7.81    3.91
   8   1   9  417.28   25.01
   8   1  10   -7.81   34.38
   8   2  -5   27.35   14.07
   8   2  -4  132.06   16.41
   8   2  -3  213.33   14.07
   8   2  -2   85.17   10.94
   8   2  -1   48.45    7.03
   8   2   0   -4.69    3.91
   8   2   1  293.81   11.72
   8   2   2    5.47    4.69
   8   2   3  832.21   22.66
   8   2   4  166.44    8.60
   8   2   5  322.72   13.28
   8   2   6    2.34    3.91
   8   2   7   70.33    7.03
   8   2   8  206.29   11.72
   8   2   9   64.86   11.72
   8   2  10  560.28   35.16
   8   3  -5  100.80   19.54
   8   3  -4   58.61   13.28
   8   3  -3   94.55   11.72
   8   3  -2   47.67    7.81
   8   3  -1   -0.78    6.25
   8   3   0   95.33   10.16
   8   3   1   18.75    5.47
   8   3   2  795.48   25.01
   8   3   3   26.57    6.25
   8   3   4  412.59   14.85
   8   3   5   18.75    5.47
   8   3   6   27.35    6.25
   8   3   7   52.35    7.03
   8   3   8  168.00   12.50
   8   3   9  559.49   32.82
   8   3  10   39.85   12.50
   8   4  -4  104.71   16.41
   8   4  -3   28.91   10.16
   8   4  -2    5.47    8.60
   8   4  -1   36.73   12.50
   8   4   0  107.05   14.85
   8   4   1  524.33   32.04
   8   4   2   24.22    7.81
   8   4   3  396.96   16.41
   8   4   4    4.69    6.25
   8   4   5   15.63    7.03
   8   4   6   27.35    6.25
   8   4   7  413.37   20.32
   8   4   8  268.03   15.63
   8   4   9  249.27   37.51
   8   4  10  133.62   25.01
   8   4  11   24.22   17.19
   8   5  -4   -8.60   10.94
   8   5  -2    4.69    8.60
   8   5  -1  108.62   17.97
   8   5   0  224.27   21.10
   8   5   1  217.23   21.88
   8   5   2  300.85   25.01
   8   5   3   -0.78    9.38
   8   5   4   -0.78    8.60
   8   5   5   10.16    6.25
   8   5   6  481.35   20.32
   8   5   7   63.29    9.38
   8   5   8  373.52   32.04
   8   5   9  103.15   21.10
   8   5  10    7.81   11.72
   8   6  -3    6.25   10.94
   8   6  -1   49.23   13.28
   8   6   0  269.59   25.01
   8   6   1  123.46   17.97
   8   6   2   29.69   31.26
   8   6   3    8.60   12.50
   8   6   4    4.69    9.38
   8   6   5  420.40   23.44
   8   6   6   -2.34    8.60
   8   6   7  485.26   35.95
   8   6   8   16.41   15.63
   8   6   9    3.13   11.72
   8   6  10    4.69   20.32
   8   7  -2    7.81   16.41
   8   7   0   50.01   17.19
   8   7   1   69.55   18.75
   8   7   2    7.81   15.63
   8   7   3   36.73   16.41
   8   7   4  200.82   23.44
   8   7   5   28.91   14.07
   8   7   6  433.69   32.04
   8   7   7   -0.78   10.16
   8   7   8   41.42   14.07
   8   7   9    5.47   15.63
   8   8  -1   21.10   13.28
   8   8   0   62.51   28.13
   8   8   1    6.25   17.19
   8   8   2   35.16   14.07
   8   8   3   60.17   21.88
   8   8   4   66.42   22.66
   8   8   5  313.35   36.73
   8   8   6   13.28   14.07
   8   8   7   81.27   23.44
   8   9   1   21.10   14.85
   8   9   2    3.13   16.41
   8   9   3  122.68   21.10
   8   9   4  126.59   21.88
   8   9   5   12.50   21.88
   9  -6   3   29.69   18.75
   9  -6   4   27.35   21.10
   9  -6   5  105.49   25.01
   9  -5   3   53.14   25.01
   9  -5   4  172.69   32.82
   9  -5   5    9.38   14.07
   9  -5   6   85.17   21.10
   9  -5   7    1.56   14.07
   9  -4  -1   -2.34   11.72
   9  -4   0    7.81   13.28
   9  -4   1   20.32   13.28
   9  -4   2   77.36   13.28
   9  -4   4  112.52   18.75
   9  -4   5  163.32   21.10
   9  -4   7    0.00   14.85
   9  -4   8   11.72   13.28
   9  -3  -2   25.01   16.41
   9  -3  -1   18.75   20.32
   9  -3   0    2.34   10.16
   9  -3   1  110.18   13.28
   9  -3   2   47.67   11.72
   9  -3   3  353.20   21.10
   9  -3   4  117.21   28.91
   9  -3   5   35.95   13.28
   9  -3   6   -0.78   14.85
   9  -3   7   17.19   16.41
   9  -3   8  126.59   21.88
   9  -3   9   -7.81   20.32
   9  -2  -3   24.22   12.50
   9  -2  -2   14.07   11.72
   9  -2  -1    3.91    9.38
   9  -2   0   50.79    8.60
   9  -2   1    5.47    5.47
   9  -2   2  375.86   17.19
   9  -2   3   40.63   11.72
   9  -2   4  105.49   10.94
   9  -2   5   18.75   30.48
   9  -2   6   25.79   12.50
   9  -2   7  162.53   20.32
   9  -2   8   32.82   16.41
   9  -2   9  303.19   30.48
   9  -2  10   13.28   12.50
   9  -1  -3    6.25   10.94
   9  -1  -2    2.34   14.07
   9  -1  -1   62.51   11.72
   9  -1   0   13.28    8.60
   9  -1   1  363.36   14.85
   9  -1   2    5.47    5.47
   9  -1   3  227.39   10.94
   9  -1   4   10.16    5.47
   9  -1   5   21.88    7.81
   9  -1   6   87.52   24.22
   9  -1   7  167.22   33.60
   9  -1   8  248.49   25.79
   9  -1   9   42.20   21.88
   9  -1  10   24.22   17.19
   9   0  -3   -4.69   14.85
   9   0  -2   31.26   15.63
   9   0  -1   71.11   19.54
   9   0   0  265.68   16.41
   9   0   1   36.73    7.81
   9   0   2  240.68   11.72
   9   0   3   -2.34    5.47
   9   0   4    8.60    5.47
   9   0   5   48.45    6.25
   9   0   6  286.00   18.75
   9   0   7  207.86   14.85
   9   0   8  158.63   32.82
   9   0   9   54.70   25.79
   9   0  10    5.47   19.54
   9   1  -3    9.38   14.85
   9   1  -2   53.92   15.63
   9   1  -1  124.25   13.28
   9   1   0  114.09   10.94
   9   1   1  208.64   10.94
   9   1   2    0.78    6.25
   9   1   3    2.34    4.69
   9   1   4    8.60    6.25
   9   1   5  394.62   15.63
   9   1   6   36.73    5.47
   9   1   7  257.87   19.54
   9   1   8   78.92   26.57
   9   1   9   13.28   24.22
   9   1  10    7.81   24.22
   9   2  -3   39.07   12.50
   9   2  -2   41.42   19.54
   9   2  -1  235.21   17.97
   9   2   0  122.68   14.07
   9   2   1   24.22   12.50
   9   2   2    3.91    7.81
   9   2   3   10.16    6.25
   9   2   4  375.08   15.63
   9   2   5   -1.56    7.81
   9   2   6  392.27   16.41
   9   2   7   54.70   13.28
   9   2   8   43.76   10.94
   9   2   9   -5.47   35.95
   9   2  10   82.83   33.60
   9   3  -3    3.13   10.94
   9   3  -2  192.23   23.44
   9   3  -1   42.20   14.07
   9   3   0   89.86   14.07
   9   3   1    4.69    8.60
   9   3   2   25.79   12.50
   9   3   3  199.26   14.07
   9   3   4   39.07    8.60
   9   3   5  432.90   17.97
   9   3   6    2.34    7.03
   9   3   7   67.20    9.38
   9   3   8    0.78    8.60
   9   3   9  131.28   16.41
   9   3  10   39.85   29.69
   9   4  -2    5.47   11.72
   9   4  -1   87.52   16.41
   9   4   0   -1.56   18.75
   9   4   1   31.26   10.94
   9   4   2   74.23   17.97
   9   4   3  168.00   17.97
   9   4   4  361.01   21.88
   9   4   5   28.13    9.38
   9   4   6   85.17   10.16
   9   4   7   15.63   14.07
   9   4   8   89.08   17.19
   9   4   9   14.85   12.50
   9   4  10  193.01   65.64
   9   5  -2   45.32   13.28
   9   5  -1    0.78   15.63
   9   5   0   -5.47   11.72
   9   5   1   16.41   10.16
   9   5   2  167.22   21.88
   9   5   3  146.91   20.32
   9   5   4   86.74   12.50
   9   5   5   75.02   13.28
   9   5   6    6.25   11.72
   9   5   7   46.10   11.72
   9   5   8    1.56   13.28
   9   5   9  263.34   21.88
   9   6  -1  -13.28   12.50
   9   6   0   13.28   13.28
   9   6   1  210.98   25.01
   9   6   2   71.11   20.32
   9   6   3  132.84   20.32
   9   6   4   66.42   22.66
   9   6   5   24.22   14.07
   9   6   6  -11.72   13.28
   9   6   7   19.54   14.07
   9   6   8  281.31   32.04
   9   7   0  110.96   24.22
   9   7   1   21.88   20.32
   9   7   2  164.88   27.35
   9   7   3    4.69   18.75
   9   7   4    4.69   14.85
   9   7   5   22.66   21.88
   9   7   6   50.01   17.19
   9   7   7  167.22   26.57
  10  -4   5    7.03   16.41
  10  -3   5   -2.34   17.97
  10  -3   6   39.07   22.66
  10  -3   7    9.38    9.38
  10  -2   0   10.16   13.28
  10  -2   1   -9.38   15.63
  10  -2   2    1.56    9.38
  10  -2   5   89.86   32.82
  10  -2   6    4.69   18.75
  10  -2   7    7.81   14.85
  10  -2   8    3.91    9.38
  10  -1   0   -3.13   14.07
  10  -1   1   18.75   15.63
  10  -1   2   77.36   14.85
  10  -1   3   53.92   14.85
  10  -1   4  179.73   37.51
  10  -1   5   13.28   33.60
  10  -1   6   22.66   24.22
  10  -1   7   -1.56   15.63
  10  -1   8   20.32   15.63
  10   0  -1    9.38   17.19
  10   0   0    5.47   11.72
  10   0   1   64.08   12.50
  10   0   2   98.46   17.97
  10   0   3  233.64   23.44
  10   0   4   12.50   11.72
  10   0   5   50.01   28.13
  10   0   6   16.41   45.32
  10   0   7   39.85   27.35
  10   0   8   17.97   24.22
  10   0   9  146.12   45.32
  10   1  -1    7.03   16.41
  10   1   0   22.66   15.63
  10   1   1  257.87   42.98
  10   1   2  103.15   17.97
  10   1   3   85.17   14.85
  10   1   4   60.95   14.85
  10   1   5   -4.69    7.03
  10   1   6   74.23   42.20
  10   1   7   -9.38   33.60
  10   1   8  217.23   44.54
  10   1   9   17.97   38.29
  10   2  -1    5.47   11.72
  10   2   0  145.34   21.10
  10   2   1   21.10   14.85
  10   2   2  140.65   21.10
  10   2   3   92.21   18.75
  10   2   4   10.94   14.07
  10   2   5   45.32   17.19
  10   2   6   39.85   14.85
  10   2   7  144.56   33.60
  10   2   8   17.19   24.22
  10   2   9   98.46   32.82
  10   3   0    7.81   10.94
  10   3   1  148.47   18.75
  10   3   2   19.54   16.41
  10   3   3    3.13   11.72
  10   3   4    7.03   10.16
  10   3   5   70.33   15.63
  10   3   6  160.19   21.10
  10   3   7   36.73   18.75
  10   3   8  143.00   41.42
  10   4   0  127.37   19.54
  10   4   1   -3.13   15.63
  10   4   2   20.32   13.28
  10   4   3   -5.47   12.50
  10   4   4   96.90   41.42
  10   4   5   60.17   15.63
  10   4   6   98.46   19.54
  10   4   7  103.15   14.85
  10   4   8  -20.32   51.57
  10   5   1   28.91   22.66
  10   5   2    4.69   18.75
  10   5   3   50.79   21.88
  10   5   4   17.19   14.07
  10   5   5  183.63   25.01
  10   5   6   67.98   15.63
  10   5   7   31.26   17.19
  10   6   4  168.79   31.26
   0   0   0    0.00    0.00
   0   0   0
;
_shelx_hkl_checksum              29554
loop_
_space_group_symop_operation_xyz
'x, y, z'
'-x, -y, -z'
loop_
_atom_site_label
_atom_site_type_symbol
_atom_site_fract_x
_atom_site_fract_y
_atom_site_fract_z
_atom_site_U_iso_or_equiv
_atom_site_adp_type
_atom_site_occupancy
_atom_site_site_symmetry_order
_atom_site_calc_flag
_atom_site_refinement_flags_posn
_atom_site_refinement_flags_adp
Pt1 Pt 0.17129(3) 0.33924(3) 0.30080(2) 0.04088(10) Uani 1 1 d . .
Re1 Re 0.51151(3) 0.21454(3) 0.14829(2) 0.04090(10) Uani 1 1 d . .
O1 O 0.5756(6) 0.3789(5) 0.1556(6) 0.0658(14) Uani 1 1 d . .
O2 O 0.4358(6) 0.1721(5) 0.0191(5) 0.0584(13) Uani 1 1 d . .
O3 O 0.4870(6) 0.1033(5) 0.2848(5) 0.0634(14) Uani 1 1 d . .
N1 N 0.1920(6) 0.2933(5) 0.4988(5) 0.0411(12) Uani 1 1 d . .
N2 N 0.2498(7) 0.5283(5) 0.3537(5) 0.0453(13) Uani 1 1 d . .
C1 C 0.7670(8) 0.1295(8) 0.0418(7) 0.0578(19) Uani 1 1 d . .
H1A H 0.8407 0.1401 0.0989 0.087 Uiso 1 1 calc R U
H1B H 0.8135 0.1797 -0.0455 0.087 Uiso 1 1 calc R U
H1C H 0.7645 0.0297 0.0230 0.087 Uiso 1 1 calc R U
C2 C 0.2339(7) 0.4016(7) 0.5614(6) 0.0409(14) Uani 1 1 d . .
C3 C 0.2664(8) 0.5340(7) 0.4810(6) 0.0411(14) Uani 1 1 d . .
C4 C 0.2855(10) 0.6441(8) 0.2736(8) 0.0594(19) Uani 1 1 d . .
H4 H 0.2783 0.6416 0.1831 0.071 Uiso 1 1 calc R U
C5 C 0.3320(9) 0.7660(8) 0.3179(8) 0.064(2) Uani 1 1 d . .
H5 H 0.3544 0.8460 0.2595 0.076 Uiso 1 1 calc R U
C6 C 0.3451(9) 0.7693(8) 0.4469(8) 0.0585(18) Uani 1 1 d . .
H6 H 0.3771 0.8519 0.4792 0.070 Uiso 1 1 calc R U
C7 C 0.3121(9) 0.6533(7) 0.5298(7) 0.0527(17) Uani 1 1 d . .
H7 H 0.3206 0.6549 0.6200 0.063 Uiso 1 1 calc R U
C8 C 0.2468(9) 0.3861(8) 0.6937(7) 0.0536(17) Uani 1 1 d . .
H8 H 0.2737 0.4630 0.7383 0.064 Uiso 1 1 calc R U
C9 C 0.2199(10) 0.2579(8) 0.7584(7) 0.0590(19) Uani 1 1 d . .
H9 H 0.2310 0.2446 0.8473 0.071 Uiso 1 1 calc R U
C10 C 0.1772(9) 0.1500(8) 0.6939(7) 0.0596(19) Uani 1 1 d . .
H10 H 0.1550 0.0616 0.7383 0.072 Uiso 1 1 calc R U
C11 C 0.1666(9) 0.1710(7) 0.5632(7) 0.0514(16) Uani 1 1 d . .
H11 H 0.1402 0.0947 0.5176 0.062 Uiso 1 1 calc R U
C12 C 0.1401(10) 0.4092(9) 0.1193(7) 0.066(2) Uani 1 1 d . .
H12A H 0.0855 0.3385 0.0832 0.099 Uiso 1 1 calc R U
H12B H 0.2534 0.4255 0.0520 0.099 Uiso 1 1 calc R U
H12C H 0.0666 0.4972 0.1359 0.099 Uiso 1 1 calc R U
C13 C 0.0822(9) 0.1547(7) 0.2709(7) 0.0536(17) Uani 1 1 d . .
H13A H 0.0971 0.1438 0.1728 0.080 Uiso 1 1 calc R U
H13B H -0.0408 0.1538 0.3250 0.080 Uiso 1 1 calc R U
H13C H 0.1472 0.0770 0.3005 0.080 Uiso 1 1 calc R U
loop_
_atom_site_aniso_label
_atom_site_aniso_U_11
_atom_site_aniso_U_22
_atom_site_aniso_U_33
_atom_site_aniso_U_23
_atom_site_aniso_U_13
_atom_site_aniso_U_12
Pt1 0.04679(16) 0.03984(17) 0.03753(15) -0.00688(11) -0.01617(12) 0.00082(11)
Re1 0.04947(17) 0.03740(17) 0.03997(16) -0.00150(11) -0.01944(12) -0.00628(12)
O1 0.062(3) 0.049(3) 0.085(4) -0.015(3) -0.020(3) -0.012(2)
O2 0.054(3) 0.076(4) 0.049(3) -0.019(2) -0.023(2) 0.003(3)
O3 0.066(3) 0.058(3) 0.057(3) 0.011(2) -0.012(3) 0.009(3)
N1 0.050(3) 0.038(3) 0.034(3) -0.006(2) -0.012(2) -0.003(2)
N2 0.056(3) 0.029(3) 0.049(3) -0.003(2) -0.015(3) 0.004(2)
C1 0.054(4) 0.064(5) 0.061(4) 0.006(4) -0.028(4) 0.003(4)
C2 0.040(3) 0.046(4) 0.034(3) -0.010(3) -0.009(3) 0.004(3)
C3 0.043(3) 0.036(3) 0.042(3) -0.008(3) -0.010(3) 0.002(3)
C4 0.080(5) 0.046(4) 0.054(4) 0.004(3) -0.026(4) -0.001(4)
C5 0.067(5) 0.036(4) 0.079(6) 0.006(4) -0.013(4) 0.001(4)
C6 0.065(4) 0.038(4) 0.068(5) -0.012(4) -0.017(4) -0.002(3)
C7 0.059(4) 0.050(4) 0.050(4) -0.010(3) -0.017(3) -0.008(3)
C8 0.058(4) 0.061(5) 0.043(4) -0.010(3) -0.017(3) -0.005(4)
C9 0.073(5) 0.070(5) 0.035(3) 0.006(4) -0.017(3) -0.014(4)
C10 0.076(5) 0.056(5) 0.044(4) 0.011(4) -0.014(4) -0.019(4)
C11 0.067(4) 0.044(4) 0.046(4) 0.005(3) -0.020(3) -0.016(3)
C12 0.073(5) 0.073(6) 0.056(4) -0.011(4) -0.030(4) 0.017(4)
C13 0.060(4) 0.054(4) 0.055(4) -0.005(3) -0.026(3) -0.020(4)
loop_
_atom_type_symbol
_atom_type_description
_atom_type_scat_dispersion_real
_atom_type_scat_dispersion_imag
_atom_type_scat_source
C C 0.0033 0.0016 'International Tables Vol C Tables 4.2.6.8 and 6.1.1.4'
H H 0.0000 0.0000 'International Tables Vol C Tables 4.2.6.8 and 6.1.1.4'
N N 0.0061 0.0033 'International Tables Vol C Tables 4.2.6.8 and 6.1.1.4'
O O 0.0106 0.0060 'International Tables Vol C Tables 4.2.6.8 and 6.1.1.4'
Pt Pt -1.7033 8.3905 'International Tables Vol C Tables 4.2.6.8 and 6.1.1.4'
Re Re -1.0185 7.2310 'International Tables Vol C Tables 4.2.6.8 and 6.1.1.4'
loop_
_geom_angle_atom_site_label_1
_geom_angle_atom_site_label_2
_geom_angle_atom_site_label_3
_geom_angle
C13 Pt1 C12 88.4(3)
C13 Pt1 N2 174.0(2)
C12 Pt1 N2 96.4(3)
C13 Pt1 N1 97.4(2)
C12 Pt1 N1 172.6(3)
N2 Pt1 N1 77.6(2)
C13 Pt1 Re1 86.1(2)
C12 Pt1 Re1 89.7(2)
N2 Pt1 Re1 97.53(14)
N1 Pt1 Re1 95.26(13)
O1 Re1 O3 119.9(3)
O1 Re1 O2 119.8(3)
O3 Re1 O2 119.3(3)
O1 Re1 C1 93.4(3)
O3 Re1 C1 93.4(2)
O2 Re1 C1 93.2(2)
O1 Re1 Pt1 84.22(17)
O3 Re1 Pt1 86.38(16)
O2 Re1 Pt1 89.49(15)
C1 Re1 Pt1 177.1(2)
C11 N1 C2 119.2(5)
C11 N1 Pt1 125.8(4)
C2 N1 Pt1 115.0(4)
C4 N2 C3 117.1(6)
C4 N2 Pt1 126.5(5)
C3 N2 Pt1 116.4(4)
Re1 C1 H1A 109.5
Re1 C1 H1B 109.5
H1A C1 H1B 109.5
Re1 C1 H1C 109.5
H1A C1 H1C 109.5
H1B C1 H1C 109.5
N1 C2 C8 120.7(6)
N1 C2 C3 116.2(5)
C8 C2 C3 123.1(6)
N2 C3 C7 122.2(6)
N2 C3 C2 114.6(5)
C7 C3 C2 123.2(6)
N2 C4 C5 122.8(7)
N2 C4 H4 118.6
C5 C4 H4 118.6
C6 C5 C4 118.7(7)
C6 C5 H5 120.6
C4 C5 H5 120.6
C5 C6 C7 119.9(7)
C5 C6 H6 120.0
C7 C6 H6 120.0
C6 C7 C3 119.2(6)
C6 C7 H7 120.4
C3 C7 H7 120.4
C9 C8 C2 119.0(7)
C9 C8 H8 120.5
C2 C8 H8 120.5
C10 C9 C8 119.5(6)
C10 C9 H9 120.2
C8 C9 H9 120.2
C9 C10 C11 119.0(7)
C9 C10 H10 120.5
C11 C10 H10 120.5
N1 C11 C10 122.6(7)
N1 C11 H11 118.7
C10 C11 H11 118.7
Pt1 C12 H12A 109.5
Pt1 C12 H12B 109.5
H12A C12 H12B 109.5
Pt1 C12 H12C 109.5
H12A C12 H12C 109.5
H12B C12 H12C 109.5
Pt1 C13 H13A 109.5
Pt1 C13 H13B 109.5
H13A C13 H13B 109.5
Pt1 C13 H13C 109.5
H13A C13 H13C 109.5
H13B C13 H13C 109.5
loop_
_geom_bond_atom_site_label_1
_geom_bond_atom_site_label_2
_geom_bond_distance
Pt1 C13 2.025(7)
Pt1 C12 2.049(7)
Pt1 N2 2.102(5)
Pt1 N1 2.124(5)
Pt1 Re1 2.8953(4)
Re1 O1 1.703(5)
Re1 O3 1.704(4)
Re1 O2 1.704(4)
Re1 C1 2.129(7)
N1 C11 1.324(8)
N1 C2 1.352(8)
N2 C4 1.354(8)
N2 C3 1.357(7)
C1 H1A 0.9800
C1 H1B 0.9800
C1 H1C 0.9800
C2 C8 1.398(8)
C2 C3 1.486(8)
C3 C7 1.379(9)
C4 C5 1.382(10)
C4 H4 0.9500
C5 C6 1.363(10)
C5 H5 0.9500
C6 C7 1.368(9)
C6 H6 0.9500
C7 H7 0.9500
C8 C9 1.376(10)
C8 H8 0.9500
C9 C10 1.364(10)
C9 H9 0.9500
C10 C11 1.379(8)
C10 H10 0.9500
C11 H11 0.9500
C12 H12A 0.9800
C12 H12B 0.9800
C12 H12C 0.9800
C13 H13A 0.9800
C13 H13B 0.9800
C13 H13C 0.9800
loop_
_geom_torsion_atom_site_label_1
_geom_torsion_atom_site_label_2
_geom_torsion_atom_site_label_3
_geom_torsion_atom_site_label_4
_geom_torsion
C11 N1 C2 C8 -1.4(9)
Pt1 N1 C2 C8 178.2(4)
C11 N1 C2 C3 177.9(6)
Pt1 N1 C2 C3 -2.5(6)
C4 N2 C3 C7 2.0(9)
Pt1 N2 C3 C7 -178.1(5)
C4 N2 C3 C2 -177.1(5)
Pt1 N2 C3 C2 2.8(7)
N1 C2 C3 N2 -0.2(8)
C8 C2 C3 N2 179.1(6)
N1 C2 C3 C7 -179.3(6)
C8 C2 C3 C7 0.0(9)
C3 N2 C4 C5 -1.9(10)
Pt1 N2 C4 C5 178.2(5)
N2 C4 C5 C6 1.0(11)
C4 C5 C6 C7 -0.1(11)
C5 C6 C7 C3 0.2(10)
N2 C3 C7 C6 -1.2(10)
C2 C3 C7 C6 177.9(6)
N1 C2 C8 C9 1.4(9)
C3 C2 C8 C9 -177.9(6)
C2 C8 C9 C10 -1.6(10)
C8 C9 C10 C11 1.8(11)
C2 N1 C11 C10 1.6(10)
Pt1 N1 C11 C10 -177.9(5)
C9 C10 C11 N1 -1.8(11)
