#------------------------------------------------------------------------------
#$Date: 2017-07-25 02:38:01 +0300 (Tue, 25 Jul 2017) $
#$Revision: 198954 $
#$URL: file:///home/coder/svn-repositories/cod/cif/4/34/59/4345960.cif $
#------------------------------------------------------------------------------
#
# This file is available in the Crystallography Open Database (COD),
# http://www.crystallography.net/
#
# All data on this site have been placed in the public domain by the
# contributors.
#
data_4345960
loop_
_publ_author_name
'Borys, Andryj M.'
'Clark, Ewan R.'
_publ_section_title
;
 Adducts of Donor-Functionalized Ar3P with the Soft Lewis Acid I2: Probing
 Simultaneous Lewis Acidity and Basicity at Internally Solvated P(III)
 Centers.
;
_journal_name_full               'Inorganic chemistry'
_journal_paper_doi               10.1021/acs.inorgchem.7b00278
_journal_year                    2017
_chemical_formula_moiety         'C19 H17 I O P, I'
_chemical_formula_sum            'C19 H17 I2 O P'
_chemical_formula_weight         546.09
_space_group_crystal_system      triclinic
_space_group_IT_number           2
_space_group_name_Hall           '-P 1'
_space_group_name_H-M_alt        'P -1'
_symmetry_space_group_name_Hall  '-P 1'
_symmetry_space_group_name_H-M   'P -1'
_atom_sites_solution_hydrogens   geom
_audit_creation_date             2016-03-07
_audit_creation_method
;
Olex2 1.2
(compiled 2015.09.30 svn.r3233 for OlexSys, GUI svn.r5103)
;
_cell_angle_alpha                94.431(2)
_cell_angle_beta                 95.603(2)
_cell_angle_gamma                104.837(2)
_cell_formula_units_Z            2
_cell_length_a                   8.7185(3)
_cell_length_b                   9.8085(3)
_cell_length_c                   11.5663(3)
_cell_measurement_reflns_used    8860
_cell_measurement_temperature    100.01(10)
_cell_measurement_theta_max      29.3420
_cell_measurement_theta_min      2.9260
_cell_volume                     946.16(5)
_computing_cell_refinement       'CrysAlisPro 1.171.38.41 (Rigaku OD, 2015)'
_computing_data_collection       'CrysAlisPro 1.171.38.41 (Rigaku OD, 2015)'
_computing_data_reduction        'CrysAlisPro 1.171.38.41 (Rigaku OD, 2015)'
_computing_molecular_graphics    'Olex2 (Dolomanov et al., 2009)'
_computing_publication_material  'Olex2 (Dolomanov et al., 2009)'
_computing_structure_refinement  'ShelXL (Sheldrick, 2015)'
_computing_structure_solution    'ShelXT (Sheldrick, 2015)'
_diffrn_ambient_environment      N~2~
_diffrn_ambient_temperature      100.01(10)
_diffrn_detector                 'CCD plate'
_diffrn_detector_area_resol_mean 5.2887
_diffrn_detector_type            AtlasS2
_diffrn_measured_fraction_theta_full 0.999
_diffrn_measured_fraction_theta_max 0.999
_diffrn_measurement_details
;
List of Runs (angles in degrees, time in seconds):

  # Type    Start    End  Width  t~exp~   \w     \q     \k     \f   Frames
--------------------------------------------------------------------------
  1  \w    -40.00  61.00   1.00    3.00    --  -12.01  57.00  90.00  101
  2  \w    -19.00  88.00   1.00    3.00    --   11.38  77.00   0.00  107
  3  \w     16.00  86.00   1.00    3.00    --   11.38  77.00-150.00   70
  4  \w     35.00  87.00   1.00    3.00    --   11.38 178.00  90.00   52
  5  \w    -66.00 -35.00   1.00    3.00    --  -12.01 121.00 132.06   31
  6  \w    -79.00 -52.00   1.00    3.00    --  -12.01 142.00 -88.77   27
  7  \w    -81.00   9.00   1.00    3.00    --  -12.01 -57.00  90.00   90
  8  \w     34.00  77.00   1.00    3.00    --   11.38-178.00 -90.00   43
  9  \w    -63.00  43.00   1.00    3.00    --   11.38 -77.00 -90.00  106
;
_diffrn_measurement_device       'four-circle diffractometer'
_diffrn_measurement_device_type  'SuperNova, Dual, Cu at zero, AtlasS2'
_diffrn_measurement_method       '\w scans'
_diffrn_orient_matrix_type
'CrysAlisPro convention (1999,Acta A55,543-557)'
_diffrn_orient_matrix_UB_11      -0.0773717000
_diffrn_orient_matrix_UB_12      0.0079362000
_diffrn_orient_matrix_UB_13      0.0066475000
_diffrn_orient_matrix_UB_21      -0.0303107000
_diffrn_orient_matrix_UB_22      -0.0415268000
_diffrn_orient_matrix_UB_23      -0.0542984000
_diffrn_orient_matrix_UB_31      -0.0168747000
_diffrn_orient_matrix_UB_32      -0.0622324000
_diffrn_orient_matrix_UB_33      0.0291165000
_diffrn_radiation_monochromator  mirror
_diffrn_radiation_probe          x-ray
_diffrn_radiation_type           MoK\a
_diffrn_radiation_wavelength     0.71073
_diffrn_reflns_av_R_equivalents  0.0383
_diffrn_reflns_av_unetI/netI     0.0328
_diffrn_reflns_Laue_measured_fraction_full 0.999
_diffrn_reflns_Laue_measured_fraction_max 0.999
_diffrn_reflns_limit_h_max       10
_diffrn_reflns_limit_h_min       -10
_diffrn_reflns_limit_k_max       12
_diffrn_reflns_limit_k_min       -12
_diffrn_reflns_limit_l_max       14
_diffrn_reflns_limit_l_min       -14
_diffrn_reflns_number            14803
_diffrn_reflns_point_group_measured_fraction_full 0.999
_diffrn_reflns_point_group_measured_fraction_max 0.999
_diffrn_reflns_theta_full        25.242
_diffrn_reflns_theta_max         26.366
_diffrn_reflns_theta_min         2.649
_diffrn_source                   'micro-focus sealed X-ray tube'
_diffrn_source_type              'SuperNova (Mo) X-ray Source'
_exptl_absorpt_coefficient_mu    3.410
_exptl_absorpt_correction_T_max  0.797
_exptl_absorpt_correction_T_min  0.643
_exptl_absorpt_correction_type   gaussian
_exptl_absorpt_process_details
;
CrysAlisPro 1.171.38.41 (Rigaku Oxford Diffraction, 2015)
Numerical absorption correction based on gaussian integration over
            a multifaceted crystal model
Empirical absorption correction using spherical harmonics,
 implemented in SCALE3 ABSPACK scaling algorithm.
;
_exptl_crystal_colour            'clear yellow'
_exptl_crystal_colour_lustre     clear
_exptl_crystal_colour_primary    yellow
_exptl_crystal_density_diffrn    1.917
_exptl_crystal_description       block
_exptl_crystal_F_000             520
_exptl_crystal_size_max          0.162
_exptl_crystal_size_mid          0.09
_exptl_crystal_size_min          0.078
_refine_diff_density_max         0.583
_refine_diff_density_min         -0.560
_refine_diff_density_rms         0.120
_refine_ls_extinction_method     none
_refine_ls_goodness_of_fit_ref   1.050
_refine_ls_hydrogen_treatment    constr
_refine_ls_matrix_type           full
_refine_ls_number_parameters     209
_refine_ls_number_reflns         3870
_refine_ls_number_restraints     0
_refine_ls_restrained_S_all      1.050
_refine_ls_R_factor_all          0.0249
_refine_ls_R_factor_gt           0.0210
_refine_ls_shift/su_max          0.001
_refine_ls_shift/su_mean         0.000
_refine_ls_structure_factor_coef Fsqd
_refine_ls_weighting_details
'w=1/[\s^2^(Fo^2^)+(0.0135P)^2^+0.4984P] where P=(Fo^2^+2Fc^2^)/3'
_refine_ls_weighting_scheme      calc
_refine_ls_wR_factor_gt          0.0407
_refine_ls_wR_factor_ref         0.0424
_reflns_Friedel_coverage         0.000
_reflns_number_gt                3546
_reflns_number_total             3870
_reflns_threshold_expression     'I > 2\s(I)'
_cod_data_source_file            ic7b00278_si_002.cif
_cod_data_source_block           2a
_cod_original_cell_volume        946.17(5)
_cod_database_code               4345960
_shelx_shelxl_version_number     2014/7
_chemical_oxdiff_formula         'C19 H17 O1 P1 I2'
_shelx_space_group_comment
;
The symmetry employed for this shelxl refinement is uniquely defined
by the following loop, which should always be used as a source of
symmetry information in preference to the above space-group names.
They are only intended as comments.
;
_reflns_odcompleteness_completeness 99.97
_reflns_odcompleteness_iscentric 1
_reflns_odcompleteness_theta     26.32
_olex2_refinement_description
;
1. Fixed Uiso
 At 1.2 times of:
  All C(H) groups
 At 1.5 times of:
  All C(H,H,H) groups
2.a Aromatic/amide H refined with riding coordinates:
 C15(H15), C2(H2), C5(H5), C13(H13), C16(H16), C17(H17), C3(H3), C19(H19),
 C9(H9), C11(H11), C12(H12), C10(H10), C18(H18), C4(H4)
2.b Idealised Me refined as rotating group:
 C7(H7A,H7B,H7C)
;
_shelx_res_file
;
    serc019-r1-rf.res created by SHELXL-2014/7

TITL serc019-r1-rf_a.res in P-1
REM Old TITL sERC019-R1-rf in P1 #1
REM SHELXT solution in P-1
REM R1 0.132, Rweak 0.006, Alpha 0.064, Orientation as input
REM Formula found by SHELXT: C19 O P I2
CELL 0.71073 8.718521 9.808521 11.56634 94.4314 95.6026 104.8368
ZERR 2 0.000253 0.000258 0.000295 0.0021 0.0022 0.0024
LATT 1
SFAC C H O P I
UNIT 38 34 2 2 4

L.S. 10
PLAN  20
BOND $H
LIST 6
fmap 2
ACTA
SHEL 999 0.8
OMIT 0 1 0
OMIT 1 0 0
REM <olex2.extras>
REM <HklSrc "%.\\sERC019-R1-rf.hkl">
REM </olex2.extras>

WGHT    0.013500    0.498400
FVAR       0.44045
I1    5    0.265963    0.394873    0.245829    11.00000    0.01066    0.01338 =
         0.01398    0.00034    0.00001    0.00423
I2    5    0.018546    0.087135    0.220166    11.00000    0.01638    0.01590 =
         0.01801    0.00292    0.00058    0.00141
P1    4    0.451071    0.635797    0.268137    11.00000    0.00967    0.01289 =
         0.01264    0.00041    0.00044    0.00449
O1    3    0.185135    0.672156    0.112074    11.00000    0.01135    0.02172 =
         0.01764    0.00568   -0.00213    0.00571
C1    1    0.463979    0.717074    0.134423    11.00000    0.01547    0.01238 =
         0.01229   -0.00156    0.00097    0.00378
C15   1    0.340310    0.862401    0.350603    11.00000    0.01223    0.01576 =
         0.01549    0.00019   -0.00250    0.00212
AFIX  43
H15   2    0.340407    0.888481    0.274990    11.00000   -1.20000
AFIX   0
C6    1    0.323605    0.726192    0.067363    11.00000    0.01508    0.01193 =
         0.01414   -0.00230    0.00116    0.00366
C2    1    0.612293    0.773620    0.097318    11.00000    0.01788    0.01362 =
         0.01909   -0.00065    0.00241    0.00671
AFIX  43
H2    2    0.705009    0.768749    0.142007    11.00000   -1.20000
AFIX   0
C5    1    0.334215    0.791282   -0.035884    11.00000    0.02293    0.01553 =
         0.01268   -0.00228   -0.00341    0.00516
AFIX  43
H5    2    0.242598    0.798862   -0.080421    11.00000   -1.20000
AFIX   0
C13   1    0.702789    0.515619    0.254828    11.00000    0.01482    0.01448 =
         0.01381   -0.00008    0.00007    0.00250
AFIX  43
H13   2    0.638251    0.456986    0.192026    11.00000   -1.20000
AFIX   0
C8    1    0.647221    0.617713    0.316129    11.00000    0.00902    0.01268 =
         0.01629    0.00228    0.00056    0.00186
C14   1    0.390852    0.744070    0.378184    11.00000    0.00770    0.01496 =
         0.01216   -0.00174    0.00115    0.00144
C16   1    0.289734    0.941279    0.436700    11.00000    0.01389    0.01643 =
         0.02478   -0.00330   -0.00261    0.00831
AFIX  43
H16   2    0.254027    1.019474    0.418323    11.00000   -1.20000
AFIX   0
C17   1    0.292149    0.904437    0.548934    11.00000    0.01301    0.01956 =
         0.02350   -0.00808    0.00348   -0.00006
AFIX  43
H17   2    0.258886    0.958201    0.606341    11.00000   -1.20000
AFIX   0
C3    1    0.622738    0.837112   -0.005739    11.00000    0.02217    0.01462 =
         0.02169   -0.00062    0.01149    0.00454
AFIX  43
H3    2    0.721773    0.874212   -0.030657    11.00000   -1.20000
AFIX   0
C19   1    0.391105    0.705716    0.491896    11.00000    0.01663    0.01193 =
         0.02083    0.00284    0.00028    0.00266
AFIX  43
H19   2    0.422830    0.625599    0.510279    11.00000   -1.20000
AFIX   0
C9    1    0.743801    0.705096    0.410227    11.00000    0.01438    0.01618 =
         0.02058   -0.00230    0.00298    0.00331
AFIX  43
H9    2    0.706744    0.773183    0.451051    11.00000   -1.20000
AFIX   0
C11   1    0.950989    0.589913    0.381665    11.00000    0.00803    0.03007 =
         0.02381    0.01088    0.00456    0.00645
AFIX  43
H11   2    1.053332    0.581182    0.403282    11.00000   -1.20000
AFIX   0
C12   1    0.854882    0.502158    0.288165    11.00000    0.01514    0.01912 =
         0.02150    0.00608    0.00708    0.00803
AFIX  43
H12   2    0.892503    0.434152    0.247744    11.00000   -1.20000
AFIX   0
C10   1    0.895352    0.690323    0.442894    11.00000    0.01385    0.02740 =
         0.01965   -0.00301   -0.00430    0.00068
AFIX  43
H10   2    0.959816    0.748086    0.506160    11.00000   -1.20000
AFIX   0
C18   1    0.343948    0.787508    0.576879    11.00000    0.02113    0.02010 =
         0.01625   -0.00056    0.00452   -0.00079
AFIX  43
H18   2    0.346971    0.763986    0.653280    11.00000   -1.20000
AFIX   0
C7    1    0.041041    0.693349    0.053494    11.00000    0.01500    0.03272 =
         0.02581    0.00968   -0.00072    0.00860
AFIX 137
H7A   2    0.021199    0.646120   -0.024468    11.00000   -1.50000
H7B   2    0.052942    0.792995    0.050370    11.00000   -1.50000
H7C   2   -0.047167    0.655074    0.095493    11.00000   -1.50000
AFIX   0
C4    1    0.484272    0.844545   -0.070864    11.00000    0.03233    0.01336 =
         0.01170    0.00082    0.00637    0.00488
AFIX  43
H4    2    0.491568    0.886459   -0.140261    11.00000   -1.20000
AFIX   0
HKLF 4

REM  serc019-r1-rf_a.res in P-1
REM R1 =  0.0210 for    3546 Fo > 4sig(Fo)  and  0.0249 for all    3870 data
REM    209 parameters refined using      0 restraints

END

WGHT      0.0135      0.4984

REM Highest difference peak  0.583,  deepest hole -0.560,  1-sigma level  0.120
Q1    1   0.3907  0.7433  0.1182  11.00000  0.05    0.58
Q2    1  -0.0242  0.1622  0.2294  11.00000  0.05    0.54
Q3    1   0.4556  0.6909  0.1963  11.00000  0.05    0.48
Q4    1   0.4027  0.6921  0.3200  11.00000  0.05    0.47
Q5    1   0.5383  0.8709 -0.1777  11.00000  0.05    0.44
Q6    1   0.1472  0.2470  0.2587  11.00000  0.05    0.43
Q7    1   0.6582  0.5526  0.3167  11.00000  0.05    0.43
Q8    1   0.5671  0.6285  0.2901  11.00000  0.05    0.43
Q9    1   0.4136  0.9211 -0.1535  11.00000  0.05    0.43
Q10   1   0.9191  0.6514  0.3884  11.00000  0.05    0.42
Q11   1   0.3899  0.7693  0.5305  11.00000  0.05    0.41
Q12   1   0.4002  0.7386  0.4345  11.00000  0.05    0.41
Q13   1   0.3685  1.0061  0.7235  11.00000  0.05    0.40
Q14   1   0.2347  0.5512  0.0350  11.00000  0.05    0.40
Q15   1   0.5752  1.0022 -0.1304  11.00000  0.05    0.39
Q16   1   0.1635  0.4199  0.2045  11.00000  0.05    0.39
Q17   1   0.3421  0.8555  0.5577  11.00000  0.05    0.39
Q18   1   0.2047  0.6429  0.1689  11.00000  0.05    0.39
Q19   1   0.8662  0.4971  0.2463  11.00000  0.05    0.38
Q20   1   0.5682  0.3823  0.1773  11.00000  0.05    0.38
;
_shelx_res_checksum              90572
_shelx_hkl_file
;
 -11  -1  -1  475.88   39.91
 -11   0  -3   21.31    8.31
 -11   0  -2  422.42   37.61
 -11   0  -1    4.79    6.31
 -11   0   0  336.83   34.35
 -11   1  -2   23.52    9.05
 -11   1  -1   18.70    8.89
 -11   1   0   57.18   13.92
 -11   1   1  131.92   20.15
 -11   1   1  131.55   21.55
 -11   2  -3   37.89   13.04
 -11   2  -2  370.86   37.52
 -11   2  -1   12.40    7.29
 -11   2   0  457.76   39.38
 -11   2   1  138.43   20.65
 -11   3  -3  398.12   40.32
 -11   3  -2  167.39   25.32
 -11   3  -1  259.90   30.33
 -11   3   0  196.26   25.53
 -11   3   1  218.70   25.86
 -11   4  -3    7.46    5.56
 -11   4  -2   93.05   18.82
 -11   4  -1   30.99   10.40
 -11   4   0  147.74   22.32
 -11   4   1   71.53   14.57
 -11   5  -2  128.63   23.02
 -11   5  -1  486.21   41.82
 -11   5   0  223.11   27.77
 -11   5   1  203.47   25.19
 -11   5   2  489.23   38.00
 -11   5   3  210.82   26.46
 -11   5   4  542.23   41.33
 -11   6  -2  399.29   39.59
 -11   6  -1  117.09   20.95
 -11   6   0  138.02   22.46
 -11   6   1  169.87   24.06
 -11   6   2  309.23   34.01
 -11   6   2  300.32   32.12
 -11   6   3  119.72   20.93
 -11   6   4   40.41   12.13
 -11   7  -1   86.99   18.78
 -11   7   0    3.66    5.87
 -11   7   1   17.07    7.83
 -11   7   1   11.54    6.18
 -11   7   2    5.30    5.79
 -11   7   2    3.52    4.26
 -11   7   3  -13.30    7.83
 -11   7   4    4.58    5.61
 -11   7   5   28.82    9.01
 -11   8   0  112.03   20.77
 -11   8   1  342.33   35.73
 -10  -4   1   63.47   13.93
 -10  -3  -1   -0.06    4.15
 -10  -3   0   64.54   14.14
 -10  -3   1   79.89   16.05
 -10  -3   2    6.76    6.06
 -10  -3   3   83.44   17.20
 -10  -2  -4   33.04   12.35
 -10  -2  -3  228.12   29.67
 -10  -2  -2  207.69   24.91
 -10  -2  -2  216.48   28.70
 -10  -2  -1   90.01   16.27
 -10  -2  -1  106.50   19.85
 -10  -2   0  360.40   33.29
 -10  -2   1   93.11   17.76
 -10  -2   2  699.53   47.48
 -10  -2   3   14.56    7.23
 -10  -2   4  795.86   51.83
 -10  -1  -5  115.57   20.70
 -10  -1  -4  317.08   33.48
 -10  -1  -3  451.25   39.37
 -10  -1  -3  464.90   36.15
 -10  -1  -2  263.12   29.91
 -10  -1  -2  286.37   28.73
 -10  -1  -1  468.07   37.17
 -10  -1   0  332.87   31.60
 -10  -1   1  502.10   39.71
 -10  -1   2   87.96   17.61
 -10  -1   3  239.27   28.06
 -10  -1   4   69.77   15.71
 -10  -1   5  148.95   22.83
 -10   0  -4  -12.92    6.70
 -10   0  -4    8.30    6.69
 -10   0  -3  103.21   19.86
 -10   0  -3  113.76   18.91
 -10   0  -2   31.14   10.33
 -10   0  -1   16.36    7.86
 -10   0  -1   11.47    6.87
 -10   0   0   62.00   14.32
 -10   0   0   55.36   14.16
 -10   0   1    0.61    2.53
 -10   0   2  168.55   23.08
 -10   0   3   18.01    8.07
 -10   0   4  145.79   22.14
 -10   0   5    6.09    5.88
 -10   0   6  232.39   28.78
 -10   1  -4  215.62   28.76
 -10   1  -4  200.56   23.60
 -10   1  -3  109.15   19.94
 -10   1  -2  223.25   27.57
 -10   1  -1  486.96   39.38
 -10   1   0  180.99   22.73
 -10   1   1  387.60   32.19
 -10   1   2   57.92   11.69
 -10   1   2   47.08   12.82
 -10   1   3  638.10   37.04
 -10   1   3  619.36   44.66
 -10   1   4    8.31    4.51
 -10   1   5  509.40   41.46
 -10   1   6   15.51    7.99
 -10   2  -5  497.01   44.79
 -10   2  -4  363.40   37.26
 -10   2  -3  212.92   27.65
 -10   2  -2  432.21   38.49
 -10   2  -1   66.53   14.49
 -10   2   0  552.02   39.90
 -10   2   1   18.37    8.11
 -10   2   2  740.74   42.27
 -10   2   3    3.41    2.46
 -10   2   4  648.44   46.20
 -10   2   5   27.06    9.64
 -10   2   6  445.33   39.28
 -10   2   7   13.62    7.75
 -10   3  -5   76.24   18.17
 -10   3  -4  123.75   21.63
 -10   3  -3   67.01   15.94
 -10   3  -2  122.79   19.73
 -10   3  -1  122.80   19.53
 -10   3   0   35.10   10.51
 -10   3   1   56.59   12.61
 -10   3   2  141.03   18.75
 -10   3   3   20.78    6.09
 -10   3   4   50.46   10.48
 -10   3   5   49.26   12.94
 -10   3   6   58.47   14.34
 -10   3   7   40.26   11.98
 -10   4  -5   20.35    9.17
 -10   4  -4  168.75   25.50
 -10   4  -3   16.07    7.71
 -10   4  -2  423.52   37.80
 -10   4  -1   11.28    6.94
 -10   4   0  837.77   49.53
 -10   4   1   21.88    7.45
 -10   4   2  746.58   43.62
 -10   4   3  -12.98    5.73
 -10   4   4  739.52   43.80
 -10   4   5   22.05    7.60
 -10   4   6  603.74   45.28
 -10   4   7  117.56   20.11
 -10   5  -4  377.73   38.19
 -10   5  -3  411.55   39.16
 -10   5  -2  143.56   21.74
 -10   5  -1  455.58   38.34
 -10   5   0  122.39   18.90
 -10   5   1  455.54   35.92
 -10   5   2    7.07    2.95
 -10   5   3  559.34   36.95
 -10   5   3  569.05   41.46
 -10   5   4   22.35    8.54
 -10   5   5  298.55   29.01
 -10   5   7  181.93   25.65
 -10   6  -4  116.05   21.33
 -10   6  -3   15.96    8.20
 -10   6  -2  186.09   25.81
 -10   6  -1   23.44    9.77
 -10   6   0  161.05   22.51
 -10   6   1   -1.14    2.45
 -10   6   2   38.25   10.58
 -10   6   2   58.46   13.96
 -10   6   3   25.41    9.00
 -10   6   3    7.73    6.08
 -10   6   4   54.41   13.03
 -10   6   5   11.48    6.85
 -10   6   6   21.30    9.27
 -10   7  -3   55.99   14.74
 -10   7  -2    2.08    4.48
 -10   7  -1   79.58   17.14
 -10   7   0   12.06    7.63
 -10   7   1  138.23   21.20
 -10   7   1  154.69   24.27
 -10   7   2  140.28   22.67
 -10   7   2  141.01   20.81
 -10   7   3  319.28   30.27
 -10   7   3  311.18   33.47
 -10   7   4  219.60   28.01
 -10   7   5  347.06   34.65
 -10   7   6  286.15   31.37
 -10   8  -2  729.22   53.61
 -10   8  -1   -0.19    5.61
 -10   8   0  908.49   57.28
 -10   8   0  886.48   60.93
 -10   8   1    4.99    6.83
 -10   8   1   -0.65    3.64
 -10   8   2  780.63   55.99
 -10   8   2  704.64   48.33
 -10   8   3    2.30    3.58
 -10   8   3    2.95    3.54
 -10   8   4  670.96   50.93
 -10   8   5   22.09   10.41
 -10   8   6  174.76   25.91
 -10   9  -1  129.14   23.41
 -10   9   0   20.03    9.42
 -10   9   1  131.63   22.48
 -10   9   2   22.34   10.23
 -10   9   3    8.92    7.08
 -10  10   2   55.47   15.18
  -9  -6   2   12.34    8.41
  -9  -6   4   37.69   11.51
  -9  -5   0  321.59   29.17
  -9  -5   1   17.43    6.77
  -9  -5   2  156.49   21.07
  -9  -5   3    4.87    4.51
  -9  -5   3    0.18    3.25
  -9  -5   4   81.76   16.48
  -9  -5   4   64.40   14.38
  -9  -5   5   10.41    4.94
  -9  -4  -2    0.39    4.69
  -9  -4  -1   51.10   14.62
  -9  -4  -1   56.35   13.16
  -9  -4   0   15.98    6.80
  -9  -4   0    2.66    3.15
  -9  -4   1   15.43    8.64
  -9  -4   1   26.74    8.57
  -9  -4   2   19.74    6.52
  -9  -4   2    7.16    5.46
  -9  -4   3   48.91   12.44
  -9  -4   4   38.39   11.21
  -9  -4   5  134.66   21.09
  -9  -3  -5   90.68   18.93
  -9  -3  -4  149.24   23.82
  -9  -3  -3   31.51   10.09
  -9  -3  -2  237.57   29.40
  -9  -3  -2  236.17   24.25
  -9  -3  -1   13.67    7.04
  -9  -3  -1    9.29    4.95
  -9  -3   0  637.49   47.69
  -9  -3   0  600.32   40.00
  -9  -3   1   39.58   11.18
  -9  -3   1   25.71   10.28
  -9  -3   2  591.82   40.95
  -9  -3   3  128.21   19.65
  -9  -3   4  494.23   38.92
  -9  -3   5  313.18   31.68
  -9  -3   6  326.58   32.84
  -9  -2  -7  273.25   32.85
  -9  -2  -6   76.12   16.56
  -9  -2  -5  862.63   55.08
  -9  -2  -4   12.38    7.03
  -9  -2  -3  965.53   47.99
  -9  -2  -3  963.51   56.53
  -9  -2  -2    5.61    2.86
  -9  -2  -2   11.96    6.41
  -9  -2  -1  915.47   48.37
  -9  -2  -1  885.19   53.69
  -9  -2   0    6.09    5.47
  -9  -2   0   20.19    8.03
  -9  -2   1  842.64   47.79
  -9  -2   2   57.25   12.90
  -9  -2   3  624.87   42.68
  -9  -2   4  187.29   23.82
  -9  -2   5  355.45   33.20
  -9  -2   6   85.23   16.79
  -9  -2   7  351.42   34.31
  -9  -1  -7  166.38   23.74
  -9  -1  -6  158.61   22.63
  -9  -1  -5  156.36   22.05
  -9  -1  -4   94.03   16.78
  -9  -1  -3   77.66   15.44
  -9  -1  -3  108.67   16.65
  -9  -1  -2   52.87   12.73
  -9  -1  -2   75.11   13.67
  -9  -1  -1   38.39   11.26
  -9  -1  -1   25.56    8.73
  -9  -1   0   -0.21    2.61
  -9  -1   1   11.39    6.10
  -9  -1   2    1.38    2.93
  -9  -1   3  107.94   17.88
  -9  -1   4   69.94   14.53
  -9  -1   5  132.31   20.16
  -9  -1   6  138.48   20.91
  -9  -1   7   90.79   17.19
  -9  -1   8   54.56   14.11
  -9   0  -6   16.18    7.41
  -9   0  -6   16.84    9.56
  -9   0  -5  253.11   26.46
  -9   0  -5  221.42   28.78
  -9   0  -4   43.21   12.75
  -9   0  -4   48.21   11.45
  -9   0  -3  612.18   40.34
  -9   0  -3  536.14   42.92
  -9   0  -2   21.94    7.78
  -9   0  -2   44.72   12.09
  -9   0  -1  471.02   36.69
  -9   0  -1  519.31   37.02
  -9   0   0   27.56    8.39
  -9   0   1  666.46   42.50
  -9   0   1  649.25   39.75
  -9   0   2   74.36   14.48
  -9   0   3  695.16   44.45
  -9   0   4  228.57   25.71
  -9   0   5  418.60   35.67
  -9   0   6  480.35   38.57
  -9   0   7  165.11   23.64
  -9   0   8  679.21   47.91
  -9   0   9  213.94   27.50
  -9   1  -6  381.53   38.50
  -9   1  -6  371.92   30.27
  -9   1  -5  123.93   17.28
  -9   1  -5  109.72   20.58
  -9   1  -4  559.06   36.63
  -9   1  -4  512.71   41.90
  -9   1  -3    5.97    4.68
  -9   1  -3    5.31    4.52
  -9   1  -2  836.10   50.06
  -9   1  -1   57.22   12.71
  -9   1   0  928.54   48.98
  -9   1   1  153.15   19.15
  -9   1   2  786.69   40.54
  -9   1   3  348.51   31.33
  -9   1   3  343.07   25.15
  -9   1   4  441.00   35.60
  -9   1   4  463.17   27.18
  -9   1   5  373.87   33.15
  -9   1   6  318.82   31.32
  -9   1   7  285.57   29.93
  -9   1   8  106.19   18.81
  -9   1   9  218.61   27.17
  -9   2  -6   32.31   11.32
  -9   2  -5  569.44   34.69
  -9   2  -5  552.30   44.52
  -9   2  -4   -0.76    5.51
  -9   2  -4    1.99    3.07
  -9   2  -3  641.90   44.84
  -9   2  -2    1.21    3.75
  -9   2  -1  334.93   30.30
  -9   2   0   -2.37    2.96
  -9   2   1  135.99   18.22
  -9   2   2    2.14    2.01
  -9   2   3   99.67   13.80
  -9   2   4    0.59    1.91
  -9   2   5   20.77    8.66
  -9   2   5   17.59    5.94
  -9   2   6  143.83   20.68
  -9   2   7    3.72    4.11
  -9   2   8   76.53   16.16
  -9   2   9    0.79    5.56
  -9   2  10  167.58   24.03
  -9   3  -7   58.93   15.20
  -9   3  -6   26.03   10.88
  -9   3  -5   72.18   16.12
  -9   3  -4   54.45   13.88
  -9   3  -3   32.82   10.15
  -9   3  -2  263.76   28.07
  -9   3  -1  118.03   17.98
  -9   3   0  530.30   36.48
  -9   3   1  284.62   26.03
  -9   3   2  495.86   32.69
  -9   3   3  377.63   26.98
  -9   3   4  614.04   32.42
  -9   3   4  625.05   36.02
  -9   3   5  546.23   27.92
  -9   3   5  591.29   34.28
  -9   3   6  290.46   29.65
  -9   3   6  291.56   23.16
  -9   3   7  360.87   33.74
  -9   3   8  114.45   19.15
  -9   3   9  701.82   47.90
  -9   3  10   74.80   16.19
  -9   4  -7  559.58   47.95
  -9   4  -6    5.90    4.60
  -9   4  -5  940.91   58.24
  -9   4  -4    8.71    5.45
  -9   4  -3 1291.15   63.42
  -9   4  -2   17.77    8.18
  -9   4  -1 1019.95   52.97
  -9   4   0  109.67   17.08
  -9   4   1  764.90   42.83
  -9   4   2   89.96   14.18
  -9   4   3  422.80   29.34
  -9   4   4  377.33   29.98
  -9   4   4  334.39   24.66
  -9   4   5  209.56   21.76
  -9   4   5  228.75   19.05
  -9   4   6  552.62   34.76
  -9   4   7   84.84   13.29
  -9   4   7   92.68   16.76
  -9   4   8  194.50   24.92
  -9   4   9    3.68    4.68
  -9   4  10  173.02   24.01
  -9   5  -6  414.06   39.97
  -9   5  -5   -1.18    4.45
  -9   5  -4  320.90   33.20
  -9   5  -3   -2.72    5.49
  -9   5  -2  225.18   25.99
  -9   5  -1   82.07   15.41
  -9   5   0  193.20   22.76
  -9   5   1  247.19   24.81
  -9   5   2  274.53   25.29
  -9   5   3   58.71   11.49
  -9   5   3   43.51   10.77
  -9   5   4    5.66    3.85
  -9   5   4   10.73    6.15
  -9   5   5   44.47   10.92
  -9   5   5   58.16   10.35
  -9   5   6   -1.96    2.51
  -9   5   7   -0.02    4.45
  -9   5   8   27.14    8.97
  -9   5   9   11.97    5.49
  -9   5  10    0.82    4.46
  -9   6  -6   14.19    6.34
  -9   6  -5    6.58    5.39
  -9   6  -4    4.00    4.63
  -9   6  -3   11.69    5.33
  -9   6  -2   12.91    6.86
  -9   6  -1    9.43    5.88
  -9   6   0  141.78   20.16
  -9   6   1  101.59   16.65
  -9   6   2  302.37   30.37
  -9   6   2  312.16   28.02
  -9   6   3    1.57    2.23
  -9   6   3   -1.68    3.81
  -9   6   4  310.22   30.12
  -9   6   4  246.64   23.52
  -9   6   5   25.97    7.99
  -9   6   5   12.71    7.03
  -9   6   6  401.62   33.96
  -9   6   7    4.08    4.53
  -9   6   8  572.86   42.83
  -9   6   8  650.67   42.90
  -9   6   9   21.59    9.12
  -9   6  10  725.78   49.00
  -9   7  -5   50.11   14.04
  -9   7  -4  741.93   52.78
  -9   7  -3  247.42   29.63
  -9   7  -2  780.97   51.01
  -9   7  -1  340.43   33.01
  -9   7   0  754.21   47.79
  -9   7   1  395.40   34.07
  -9   7   1  414.24   37.42
  -9   7   2  466.23   35.79
  -9   7   2  479.29   40.11
  -9   7   3  543.18   42.05
  -9   7   3  467.04   34.82
  -9   7   4  467.10   33.96
  -9   7   4  491.19   39.81
  -9   7   5  836.27   51.98
  -9   7   5  825.49   44.01
  -9   7   6  152.84   22.52
  -9   7   7  551.78   41.97
  -9   7   8   12.08    6.97
  -9   7   9  213.23   26.30
  -9   8  -4    3.44    3.16
  -9   8  -3  598.50   47.53
  -9   8  -2    7.47    6.66
  -9   8  -1  510.08   41.88
  -9   8   0   26.01    9.51
  -9   8   0   25.80    9.40
  -9   8   1  227.21   26.88
  -9   8   1  226.89   29.41
  -9   8   2  132.86   22.56
  -9   8   2  116.28   18.90
  -9   8   3   26.68    9.31
  -9   8   3   23.36    9.76
  -9   8   4   19.24    7.71
  -9   8   4   27.11    9.91
  -9   8   5   26.05   10.00
  -9   8   5   53.59   12.01
  -9   8   6   19.62    8.79
  -9   8   7   15.75    6.75
  -9   8   8   11.15    7.71
  -9   9  -3   -2.20    5.97
  -9   9  -2   27.12   10.92
  -9   9  -1    7.88    6.96
  -9   9  -1    4.41    7.90
  -9   9   0    3.19    5.97
  -9   9   0    7.52    4.83
  -9   9   1    3.84    6.55
  -9   9   1   11.74    7.84
  -9   9   2    6.32    4.22
  -9   9   2    0.90    5.45
  -9   9   3   83.72   19.10
  -9   9   3   78.83   16.29
  -9   9   4    2.57    4.73
  -9   9   4    5.52    6.82
  -9   9   5   20.14    9.11
  -9   9   6   -3.44    4.64
  -9   9   7  252.41   32.12
  -9  10  -1   67.18   17.08
  -9  10   0  261.12   32.17
  -9  10   1  135.11   22.97
  -9  10   2  380.58   38.27
  -9  10   3   84.29   19.00
  -9  10   4  761.86   52.46
  -8  -7   2  222.43   25.01
  -8  -7   3  194.65   25.24
  -8  -7   3  198.72   24.12
  -8  -7   4  638.62   47.02
  -8  -6   0  521.89   34.93
  -8  -6   1  167.74   20.87
  -8  -6   2  293.82   28.41
  -8  -6   2  259.36   26.43
  -8  -6   3  272.62   28.59
  -8  -6   3  255.91   27.24
  -8  -6   4  280.87   29.21
  -8  -6   4  224.85   27.12
  -8  -6   5  113.80   18.84
  -8  -6   5   66.74   15.34
  -8  -6   6   59.55   15.08
  -8  -5  -3   48.26   13.98
  -8  -5  -2   -3.05    4.83
  -8  -5  -1    7.87    5.42
  -8  -5  -1    4.31    2.14
  -8  -5   0   -0.33    4.54
  -8  -5   0    9.54    5.62
  -8  -5   1   10.22    7.54
  -8  -5   1    2.75    3.30
  -8  -5   1    2.67    4.06
  -8  -5   2    9.22    4.75
  -8  -5   2   13.39    6.01
  -8  -5   3   32.50    9.73
  -8  -5   3   16.41    6.39
  -8  -5   3   31.56   10.62
  -8  -5   4   21.47    7.65
  -8  -5   4   18.68    7.21
  -8  -5   5   51.30   13.11
  -8  -5   5   64.84   13.85
  -8  -5   6  115.49   19.47
  -8  -5   6  127.30   21.00
  -8  -4  -6   32.56   12.06
  -8  -4  -5   -2.63    5.23
  -8  -4  -4  220.08   29.09
  -8  -4  -3   30.21   10.77
  -8  -4  -2  367.31   35.97
  -8  -4  -2  372.54   27.83
  -8  -4  -1   44.26   10.29
  -8  -4  -1   29.33   10.66
  -8  -4   0  109.02   19.45
  -8  -4   0  116.29   16.22
  -8  -4   0  128.47   15.82
  -8  -4   1  476.80   40.14
  -8  -4   1  490.13   34.57
  -8  -4   1  455.42   31.47
  -8  -4   2  373.91   29.76
  -8  -4   2  354.13   34.62
  -8  -4   2  375.02   31.10
  -8  -4   3  523.96   37.38
  -8  -4   4  121.80   18.85
  -8  -4   5  724.97   45.70
  -8  -4   6   17.57    8.55
  -8  -4   7  793.93   50.25
  -8  -4   8    9.91    6.19
  -8  -3  -7  720.99   52.88
  -8  -3  -6   14.35    7.46
  -8  -3  -5  642.45   47.04
  -8  -3  -4   70.87   15.44
  -8  -3  -3  620.47   44.86
  -8  -3  -3  636.16   35.66
  -8  -3  -2  549.77   33.98
  -8  -3  -2  588.09   43.02
  -8  -3  -1 1153.58   43.06
  -8  -3  -1 1177.44   60.44
  -8  -3  -1 1082.11   48.91
  -8  -3   0  536.24   35.36
  -8  -3   0  594.72   42.91
  -8  -3   1  480.92   34.15
  -8  -3   1  463.43   38.03
  -8  -3   2  533.92   41.01
  -8  -3   2  583.72   37.96
  -8  -3   3  324.71   29.15
  -8  -3   4  757.70   45.10
  -8  -3   5  116.42   18.07
  -8  -3   6  578.48   41.25
  -8  -3   7   16.36    7.28
  -8  -3   8  625.18   44.97
  -8  -3   9   34.73   10.56
  -8  -2  -9   26.64   11.48
  -8  -2  -8  531.10   44.06
  -8  -2  -7   -1.57    6.31
  -8  -2  -6  547.98   41.98
  -8  -2  -5    0.21    3.36
  -8  -2  -5    4.95    4.44
  -8  -2  -4  523.32   39.49
  -8  -2  -4  557.07   33.18
  -8  -2  -3   13.87    5.93
  -8  -2  -3   17.85    7.51
  -8  -2  -2  361.16   27.85
  -8  -2  -2  363.15   32.30
  -8  -2  -1   -0.33    4.37
  -8  -2  -1    0.89    2.23
  -8  -2   0   57.99   11.48
  -8  -2   0   60.60   13.13
  -8  -2   1    5.60    4.09
  -8  -2   1    5.83    4.34
  -8  -2   2   44.68   10.59
  -8  -2   3    0.63    2.23
  -8  -2   4    9.97    6.20
  -8  -2   5  137.72   19.48
  -8  -2   6    2.74    4.88
  -8  -2   7  281.93   28.90
  -8  -2   8    2.65    6.07
  -8  -2   9  332.07   32.91
  -8  -1  -9   -1.81    5.81
  -8  -1  -8   17.20    8.38
  -8  -1  -7   46.58   12.05
  -8  -1  -7   38.99   12.37
  -8  -1  -6   23.24   10.17
  -8  -1  -6   12.95    6.45
  -8  -1  -5  166.73   24.62
  -8  -1  -5  145.82   20.06
  -8  -1  -4   56.65   13.57
  -8  -1  -4   64.70   13.17
  -8  -1  -3  255.55   25.51
  -8  -1  -3  243.56   27.38
  -8  -1  -2   75.45   13.88
  -8  -1  -2   71.73   14.65
  -8  -1  -1  482.67   34.80
  -8  -1  -1  465.54   35.10
  -8  -1  -1  459.21   31.99
  -8  -1   0  306.02   26.32
  -8  -1   0  321.89   28.54
  -8  -1   1  416.33   31.23
  -8  -1   1  389.36   27.59
  -8  -1   2  787.10   36.82
  -8  -1   2  827.22   44.62
  -8  -1   3  267.28   25.58
  -8  -1   3  276.32   20.07
  -8  -1   4  559.92   37.96
  -8  -1   5  122.62   18.41
  -8  -1   6  797.62   47.18
  -8  -1   7   53.50   12.53
  -8  -1   8  479.35   38.02
  -8  -1   9   14.89    6.78
  -8  -1  10  403.37   36.61
  -8   0  -8  494.44   36.59
  -8   0  -8  394.65   40.46
  -8   0  -7    0.37    6.41
  -8   0  -7    8.76    4.56
  -8   0  -6  710.41   49.90
  -8   0  -6  639.40   39.99
  -8   0  -5   78.79   16.37
  -8   0  -5   64.51   12.51
  -8   0  -4  869.14   44.93
  -8   0  -4  867.36   51.57
  -8   0  -3  198.65   24.08
  -8   0  -3  149.92   18.32
  -8   0  -2  615.28   37.30
  -8   0  -2  610.69   40.31
  -8   0  -1  570.67   36.24
  -8   0  -1  583.78   37.82
  -8   0   0  418.95   30.75
  -8   0   1  637.35   35.29
  -8   0   1  640.69   36.20
  -8   0   2  192.96   18.91
  -8   0   2  229.48   23.43
  -8   0   2  206.73   19.09
  -8   0   3  740.52   42.64
  -8   0   3  806.35   34.89
  -8   0   4   38.29    7.11
  -8   0   4   45.13   10.96
  -8   0   5 1333.08   59.13
  -8   0   5 1292.45   35.88
  -8   0   6   31.87    9.70
  -8   0   7  554.24   39.14
  -8   0   8   44.22   11.60
  -8   0   9  377.98   33.93
  -8   0  10  201.07   25.64
  -8   0  11  263.05   29.60
  -8   1  -8   13.27    7.83
  -8   1  -7  597.97   36.55
  -8   1  -7  586.69   46.38
  -8   1  -6  169.48   24.40
  -8   1  -6  141.98   17.44
  -8   1  -5  605.45   44.00
  -8   1  -5  549.16   33.70
  -8   1  -4  251.39   27.42
  -8   1  -4  248.73   22.50
  -8   1  -3  377.61   32.65
  -8   1  -3  394.93   28.19
  -8   1  -2  297.12   24.65
  -8   1  -2  275.18   26.72
  -8   1  -1  548.52   36.31
  -8   1   0  480.97   32.69
  -8   1   1   21.59    6.55
  -8   1   2  463.23   28.99
  -8   1   3   69.18   10.40
  -8   1   4   25.03    8.60
  -8   1   4   35.77    6.93
  -8   1   5    7.21    4.96
  -8   1   6   52.17   12.36
  -8   1   6   75.02    8.90
  -8   1   7   18.07    8.36
  -8   1   8   22.44    7.80
  -8   1   9   71.72   14.46
  -8   1  10   15.19    7.51
  -8   1  11  107.41   18.62
  -8   2  -8  116.33   21.31
  -8   2  -7   12.54    8.41
  -8   2  -6  103.55   13.69
  -8   2  -6  112.76   19.99
  -8   2  -5   29.20    7.36
  -8   2  -5   25.68    9.12
  -8   2  -4    8.54    3.38
  -8   2  -4   11.55    5.67
  -8   2  -3  126.04   14.85
  -8   2  -3  140.09   19.74
  -8   2  -2   79.12   14.01
  -8   2  -1  116.53   16.59
  -8   2   0   27.98    7.94
  -8   2   1  799.81   39.81
  -8   2   2   -0.50    1.66
  -8   2   3  631.94   31.60
  -8   2   4    5.00    3.52
  -8   2   5  568.96   25.04
  -8   2   5  606.75   39.36
  -8   2   6    9.99    2.90
  -8   2   6   11.02    6.37
  -8   2   7 1457.66   62.70
  -8   2   8  156.95   21.09
  -8   2   9  797.60   48.36
  -8   2  10  108.21   18.29
  -8   2  11  628.47   44.84
  -8   2  12  138.69   21.21
  -8   3  -8  128.88   22.23
  -8   3  -7 1029.18   60.67
  -8   3  -6   69.02   15.39
  -8   3  -5 1002.46   37.27
  -8   3  -5  921.15   53.40
  -8   3  -4  373.37   33.22
  -8   3  -3  694.65   43.04
  -8   3  -2  811.38   45.47
  -8   3  -1  380.69   30.14
  -8   3   0  773.21   41.05
  -8   3   1  717.42   37.79
  -8   3   2 1466.63   52.13
  -8   3   3   86.32   11.86
  -8   3   4 1495.35   52.68
  -8   3   4 1426.58   45.68
  -8   3   5    1.20    2.27
  -8   3   5    3.65    2.57
  -8   3   6 1004.13   31.08
  -8   3   6  975.54   40.94
  -8   3   6  966.04   50.41
  -8   3   7    9.77    4.70
  -8   3   7    9.65    6.27
  -8   3   8  584.19   30.51
  -8   3   8  554.29   39.48
  -8   3   9    3.84    4.75
  -8   3  10  301.72   29.88
  -8   3  11  127.79   19.85
  -8   3  12  103.56   17.90
  -8   4  -8  534.71   45.64
  -8   4  -7   32.74   11.21
  -8   4  -6  552.04   44.09
  -8   4  -5  117.98   19.11
  -8   4  -4  450.50   36.67
  -8   4  -3  430.31   34.59
  -8   4  -2  433.01   33.14
  -8   4  -1  412.48   31.59
  -8   4   0  235.34   22.79
  -8   4   1  490.63   31.79
  -8   4   2   91.40   13.17
  -8   4   3  370.99   25.64
  -8   4   4   78.89   12.90
  -8   4   4   91.33   11.98
  -8   4   5  223.25   17.92
  -8   4   5  204.38   20.65
  -8   4   6    9.07    3.40
  -8   4   6    7.06    4.36
  -8   4   7  104.06   14.49
  -8   4   7  128.82   18.56
  -8   4   8   15.76    6.86
  -8   4   8   39.21    8.98
  -8   4   9   17.84    8.06
  -8   4  10    3.32    4.06
  -8   4  11    3.52    5.24
  -8   4  12    6.37    3.41
  -8   5  -8   34.07   11.77
  -8   5  -7  137.79   22.52
  -8   5  -6   52.77   13.79
  -8   5  -5   88.43   16.64
  -8   5  -4   71.09   14.76
  -8   5  -3   -0.48    3.16
  -8   5  -2    1.03    4.41
  -8   5  -1   -6.90    4.49
  -8   5   0   17.71    6.21
  -8   5   1  184.55   20.27
  -8   5   2   80.71   12.72
  -8   5   3   26.74    8.94
  -8   5   3   30.10    7.54
  -8   5   4  305.29   23.52
  -8   5   4  314.78   27.67
  -8   5   5   20.65    7.19
  -8   5   5   20.77    6.10
  -8   5   6  438.06   25.37
  -8   5   6  449.98   32.81
  -8   5   7  151.29   18.83
  -8   5   8  347.10   28.54
  -8   5   8  316.63   29.73
  -8   5   9  336.71   28.24
  -8   5   9  349.46   31.89
  -8   5  10  204.00   24.38
  -8   5  11  290.75   29.11
  -8   6  -8   94.46   19.74
  -8   6  -7  114.49   21.60
  -8   6  -6   84.08   17.03
  -8   6  -5  377.78   35.88
  -8   6  -4  168.33   23.20
  -8   6  -3  788.66   48.79
  -8   6  -2  112.57   17.96
  -8   6  -1 1102.41   53.99
  -8   6   0   88.29   15.30
  -8   6   1 1546.02   60.40
  -8   6   2  303.25   28.93
  -8   6   2  352.92   28.52
  -8   6   3 1847.72   70.83
  -8   6   3 1730.11   60.72
  -8   6   4   92.17   15.56
  -8   6   4   79.76   12.76
  -8   6   5  993.02   51.86
  -8   6   5  942.64   42.25
  -8   6   6   36.81    7.75
  -8   6   6   36.51   10.13
  -8   6   7 1060.10   53.44
  -8   6   8   24.63    9.27
  -8   6   8   26.79    9.00
  -8   6   9  662.85   43.65
  -8   6   9  620.92   41.67
  -8   6  10  100.65   17.03
  -8   7  -7  810.84   57.38
  -8   7  -6  374.28   37.84
  -8   7  -5  776.88   52.63
  -8   7  -4  328.77   33.93
  -8   7  -3  748.89   48.83
  -8   7  -2  619.01   43.25
  -8   7  -1  274.24   28.56
  -8   7   0  493.90   36.70
  -8   7   1   42.15   11.08
  -8   7   1   51.84   12.95
  -8   7   2  454.70   33.73
  -8   7   2  528.56   40.42
  -8   7   3   63.36   12.36
  -8   7   3   84.08   16.05
  -8   7   4  197.33   24.63
  -8   7   4  203.16   21.61
  -8   7   5   28.58    9.71
  -8   7   5   19.98    6.82
  -8   7   6  139.21   20.63
  -8   7   6  126.79   16.51
  -8   7   7   19.72    8.69
  -8   7   8   16.55    7.81
  -8   7   9   -0.74    3.62
  -8   7   9    0.99    4.62
  -8   8  -6   90.48   19.42
  -8   8  -5    8.62    7.56
  -8   8  -4   10.98    6.52
  -8   8  -3   57.68   14.29
  -8   8  -2   -0.94    3.63
  -8   8  -1    1.30    4.36
  -8   8   0    6.92    5.20
  -8   8   0    7.00    7.77
  -8   8   1    4.44    3.38
  -8   8   1    5.16    3.42
  -8   8   2    2.99    4.05
  -8   8   2   -1.02    3.83
  -8   8   3    1.16    3.16
  -8   8   3    0.41    4.49
  -8   8   4   35.90   11.55
  -8   8   5  135.22   22.22
  -8   8   6   14.41    7.73
  -8   8   7   13.21    7.62
  -8   8   8   75.34   16.52
  -8   8   9   41.94   13.44
  -8   9  -5   53.35   15.34
  -8   9  -4   96.20   20.00
  -8   9  -3   12.34    6.66
  -8   9  -2  201.11   26.78
  -8   9  -1   15.21    8.91
  -8   9  -1   10.02    7.08
  -8   9   0  413.69   39.40
  -8   9   0  423.62   37.77
  -8   9   1   11.76    6.95
  -8   9   1    8.17    6.58
  -8   9   2  611.06   47.66
  -8   9   3   46.34   13.44
  -8   9   4  381.42   38.39
  -8   9   5  309.22   34.27
  -8   9   6  395.90   38.91
  -8   9   7  114.10   21.10
  -8   9   8  253.44   31.71
  -8  10  -3  694.32   54.72
  -8  10  -3  766.32   56.36
  -8  10  -2  130.24   22.84
  -8  10  -2  140.73   24.67
  -8  10  -1 1034.62   63.09
  -8  10  -1 1026.71   65.26
  -8  10   0   28.94   11.42
  -8  10   0   54.47   15.69
  -8  10   1  448.31   42.79
  -8  10   2   -1.53    5.71
  -8  10   3  718.14   55.21
  -8  10   4   -2.89    5.86
  -8  10   5  532.96   47.33
  -7  -8   3    3.14    5.97
  -7  -8   4  819.57   54.03
  -7  -7   0  170.51   26.31
  -7  -7   1  727.24   44.04
  -7  -7   1  665.73   51.41
  -7  -7   1  710.53   41.01
  -7  -7   2  110.26   16.91
  -7  -7   2  132.61   19.64
  -7  -7   2  118.02   21.64
  -7  -7   3  656.71   42.06
  -7  -7   3  583.01   48.16
  -7  -7   3  578.19   41.92
  -7  -7   4   47.48   12.00
  -7  -7   4   32.69   11.83
  -7  -7   4   45.46   12.70
  -7  -7   5  270.22   30.45
  -7  -7   5  315.91   30.82
  -7  -7   6    0.65    3.54
  -7  -7   6    3.66    3.81
  -7  -6  -3  105.13   20.26
  -7  -6  -2   17.88    7.85
  -7  -6  -1   62.39   11.07
  -7  -6  -1   31.53   11.69
  -7  -6   0   35.53    8.54
  -7  -6   0   20.11    9.19
  -7  -6   0   27.54    7.61
  -7  -6   1    7.56    5.01
  -7  -6   1    7.16    4.15
  -7  -6   1    4.11    3.77
  -7  -6   2   42.63   10.53
  -7  -6   2   41.80   12.75
  -7  -6   2   23.71    7.74
  -7  -6   3    6.02    4.85
  -7  -6   3    8.08    5.13
  -7  -6   3   11.24    7.45
  -7  -6   4   83.40   15.14
  -7  -6   4   74.06   15.51
  -7  -6   5   30.56    9.11
  -7  -6   5   36.88   11.10
  -7  -6   6   57.72   13.12
  -7  -6   6   58.59   14.51
  -7  -6   7   13.19    6.35
  -7  -6   7    5.99    4.74
  -7  -6   8  153.23   24.53
  -7  -5  -6   37.48   12.06
  -7  -5  -5   35.20   11.74
  -7  -5  -4  117.35   20.74
  -7  -5  -3   69.14   16.09
  -7  -5  -2   70.50   11.12
  -7  -5  -2   68.81   15.58
  -7  -5  -1  473.05   39.66
  -7  -5  -1  477.89   28.70
  -7  -5  -1  499.94   30.52
  -7  -5   0  214.88   26.74
  -7  -5   0  220.02   21.25
  -7  -5   0  240.41   21.73
  -7  -5   1  469.04   38.75
  -7  -5   1  429.66   30.40
  -7  -5   1  449.31   31.02
  -7  -5   2   28.64    9.67
  -7  -5   2   36.03    9.13
  -7  -5   2   19.09    6.78
  -7  -5   3  218.75   26.74
  -7  -5   3  221.77   23.68
  -7  -5   3  175.07   20.83
  -7  -5   4    4.30    3.21
  -7  -5   4   14.76    5.78
  -7  -5   5  679.95   42.68
  -7  -5   5  688.95   45.09
  -7  -5   6  105.62   17.84
  -7  -5   7  353.11   32.91
  -7  -5   8  158.37   22.29
  -7  -4  -8   75.24   17.50
  -7  -4  -7  343.46   35.69
  -7  -4  -6  186.24   26.25
  -7  -4  -5  459.85   39.49
  -7  -4  -4  743.27   49.15
  -7  -4  -3  170.93   23.30
  -7  -4  -3  172.20   16.85
  -7  -4  -2  625.33   33.12
  -7  -4  -2  609.60   43.10
  -7  -4  -1   83.54   15.98
  -7  -4  -1   78.32   12.31
  -7  -4  -1   85.15   11.75
  -7  -4   0  917.79   42.78
  -7  -4   0  976.83   41.50
  -7  -4   0  857.32   50.29
  -7  -4   1    8.07    3.86
  -7  -4   1   -0.51    2.97
  -7  -4   1    0.02    2.43
  -7  -4   1   -0.96    3.73
  -7  -4   2 1507.91   57.67
  -7  -4   2 1551.31   67.44
  -7  -4   3  137.27   20.14
  -7  -4   3  131.04   17.58
  -7  -4   4 1354.82   57.52
  -7  -4   5   90.32   15.32
  -7  -4   6  655.36   42.19
  -7  -4   7  237.85   26.40
  -7  -4   8  462.54   37.62
  -7  -4   9  238.66   27.38
  -7  -3  -9  125.54   22.17
  -7  -3  -8  475.40   41.08
  -7  -3  -7  195.42   25.29
  -7  -3  -6  301.29   31.12
  -7  -3  -5  485.75   38.37
  -7  -3  -5  500.92   27.21
  -7  -3  -4  363.00   32.65
  -7  -3  -4  371.70   24.02
  -7  -3  -3  368.38   24.92
  -7  -3  -3  341.88   30.76
  -7  -3  -3  352.59   17.35
  -7  -3  -2  130.01   15.06
  -7  -3  -2  129.99   18.96
  -7  -3  -1  803.99   38.81
  -7  -3  -1  880.65   48.35
  -7  -3   0   19.84    6.46
  -7  -3   0   20.73    7.61
  -7  -3   0   23.94    7.34
  -7  -3   1  340.00   26.42
  -7  -3   1  305.81   28.68
  -7  -3   1  357.85   25.37
  -7  -3   2   17.09    7.39
  -7  -3   2    8.48    5.48
  -7  -3   2    8.37    4.03
  -7  -3   3   20.73    5.25
  -7  -3   3   11.35    4.85
  -7  -3   4   28.40    8.38
  -7  -3   5   73.73   13.51
  -7  -3   6   12.60    6.18
  -7  -3   7    7.40    5.21
  -7  -3   8   99.09   17.32
  -7  -3   9   12.57    6.55
  -7  -3  10   57.42   13.63
  -7  -2 -10   18.89    9.88
  -7  -2  -9   10.33    6.54
  -7  -2  -8   -3.54    5.69
  -7  -2  -7   37.76   10.74
  -7  -2  -6    6.71    3.24
  -7  -2  -6    4.35    2.33
  -7  -2  -5    8.57    4.65
  -7  -2  -5   27.03    6.93
  -7  -2  -4   40.88    8.43
  -7  -2  -4   31.10    9.25
  -7  -2  -3  126.90   14.91
  -7  -2  -3  135.87   10.40
  -7  -2  -3  106.22   16.20
  -7  -2  -2  466.13   28.90
  -7  -2  -2  480.30   34.31
  -7  -2  -1    9.41    3.94
  -7  -2  -1    6.17    4.37
  -7  -2   0  309.72   24.58
  -7  -2   0  263.90   22.53
  -7  -2   0  285.92   26.18
  -7  -2   1   18.76    5.82
  -7  -2   1   23.00    8.01
  -7  -2   1   22.20    7.15
  -7  -2   2  677.04   37.60
  -7  -2   2  675.09   31.44
  -7  -2   2  699.87   41.53
  -7  -2   3    1.63    2.36
  -7  -2   3    3.16    2.00
  -7  -2   4  858.36   44.13
  -7  -2   4  915.95   27.38
  -7  -2   5   80.80    4.57
  -7  -2   5   95.96   14.91
  -7  -2   6  894.34   47.26
  -7  -2   7  263.38   26.15
  -7  -2   8  545.47   38.50
  -7  -2   9  216.74   24.88
  -7  -2  10  214.35   25.39
  -7  -2  11  534.43   41.09
  -7  -1 -10  290.38   30.46
  -7  -1  -9   45.56   11.81
  -7  -1  -9   30.90   11.49
  -7  -1  -8  271.94   32.09
  -7  -1  -8  254.23   26.44
  -7  -1  -7  367.01   30.88
  -7  -1  -7  366.25   35.74
  -7  -1  -6  775.10   50.04
  -7  -1  -6  666.38   40.55
  -7  -1  -5  389.00   30.24
  -7  -1  -5  353.78   33.04
  -7  -1  -4  171.44   19.70
  -7  -1  -4  185.89    8.67
  -7  -1  -4  197.14   23.77
  -7  -1  -3 1061.24   52.74
  -7  -1  -3 1016.65   47.05
  -7  -1  -2    2.44    3.14
  -7  -1  -2   10.77    4.42
  -7  -1  -1 1189.28   49.80
  -7  -1  -1 1163.14   51.13
  -7  -1  -1 1189.52   50.52
  -7  -1   0  206.29   21.16
  -7  -1   0  195.76   19.44
  -7  -1   0  211.42   21.04
  -7  -1   0  227.85   20.62
  -7  -1   1 2029.86   58.11
  -7  -1   1 2065.65   67.24
  -7  -1   1 1953.09   62.24
  -7  -1   2   94.76   14.84
  -7  -1   2  110.64   13.01
  -7  -1   3 1701.87   45.25
  -7  -1   3 1631.65   58.77
  -7  -1   4  316.38   26.57
  -7  -1   4  298.43   16.41
  -7  -1   5  713.70   19.73
  -7  -1   5  661.04   39.15
  -7  -1   5  696.42   19.51
  -7  -1   6  400.53   30.99
  -7  -1   7  394.77   31.54
  -7  -1   8 1031.46   52.28
  -7  -1   9  447.18   35.46
  -7  -1  10  274.31   28.26
  -7  -1  11   60.32   13.44
  -7  -1  12  352.85   33.65
  -7   0  -9  499.30   36.18
  -7   0  -9  483.02   42.99
  -7   0  -8  394.04   30.86
  -7   0  -8  330.82   34.44
  -7   0  -7  217.88   26.80
  -7   0  -7  214.97   22.02
  -7   0  -6  539.34   34.05
  -7   0  -6  594.83   42.77
  -7   0  -5  178.23   19.08
  -7   0  -5  210.22   24.69
  -7   0  -4 1155.21   48.05
  -7   0  -4 1138.46   55.31
  -7   0  -3  237.47   24.66
  -7   0  -3  264.67   22.53
  -7   0  -2 1816.16   58.65
  -7   0  -2 1663.65   62.07
  -7   0  -1   16.99    6.30
  -7   0  -1   27.86    7.38
  -7   0  -1   23.98    7.04
  -7   0   0  905.03   42.10
  -7   0   0  934.14   40.92
  -7   0   0  936.84   42.65
  -7   0   1    9.46    4.54
  -7   0   2  598.94   30.19
  -7   0   3   51.19    8.49
  -7   0   3   39.30    9.30
  -7   0   4  671.49   38.32
  -7   0   5   49.05   10.62
  -7   0   5   38.55    5.69
  -7   0   6  373.78   29.65
  -7   0   6  386.09   14.15
  -7   0   6  418.81   14.72
  -7   0   7   -0.07    3.21
  -7   0   8   43.63   10.58
  -7   0   9   14.18    6.46
  -7   0  10    7.61    5.61
  -7   0  11   44.87   11.83
  -7   0  12    7.79    4.78
  -7   0  13  115.18   19.75
  -7   1  -9   70.69   16.88
  -7   1  -9  100.98   15.35
  -7   1  -8  181.05   19.42
  -7   1  -8  157.70   23.84
  -7   1  -7  126.79   15.54
  -7   1  -7  114.20   19.40
  -7   1  -6  167.39   22.61
  -7   1  -6  149.71   16.51
  -7   1  -5   81.06   15.13
  -7   1  -5   89.16   12.59
  -7   1  -5   86.23    6.81
  -7   1  -4   32.66    7.60
  -7   1  -4   20.91    7.79
  -7   1  -3   10.57    4.90
  -7   1  -3    7.17    4.92
  -7   1  -2   46.16   10.56
  -7   1  -2   40.06    8.13
  -7   1  -1  245.18   22.34
  -7   1  -1  216.18   19.27
  -7   1   0  337.11   25.00
  -7   1   1    4.94    2.72
  -7   1   2   59.97    9.61
  -7   1   3  590.48   27.55
  -7   1   4  376.18   28.36
  -7   1   4  346.57   19.10
  -7   1   5  651.41   26.47
  -7   1   5  644.59   22.46
  -7   1   5  661.72   38.27
  -7   1   6  901.83   45.65
  -7   1   6  871.87   28.61
  -7   1   7  675.56   22.90
  -7   1   7  675.34   40.28
  -7   1   8  492.86   17.44
  -7   1   8  526.32   36.11
  -7   1   9  272.08   26.73
  -7   1  10  710.83   44.31
  -7   1  11  134.62   19.29
  -7   1  12  692.09   44.78
  -7   1  13   91.30   17.11
  -7   2 -10  176.96   26.81
  -7   2  -9  108.26   20.06
  -7   2  -8  162.81   23.60
  -7   2  -8  199.41   18.43
  -7   2  -7   84.59   11.77
  -7   2  -7  102.40   17.88
  -7   2  -6 1149.70   42.39
  -7   2  -6 1161.14   58.10
  -7   2  -5   88.83   11.40
  -7   2  -5   92.78   16.38
  -7   2  -4 1274.76   56.72
  -7   2  -4 1226.70   42.19
  -7   2  -3   93.49   11.66
  -7   2  -3   77.53   13.88
  -7   2  -2 1480.79   56.71
  -7   2  -1   45.39    9.78
  -7   2   0 2675.84   70.46
  -7   2   1   24.05    6.53
  -7   2   2 2409.90   60.28
  -7   2   3  254.23   18.36
  -7   2   4 1635.72   42.87
  -7   2   5  238.44   14.53
  -7   2   6 1040.26   24.51
  -7   2   6 1107.32   50.34
  -7   2   7  245.58   17.14
  -7   2   7  225.08   23.10
  -7   2   8  393.58   21.16
  -7   2   8  386.95   30.73
  -7   2   9  467.80   34.44
  -7   2  10  141.22   19.42
  -7   2  11  274.82   27.63
  -7   2  12   13.76    7.49
  -7   2  13  192.57   24.15
  -7   3 -10  501.71   44.78
  -7   3  -9  348.55   35.85
  -7   3  -8  793.85   52.11
  -7   3  -7  516.97   40.37
  -7   3  -7  541.79   25.91
  -7   3  -6  376.96   21.30
  -7   3  -6  383.37   33.77
  -7   3  -5  870.57   31.56
  -7   3  -5  842.91   48.01
  -7   3  -4  305.23   27.77
  -7   3  -4  322.73   19.06
  -7   3  -3 1319.23   55.40
  -7   3  -2   21.60    6.86
  -7   3  -1 1423.51   53.13
  -7   3   0   52.73    9.88
  -7   3   1  493.05   28.83
  -7   3   2    2.34    2.18
  -7   3   3  671.56   30.74
  -7   3   4  111.09   13.56
  -7   3   4  109.34   11.62
  -7   3   5   30.80    5.99
  -7   3   5   15.43    5.65
  -7   3   6  343.65   16.83
  -7   3   6    1.51    2.29
  -7   3   7   30.04    8.32
  -7   3   7   24.89    3.76
  -7   3   8   14.81    4.95
  -7   3   8  128.24   17.59
  -7   3   9    9.76    5.79
  -7   3   9    2.94    1.99
  -7   3  10   34.43    9.12
  -7   3  11   -3.15    4.07
  -7   3  12   24.85    8.62
  -7   3  13   22.67    7.93
  -7   4 -10  170.99   26.25
  -7   4  -9   61.36   15.06
  -7   4  -8  137.27   21.88
  -7   4  -7   24.30    9.07
  -7   4  -6  414.05   35.07
  -7   4  -5   13.15    5.90
  -7   4  -4  100.94   16.31
  -7   4  -3    4.01    3.86
  -7   4  -2   26.75    7.66
  -7   4  -1    0.29    1.94
  -7   4   0   21.28    6.67
  -7   4   1    1.54    1.47
  -7   4   2    3.97    2.38
  -7   4   3   11.11    4.30
  -7   4   3   -2.42    2.78
  -7   4   3    6.42    3.87
  -7   4   4   61.48    9.31
  -7   4   4   77.64   12.26
  -7   4   5   61.33    8.95
  -7   4   5   75.40   12.10
  -7   4   6    5.23    3.48
  -7   4   6    7.63    3.40
  -7   4   7  395.91   30.66
  -7   4   7  377.50   18.63
  -7   4   7  371.21   26.66
  -7   4   8   29.11    7.54
  -7   4   8   21.41    6.92
  -7   4   9  296.84   27.31
  -7   4   9  273.75   23.50
  -7   4  10   -1.53    3.63
  -7   4  10   12.74    6.25
  -7   4  11  477.29   35.46
  -7   4  12   -3.60    4.38
  -7   5  -9    3.63    3.23
  -7   5  -8   36.46   12.49
  -7   5  -7  187.05   24.65
  -7   5  -6   35.13   10.55
  -7   5  -5  356.07   31.86
  -7   5  -4    2.48    2.41
  -7   5  -3  398.23   31.58
  -7   5  -2   27.92    7.95
  -7   5  -1 1243.35   51.89
  -7   5   0  157.75   17.84
  -7   5   1 1227.53   48.75
  -7   5   1 1184.38   47.60
  -7   5   2  609.34   33.18
  -7   5   2  649.91   35.01
  -7   5   3  759.93   40.89
  -7   5   3  751.67   37.14
  -7   5   3  750.67   35.63
  -7   5   4  620.95   33.44
  -7   5   4  642.47   31.92
  -7   5   4  697.25   39.02
  -7   5   5  821.15   38.19
  -7   5   5  809.15   42.32
  -7   5   5  764.45   33.67
  -7   5   6  943.69   41.05
  -7   5   6  974.51   46.86
  -7   5   6  980.97   36.92
  -7   5   7  327.70   20.43
  -7   5   7  297.76   25.65
  -7   5   8  995.45   49.01
  -7   5   8 1000.17   48.24
  -7   5   9  179.89   20.89
  -7   5   9  156.26   19.66
  -7   5  10  721.99   42.12
  -7   5  10  678.32   41.18
  -7   5  11   56.86   12.24
  -7   6  -9  390.14   39.20
  -7   6  -8  818.00   54.52
  -7   6  -7  166.84   24.10
  -7   6  -6 1078.07   58.50
  -7   6  -5   96.02   17.34
  -7   6  -4 1620.60   68.62
  -7   6  -3   -1.48    3.46
  -7   6  -2 1759.72   66.38
  -7   6  -1    4.38    3.64
  -7   6   0 1329.00   54.18
  -7   6   1   52.85   10.13
  -7   6   1   85.94   13.76
  -7   6   2  545.92   31.47
  -7   6   2  517.05   32.39
  -7   6   2  544.40   37.08
  -7   6   3  469.87   34.29
  -7   6   3  410.07   28.09
  -7   6   3  415.96   26.82
  -7   6   4  920.62   39.21
  -7   6   4  904.50   47.66
  -7   6   5  173.93   21.24
  -7   6   5  184.74   17.44
  -7   6   6  176.12   17.05
  -7   6   6  186.51   21.86
  -7   6   7  141.76   19.31
  -7   6   8   43.60   10.27
  -7   6   8   53.14   12.33
  -7   6   9   75.61   13.54
  -7   6   9   63.37   13.15
  -7   6  10   15.03    7.14
  -7   6  10   13.59    7.66
  -7   7  -9  223.62   30.42
  -7   7  -8  129.06   22.46
  -7   7  -7  135.62   22.20
  -7   7  -6   84.59   17.02
  -7   7  -5  395.87   35.62
  -7   7  -4   15.78    7.64
  -7   7  -3   59.94   13.57
  -7   7  -2   -0.22    4.02
  -7   7  -1  107.83   16.95
  -7   7   0   94.32   13.70
  -7   7   0  109.89   16.53
  -7   7   1   76.56   14.64
  -7   7   1   72.71   11.28
  -7   7   1   79.54   13.72
  -7   7   2    7.23    3.59
  -7   7   2   21.63    8.30
  -7   7   3    6.68    3.93
  -7   7   3   -0.54    3.48
  -7   7   4    3.82    4.16
  -7   7   4    7.33    3.00
  -7   7   5    4.65    3.34
  -7   7   6   18.69    7.44
  -7   7   7   15.14    7.40
  -7   7   8   76.04   15.54
  -7   7   9    0.85    4.85
  -7   7   9    7.95    4.57
  -7   7  10   36.56   12.67
  -7   7  11   86.69   17.33
  -7   8  -8   -1.37    6.93
  -7   8  -7   -6.89    5.63
  -7   8  -6   25.24   10.29
  -7   8  -5   12.16    7.25
  -7   8  -4   93.35   17.67
  -7   8  -3    6.15    6.46
  -7   8  -2  132.88   20.12
  -7   8  -1  100.23   17.04
  -7   8   0  250.19   28.18
  -7   8   1  271.04   21.74
  -7   8   1  287.48   30.25
  -7   8   2  314.67   31.57
  -7   8   3  305.70   30.82
  -7   8   4   88.72   17.01
  -7   8   5  664.59   46.50
  -7   8   6   22.10    8.83
  -7   8   7  787.25   51.42
  -7   8   8    0.55    4.60
  -7   8   9  753.36   51.79
  -7   8  10   -3.24    5.06
  -7   9  -7  660.82   52.27
  -7   9  -6   24.88   10.73
  -7   9  -5  773.85   53.54
  -7   9  -4  102.58   19.13
  -7   9  -3 1013.16   59.35
  -7   9  -2  166.58   24.41
  -7   9  -2  156.46   24.16
  -7   9  -1  998.03   59.27
  -7   9   0  361.22   35.57
  -7   9   1  894.39   55.66
  -7   9   2  690.33   49.23
  -7   9   3  562.83   44.96
  -7   9   4  540.51   44.23
  -7   9   5  410.75   38.91
  -7   9   6  375.13   37.39
  -7   9   7  232.47   29.62
  -7   9   8  414.61   40.42
  -7   9   9   64.83   16.69
  -7  10  -5   16.47    8.32
  -7  10  -4  617.29   50.04
  -7  10  -4  560.30   46.83
  -7  10  -3    2.47    4.19
  -7  10  -3   -2.99    4.66
  -7  10  -2  360.20   37.85
  -7  10  -1    0.39    3.36
  -7  10   0  211.50   28.65
  -7  10   1    8.95    6.72
  -7  10   2   85.01   17.82
  -7  10   3   14.22    7.69
  -7  10   4   48.62   13.81
  -7  10   5   15.57    8.92
  -7  10   6    2.73    6.52
  -7  11  -2   40.96   13.13
  -7  11  -1  116.43   22.35
  -7  11   0   57.36   16.62
  -7  11   1  114.22   22.83
  -7  11   2  151.87   25.97
  -6  -8   0   41.47   13.00
  -6  -8   1 1206.65   68.11
  -6  -8   2  187.45   27.08
  -6  -8   3  556.49   46.74
  -6  -8   3  557.30   41.98
  -6  -8   4  142.15   23.74
  -6  -8   4  177.69   24.25
  -6  -8   5  574.28   44.45
  -6  -8   6  199.91   27.20
  -6  -7  -4  411.80   40.46
  -6  -7  -3    3.40    5.10
  -6  -7  -2  291.58   32.76
  -6  -7  -1  -10.86    6.57
  -6  -7   0   92.69   13.12
  -6  -7   0  100.14   19.03
  -6  -7   1    3.84    4.84
  -6  -7   1   -0.67    3.86
  -6  -7   1    3.14    2.54
  -6  -7   2    7.19    4.45
  -6  -7   2    4.63    3.37
  -6  -7   2   11.21    5.22
  -6  -7   3    4.66    4.08
  -6  -7   3    9.10    5.47
  -6  -7   3    8.66    4.84
  -6  -7   4    2.41    2.75
  -6  -7   4    6.07    5.35
  -6  -7   4    0.59    3.29
  -6  -7   5   -3.22    4.17
  -6  -7   5   -0.90    4.53
  -6  -7   6   16.94    7.11
  -6  -7   6   19.73    8.46
  -6  -7   7   15.25    7.53
  -6  -7   7    3.51    4.05
  -6  -7   8   14.04    7.44
  -6  -6  -6    6.68    7.23
  -6  -6  -5   22.57    9.34
  -6  -6  -4   88.43   17.85
  -6  -6  -3  151.75   22.40
  -6  -6  -2    0.97    1.99
  -6  -6  -2    6.37    5.67
  -6  -6  -1  211.82   26.37
  -6  -6  -1  193.66   17.76
  -6  -6   0   -1.90    2.31
  -6  -6   0   -2.51    1.76
  -6  -6   1  138.15   21.08
  -6  -6   1  138.46   16.41
  -6  -6   1  164.08   19.02
  -6  -6   2   27.90    8.34
  -6  -6   2   19.35    6.13
  -6  -6   2   26.60    9.68
  -6  -6   3  468.13   34.40
  -6  -6   3  379.42   29.12
  -6  -6   3  489.69   39.41
  -6  -6   4  198.65   25.43
  -6  -6   4  200.34   23.48
  -6  -6   4  227.38   23.36
  -6  -6   5  177.58   22.77
  -6  -6   5  224.11   23.99
  -6  -6   6  326.92   29.65
  -6  -6   6  321.92   31.77
  -6  -6   7  155.84   21.74
  -6  -6   7   98.07   18.54
  -6  -6   8  601.86   42.32
  -6  -6   8  640.70   48.20
  -6  -6   9   25.83    9.77
  -6  -6   9   13.79    9.03
  -6  -5  -8  233.28   30.11
  -6  -5  -7  114.12   19.97
  -6  -5  -6  480.90   40.48
  -6  -5  -5   48.61   12.57
  -6  -5  -4  514.93   40.29
  -6  -5  -3    2.11    1.91
  -6  -5  -3   -1.60    4.45
  -6  -5  -2 1024.98   38.68
  -6  -5  -2  992.74   54.08
  -6  -5  -1  108.88   17.73
  -6  -5  -1  126.50   14.24
  -6  -5  -1  120.76   13.95
  -6  -5   0  976.18   41.01
  -6  -5   0  978.68   41.68
  -6  -5   0  943.03   51.69
  -6  -5   1  771.37   38.96
  -6  -5   1  735.01   38.21
  -6  -5   1  718.34   36.74
  -6  -5   1  716.88   44.98
  -6  -5   2 1037.64   42.04
  -6  -5   2 1070.43   47.71
  -6  -5   2 1097.62   55.40
  -6  -5   2 1011.94   45.02
  -6  -5   3  834.07   42.04
  -6  -5   3  949.59   52.05
  -6  -5   3  827.97   43.63
  -6  -5   4  444.69   31.64
  -6  -5   4  441.10   32.98
  -6  -5   4  380.09   33.31
  -6  -5   5  969.01   48.61
  -6  -5   5 1071.36   54.14
  -6  -5   6  383.20   31.16
  -6  -5   7 1024.18   52.36
  -6  -5   8  102.19   17.66
  -6  -5   9  694.09   45.77
  -6  -5  10   69.11   14.85
  -6  -4  -9  676.14   49.88
  -6  -4  -8   91.40   18.07
  -6  -4  -7  900.48   53.82
  -6  -4  -6   13.83    6.84
  -6  -4  -5  987.12   54.05
  -6  -4  -4    9.94    4.21
  -6  -4  -4   13.17    3.97
  -6  -4  -3 1598.19   46.21
  -6  -4  -3 1639.41   66.60
  -6  -4  -2  323.30   21.94
  -6  -4  -2  273.94   26.89
  -6  -4  -1  882.45   47.57
  -6  -4  -1  861.17   36.96
  -6  -4   0   79.21   11.68
  -6  -4   0   77.34   14.04
  -6  -4   0   90.30   11.91
  -6  -4   0   92.97   13.79
  -6  -4   1  901.67   39.56
  -6  -4   1  915.31   48.03
  -6  -4   1  924.19   40.44
  -6  -4   1  931.49   41.26
  -6  -4   2   29.23    6.53
  -6  -4   2   37.08    8.51
  -6  -4   2   24.40    8.14
  -6  -4   3  505.84   36.03
  -6  -4   3  530.19   24.82
  -6  -4   3  495.33   31.83
  -6  -4   4   36.42    5.38
  -6  -4   4   49.69   10.38
  -6  -4   5   84.03   13.85
  -6  -4   6   11.71    5.36
  -6  -4   7   45.68   11.04
  -6  -4   8   36.38   10.84
  -6  -4   9    7.99    6.05
  -6  -4  10   46.15   11.81
  -6  -4  11   -2.72    4.02
  -6  -3 -10   37.49   12.10
  -6  -3  -9  195.02   25.41
  -6  -3  -8  167.78   23.08
  -6  -3  -7   71.39   14.70
  -6  -3  -6   42.18   11.04
  -6  -3  -5    2.23    2.36
  -6  -3  -5   -1.44    2.11
  -6  -3  -4   -5.49    4.14
  -6  -3  -4    1.40    2.77
  -6  -3  -3   94.52   11.44
  -6  -3  -3   81.67   13.98
  -6  -3  -2    3.91    3.18
  -6  -3  -2    9.00    5.33
  -6  -3  -2    2.82    1.72
  -6  -3  -1  577.69   34.28
  -6  -3  -1  597.30   30.58
  -6  -3  -1  544.15   35.15
  -6  -3   0  546.51   35.22
  -6  -3   0  633.51   32.45
  -6  -3   0  620.27   33.12
  -6  -3   1   52.38    9.10
  -6  -3   1   40.28    8.68
  -6  -3   1   35.08    9.15
  -6  -3   2  392.01   27.08
  -6  -3   2  420.53   31.20
  -6  -3   2  440.71   23.93
  -6  -3   3  290.49   26.17
  -6  -3   3  329.67   18.35
  -6  -3   3  355.92   26.29
  -6  -3   4  482.96   31.49
  -6  -3   4  460.80   17.26
  -6  -3   5  788.46   41.60
  -6  -3   6  375.49   29.25
  -6  -3   7  633.59   39.07
  -6  -3   8  108.80   16.44
  -6  -3   9  639.52   41.49
  -6  -3  10   16.01    7.42
  -6  -3  11  576.37   41.81
  -6  -3  12   14.78    7.12
  -6  -2 -11   96.42   18.35
  -6  -2 -10   26.98    9.09
  -6  -2  -9  298.91   30.02
  -6  -2  -8   91.42   15.91
  -6  -2  -7  645.86   41.08
  -6  -2  -6   -0.39    1.94
  -6  -2  -5 1007.17   47.92
  -6  -2  -4   24.04    7.22
  -6  -2  -3 1830.56   34.76
  -6  -2  -3 1744.34   49.71
  -6  -2  -2   48.72    8.61
  -6  -2  -2   54.24   10.65
  -6  -2  -1 2226.83   66.87
  -6  -2  -1 2141.36   57.77
  -6  -2  -1 2285.34   65.69
  -6  -2   0  521.85   28.97
  -6  -2   0  499.36   31.65
  -6  -2   0  502.39   29.13
  -6  -2   1 1049.67   46.31
  -6  -2   1 1035.12   38.64
  -6  -2   1 1018.17   41.95
  -6  -2   2  678.08   37.70
  -6  -2   2  720.59   29.41
  -6  -2   2  703.30   35.25
  -6  -2   3  838.67   39.78
  -6  -2   3  865.59   28.33
  -6  -2   4  934.28   43.00
  -6  -2   4  859.09   22.74
  -6  -2   5  360.33   27.32
  -6  -2   6 1006.35   46.57
  -6  -2   7   77.09   13.54
  -6  -2   8  886.67   46.12
  -6  -2   9   47.44   11.14
  -6  -2  10  949.38   50.27
  -6  -2  11   21.63    8.10
  -6  -2  12  423.75   35.69
  -6  -2  13   49.08   13.09
  -6  -1 -11  287.61   30.15
  -6  -1 -10  495.33   37.76
  -6  -1  -9   84.92   15.10
  -6  -1  -9   84.64   17.76
  -6  -1  -8  752.61   50.79
  -6  -1  -8  622.34   39.36
  -6  -1  -7  111.87   18.31
  -6  -1  -7   87.02   14.33
  -6  -1  -6 1382.87   62.70
  -6  -1  -6 1361.61   53.79
  -6  -1  -5    0.26    4.15
  -6  -1  -5    4.63    2.87
  -6  -1  -4 1505.06   53.44
  -6  -1  -4 1518.42   60.89
  -6  -1  -3   66.31   12.44
  -6  -1  -3   77.35   11.95
  -6  -1  -2  789.11   39.36
  -6  -1  -2  729.90   36.26
  -6  -1  -2  704.42   38.25
  -6  -1  -1  755.53   36.83
  -6  -1  -1  749.66   37.69
  -6  -1  -1  699.49   35.07
  -6  -1   0  870.14   36.93
  -6  -1   0  880.34   39.80
  -6  -1   0  927.92   40.11
  -6  -1   1  481.61   27.22
  -6  -1   1  490.70   28.70
  -6  -1   1  549.14   32.00
  -6  -1   1  486.14   25.80
  -6  -1   2  575.59   25.76
  -6  -1   2  538.04   30.68
  -6  -1   3  653.42   34.25
  -6  -1   3  635.27   24.22
  -6  -1   4   64.53   11.37
  -6  -1   4   75.75    7.12
  -6  -1   5  773.53   15.28
  -6  -1   5  820.85   15.79
  -6  -1   6   18.78    6.35
  -6  -1   7  487.07   32.73
  -6  -1   8   39.65    9.85
  -6  -1   9   52.96   11.25
  -6  -1  10   13.69    6.10
  -6  -1  11   14.91    7.20
  -6  -1  12   25.87    9.06
  -6  -1  13   18.85    6.21
  -6   0 -11  354.77   37.71
  -6   0 -11  418.34   34.22
  -6   0 -10   41.30    9.76
  -6   0 -10   49.27   13.76
  -6   0  -9  413.88   37.32
  -6   0  -9  419.70   31.23
  -6   0  -8   21.81    7.96
  -6   0  -8   23.10    7.29
  -6   0  -7  538.84   39.40
  -6   0  -7  546.79   32.84
  -6   0  -6    3.90    3.47
  -6   0  -6   -1.18    1.75
  -6   0  -5  133.89   15.17
  -6   0  -5  127.00   17.92
  -6   0  -4    2.90    2.97
  -6   0  -4   -0.69    2.06
  -6   0  -3  114.99   16.03
  -6   0  -3  127.51   14.29
  -6   0  -2    2.61    4.52
  -6   0  -2    0.08    2.16
  -6   0  -2    4.70    3.47
  -6   0  -1  147.35   15.42
  -6   0  -1  213.63   19.66
  -6   0   0    3.51    1.92
  -6   0   0    4.72    3.20
  -6   0   0    6.17    4.57
  -6   0   1   54.72   10.21
  -6   0   1   38.51    7.41
  -6   0   2   96.71   10.98
  -6   0   2  113.45   15.02
  -6   0   3    4.45    2.89
  -6   0   3    3.23    1.63
  -6   0   4  445.48   28.77
  -6   0   5   10.65    4.46
  -6   0   5   10.69    2.53
  -6   0   6  678.69   37.18
  -6   0   6  668.12   16.41
  -6   0   7    8.77    6.13
  -6   0   8 1110.99   49.65
  -6   0   9   -0.14    4.03
  -6   0  10  545.54   36.52
  -6   0  11   53.79   11.34
  -6   0  12  564.59   38.95
  -6   0  13  126.53   19.08
  -6   0  13  113.82   22.36
  -6   0  14  390.19   34.50
  -6   1 -11    8.22    6.43
  -6   1 -10   51.24   13.61
  -6   1 -10   32.33    8.49
  -6   1  -9   11.58    6.52
  -6   1  -9    8.91    4.47
  -6   1  -8  299.59   23.41
  -6   1  -8  307.90   31.03
  -6   1  -7   14.02    5.04
  -6   1  -7   19.76    7.35
  -6   1  -6  523.68   37.30
  -6   1  -6  484.78   27.34
  -6   1  -5    2.67    3.00
  -6   1  -5    0.80    0.92
  -6   1  -4  636.48   29.95
  -6   1  -4  579.03   36.37
  -6   1  -3  456.20   30.54
  -6   1  -3  403.71   23.49
  -6   1  -2 1560.59   46.28
  -6   1  -2 1634.87   55.26
  -6   1  -1  593.51   32.03
  -6   1  -1  552.42   27.82
  -6   1  -1  579.23   33.30
  -6   1   0 1491.39   52.97
  -6   1   0 1441.91   47.32
  -6   1   1 1326.86   49.75
  -6   1   1 1377.09   43.86
  -6   1   2  880.99   32.87
  -6   1   2  892.89   40.55
  -6   1   3 2008.35   60.92
  -6   1   3 1909.87   44.24
  -6   1   4  892.94   26.97
  -6   1   4  900.52   40.97
  -6   1   5 1374.47   35.37
  -6   1   5 1432.37   52.22
  -6   1   5 1316.28   26.80
  -6   1   6  211.81   13.24
  -6   1   6  174.89   18.72
  -6   1   7 1436.08   54.27
  -6   1   7 1425.44   32.85
  -6   1   8    2.60    1.32
  -6   1   8    2.77    3.37
  -6   1   9 1290.11   30.70
  -6   1   9 1345.16   55.20
  -6   1  10    4.44    3.07
  -6   1  11  489.40   34.79
  -6   1  11  412.56   36.75
  -6   1  12   47.01   13.39
  -6   1  12   55.44   12.42
  -6   1  13  259.39   32.54
  -6   1  13  328.60   29.69
  -6   1  14  142.50   20.37
  -6   2 -11  409.08   39.71
  -6   2 -10  183.82   25.47
  -6   2  -9 1141.06   43.19
  -6   2  -9 1044.96   58.18
  -6   2  -8   47.03   12.25
  -6   2  -8   43.21    8.16
  -6   2  -7 1243.88   40.89
  -6   2  -7 1231.63   58.55
  -6   2  -6   -0.28    1.74
  -6   2  -6    5.53    4.78
  -6   2  -6    3.55    1.69
  -6   2  -5 1900.16   47.78
  -6   2  -5 1978.06   68.55
  -6   2  -4  197.54   20.86
  -6   2  -4  243.32   16.68
  -6   2  -3 1662.47   43.49
  -6   2  -3 1557.72   55.67
  -6   2  -2  145.05   16.30
  -6   2  -2  194.55   19.60
  -6   2  -2  173.01   14.26
  -6   2  -1 1082.02   42.78
  -6   2  -1 1068.90   44.70
  -6   2   0  973.49   38.51
  -6   2   0  979.87   42.11
  -6   2   1  932.33   40.75
  -6   2   1  969.76   36.40
  -6   2   2  760.10   30.68
  -6   2   2  813.52   37.94
  -6   2   3   32.65    6.04
  -6   2   3   41.73    8.70
  -6   2   4 1027.91   42.56
  -6   2   4 1041.59   35.93
  -6   2   4 1069.29   30.89
  -6   2   5   51.83    9.89
  -6   2   5   50.29    6.00
  -6   2   5   45.50    7.45
  -6   2   6  692.96   17.63
  -6   2   6  735.84   29.38
  -6   2   7   -2.07    2.18
  -6   2   7    1.15    2.32
  -6   2   8  366.56   27.63
  -6   2   8  318.49   19.52
  -6   2   9   91.75   14.24
  -6   2  10  115.10   16.19
  -6   2  10   88.38   15.92
  -6   2  11    7.76    4.60
  -6   2  11   11.09    8.03
  -6   2  12   85.34   14.90
  -6   2  12   59.16   14.15
  -6   2  13    5.87    4.59
  -6   2  13    6.00    6.22
  -6   2  14   17.29    9.94
  -6   3 -11   64.01   16.11
  -6   3 -10  411.29   38.08
  -6   3  -9    7.19    5.13
  -6   3  -8  501.90   24.09
  -6   3  -8  423.17   36.06
  -6   3  -7   21.35    8.37
  -6   3  -7    8.05    3.07
  -6   3  -6  432.32   21.00
  -6   3  -6  399.00   19.66
  -6   3  -6  389.73   31.70
  -6   3  -5   86.76    9.01
  -6   3  -5   96.39   15.85
  -6   3  -4  326.44   16.85
  -6   3  -4  323.87   26.68
  -6   3  -3  344.04   26.22
  -6   3  -2  312.03   24.35
  -6   3  -2  300.64   24.12
  -6   3  -1   91.68   12.89
  -6   3  -1   88.49   12.24
  -6   3   0   21.53    5.94
  -6   3   0   30.01    7.50
  -6   3   1  131.22   14.91
  -6   3   1  153.82   14.78
  -6   3   2    2.80    1.92
  -6   3   2    3.21    3.55
  -6   3   3   71.58    9.12
  -6   3   3   76.49   11.36
  -6   3   4   37.20    7.94
  -6   3   4   28.32    5.43
  -6   3   5   15.75    3.85
  -6   3   5   20.83    6.45
  -6   3   6   23.88    6.70
  -6   3   6   17.03    3.64
  -6   3   7   95.45    7.41
  -6   3   7  107.98   14.60
  -6   3   8   41.03    3.38
  -6   3   8   42.36    9.41
  -6   3   8   38.00    3.25
  -6   3   9  180.07   20.79
  -6   3   9  167.15   16.71
  -6   3   9  178.33   19.60
  -6   3  10  174.27   21.92
  -6   3  10  218.66   19.45
  -6   3  10  191.31   20.70
  -6   3  11  137.12   17.88
  -6   3  11  120.18   19.32
  -6   3  12  235.19   28.44
  -6   3  12  235.72   23.99
  -6   3  13  282.85   32.78
  -6   3  13  283.32   26.60
  -6   3  14  116.49   22.90
  -6   4 -11   11.00    6.85
  -6   4 -10    5.66    5.25
  -6   4  -9    7.48    5.18
  -6   4  -8   29.44   10.32
  -6   4  -7   12.83    4.54
  -6   4  -7   23.81    8.43
  -6   4  -7   12.36    2.85
  -6   4  -6   61.71   12.68
  -6   4  -6   82.86   10.53
  -6   4  -6   70.80    6.20
  -6   4  -5   93.73   15.17
  -6   4  -4  112.10   16.03
  -6   4  -3  216.09   21.46
  -6   4  -2  565.51   33.43
  -6   4  -2  548.97   32.32
  -6   4  -1  121.85   14.97
  -6   4  -1  120.55   14.67
  -6   4   0  571.67   30.56
  -6   4   0  650.27   33.14
  -6   4   1  130.20   14.57
  -6   4   1  176.91   16.39
  -6   4   2 1740.70   52.87
  -6   4   2 1760.43   49.88
  -6   4   3   31.18    7.16
  -6   4   3   21.29    5.28
  -6   4   3   20.43    6.19
  -6   4   4 2808.93   65.89
  -6   4   4 2872.61   70.85
  -6   4   4 2834.87   58.97
  -6   4   5   -0.41    1.74
  -6   4   5    0.59    1.40
  -6   4   5    0.02    3.48
  -6   4   6 1843.26   54.63
  -6   4   6 1854.24   57.91
  -6   4   7    1.99    2.79
  -6   4   7    2.54    2.54
  -6   4   7    0.12    2.43
  -6   4   8 1624.65   57.34
  -6   4   8 1475.23   53.47
  -6   4   9  105.54   14.70
  -6   4   9   83.79   13.39
  -6   4   9   84.19   13.62
  -6   4  10 1455.07   56.26
  -6   4  10 1501.05   56.43
  -6   4  10 1353.10   58.76
  -6   4  11  118.67   16.66
  -6   4  11  129.80   17.15
  -6   4  11  118.41   18.63
  -6   4  12  377.13   35.07
  -6   4  12  557.44   35.55
  -6   4  13  123.13   21.01
  -6   5 -11   -0.85    5.12
  -6   5 -10  564.59   45.36
  -6   5  -9   45.63   12.35
  -6   5  -8 1363.55   65.21
  -6   5  -7  105.43   17.58
  -6   5  -7  109.15   13.64
  -6   5  -6 1335.50   60.51
  -6   5  -6 1313.64   46.91
  -6   5  -5  431.52   33.10
  -6   5  -5  434.97   27.17
  -6   5  -4 1773.36   64.69
  -6   5  -3  759.34   40.96
  -6   5  -2 1449.01   54.71
  -6   5  -2 1445.88   52.54
  -6   5  -1 1552.35   55.02
  -6   5  -1 1525.00   51.93
  -6   5   0 1023.32   42.90
  -6   5   0  982.56   40.28
  -6   5   1 2642.15   67.16
  -6   5   1 2650.17   64.50
  -6   5   2 1290.32   51.23
  -6   5   2 1305.40   44.34
  -6   5   3  960.59   44.42
  -6   5   3  955.02   37.58
  -6   5   4  279.66   20.05
  -6   5   4  299.57   24.66
  -6   5   5 1007.95   37.64
  -6   5   5  975.16   45.67
  -6   5   6   42.08    9.56
  -6   5   6   43.41    8.16
  -6   5   7  778.94   41.59
  -6   5   7  738.82   33.53
  -6   5   8   14.97    7.05
  -6   5   8   11.82    5.08
  -6   5   9  217.56   21.37
  -6   5   9  233.55   23.77
  -6   5   9  206.83   20.67
  -6   5  10   11.21    6.39
  -6   5  10    7.13    3.40
  -6   5  11    6.59    3.62
  -6   5  11    3.92    4.02
  -6   6 -10   18.52    9.19
  -6   6  -9  674.19   49.19
  -6   6  -8   17.15    8.62
  -6   6  -7  875.35   51.85
  -6   6  -6   31.81    9.79
  -6   6  -5 1022.81   52.42
  -6   6  -4   82.76   14.62
  -6   6  -3  439.84   32.44
  -6   6  -2  149.12   18.57
  -6   6  -2  112.91   14.83
  -6   6  -1  303.99   25.30
  -6   6  -1  291.94   22.63
  -6   6   0    3.35    3.09
  -6   6   1   47.49   10.35
  -6   6   1   65.82   10.11
  -6   6   2   32.02    6.83
  -6   6   2   41.06    9.70
  -6   6   3   16.32    6.28
  -6   6   3    4.36    2.81
  -6   6   4    3.57    3.23
  -6   6   4    5.11    2.69
  -6   6   5   11.66    5.00
  -6   6   5    4.44    1.35
  -6   6   6   55.68   11.65
  -6   6   6   57.85    8.82
  -6   6   7    0.23    3.29
  -6   6   8   57.74   11.37
  -6   6   8   55.94   12.85
  -6   6   9    3.42    3.35
  -6   6   9   -0.90    4.44
  -6   6  10   29.64    7.79
  -6   6  10   16.46    7.72
  -6   6  11   -4.40    5.50
  -6   6  12   16.79    7.73
  -6   7 -10   33.09   11.54
  -6   7  -9   -4.66    4.87
  -6   7  -8    2.90    2.57
  -6   7  -7   -2.70    4.31
  -6   7  -6   59.97   13.79
  -6   7  -5    8.94    5.33
  -6   7  -4   93.20   16.07
  -6   7  -3   47.04   11.10
  -6   7  -2   41.60   11.25
  -6   7  -2   55.41   10.65
  -6   7  -1  212.13   19.11
  -6   7   0  243.83   25.27
  -6   7   0  234.16   19.34
  -6   7   1  205.91   23.23
  -6   7   1  204.77   17.14
  -6   7   2   17.07    5.04
  -6   7   2   21.38    7.46
  -6   7   3  736.84   44.03
  -6   7   3  726.69   29.89
  -6   7   4   -0.63    5.26
  -6   7   4    0.15    1.86
  -6   7   5  523.39   37.78
  -6   7   5  615.36   25.45
  -6   7   6   10.73    6.79
  -6   7   7  346.03   31.50
  -6   7   8  151.60   21.31
  -6   7   9  464.60   38.57
  -6   7   9  496.80   31.96
  -6   7  10  287.80   31.00
  -6   7  11  414.35   38.09
  -6   7  12  411.29   39.22
  -6   8  -9  234.59   30.84
  -6   8  -8   71.65   16.53
  -6   8  -7  417.13   38.19
  -6   8  -6  168.70   23.49
  -6   8  -5  480.17   38.78
  -6   8  -4  535.19   40.32
  -6   8  -3  603.48   41.37
  -6   8  -2 1034.60   44.38
  -6   8  -1  292.82   22.53
  -6   8  -1  341.84   31.78
  -6   8   0  953.56   38.32
  -6   8   0 1015.27   54.53
  -6   8   1  148.49   20.89
  -6   8   1  124.31   13.27
  -6   8   2 1227.09   60.08
  -6   8   2 1172.67   37.40
  -6   8   3    3.77    4.42
  -6   8   4 1495.32   67.70
  -6   8   5    6.55    6.00
  -6   8   6 1173.23   60.71
  -6   8   7   48.83   13.30
  -6   8   8  569.67   43.89
  -6   8   9   34.97   12.00
  -6   8  10  312.84   34.36
  -6   8  11    7.17    5.21
  -6   9  -8  792.87   56.05
  -6   9  -7  103.60   19.59
  -6   9  -6  732.03   51.43
  -6   9  -5  247.73   29.34
  -6   9  -4  794.03   51.34
  -6   9  -3  208.64   26.56
  -6   9  -2  226.52   27.45
  -6   9  -1  448.83   38.70
  -6   9   0  219.31   26.67
  -6   9   1  362.46   34.81
  -6   9   2   90.91   17.49
  -6   9   3   96.10   18.18
  -6   9   4   36.77   12.00
  -6   9   5   66.36   15.71
  -6   9   6   46.16   12.63
  -6   9   7    4.57    6.72
  -6   9   8   23.84    9.19
  -6   9   9   -2.25    3.60
  -6  10  -6   21.57   10.04
  -6  10  -5    0.26    4.89
  -6  10  -4   -5.51    6.86
  -6  10  -3   20.07    8.34
  -6  10  -2   22.60    9.04
  -6  10  -1   10.80    6.07
  -6  10   0  201.79   27.06
  -6  10   1   16.80    9.01
  -6  10   2  103.02   20.41
  -6  10   3    1.09    5.89
  -6  10   4  272.33   32.57
  -6  10   5   -4.15    5.48
  -6  10   6  122.10   22.03
  -6  10   7   30.80   12.20
  -6  11  -5   94.32   19.99
  -6  11  -4  120.89   22.14
  -6  11  -3  263.32   32.91
  -6  11  -2  108.96   20.94
  -6  11  -1  395.35   40.21
  -6  11   0    5.24    5.31
  -6  11   1  544.95   47.51
  -6  11   2   14.59    8.75
  -6  11   3  510.64   46.01
  -6  11   4  104.81   21.55
  -5  -9   0  736.65   53.33
  -5  -9   1  268.05   32.09
  -5  -9   2  663.34   49.73
  -5  -9   3  206.02   28.09
  -5  -9   4  648.18   49.42
  -5  -9   5   22.16    9.11
  -5  -9   5   28.36   10.38
  -5  -9   6  731.53   53.34
  -5  -8  -4  568.69   46.42
  -5  -8  -3  143.22   22.74
  -5  -8  -2  357.50   35.87
  -5  -8  -1   85.17   17.54
  -5  -8   0  159.05   23.49
  -5  -8   1   67.96   14.97
  -5  -8   2   70.97   15.48
  -5  -8   3   56.40   12.68
  -5  -8   3   72.28   15.60
  -5  -8   4   24.04    9.12
  -5  -8   4    4.84    2.48
  -5  -8   5    3.45    3.95
  -5  -8   5    0.55    4.74
  -5  -8   6   33.42   10.89
  -5  -8   7    8.98    6.72
  -5  -8   8    3.55    6.09
  -5  -7  -6   10.44    5.97
  -5  -7  -5   31.66   10.29
  -5  -7  -4   76.38   15.81
  -5  -7  -3   15.29    8.15
  -5  -7  -2   11.99    6.61
  -5  -7  -1  101.56   18.24
  -5  -7   0   71.86   14.97
  -5  -7   1  237.80   27.02
  -5  -7   2  120.66   17.49
  -5  -7   2  140.70   16.67
  -5  -7   2  145.35   21.37
  -5  -7   3   93.08   14.24
  -5  -7   3   88.74   16.68
  -5  -7   3   80.47   14.83
  -5  -7   4  283.95   28.19
  -5  -7   4  319.02   27.03
  -5  -7   4  356.57   33.37
  -5  -7   5    4.66    5.34
  -5  -7   6  413.59   36.17
  -5  -7   7   -2.70    5.64
  -5  -7   8  523.20   43.43
  -5  -7   9   43.09   13.88
  -5  -6  -7    5.72    4.87
  -5  -6  -6  402.81   37.06
  -5  -6  -5   43.98   12.47
  -5  -6  -4  417.26   35.84
  -5  -6  -3  262.01   27.67
  -5  -6  -2  538.64   39.15
  -5  -6  -2  573.54   26.61
  -5  -6  -1  607.83   41.09
  -5  -6  -1  605.15   29.18
  -5  -6   0  204.04   17.82
  -5  -6   0  272.97   22.79
  -5  -6   0  238.51   25.56
  -5  -6   1 1208.26   45.55
  -5  -6   1 1167.37   56.56
  -5  -6   1 1345.80   52.72
  -5  -6   1 1198.82   49.34
  -5  -6   2   51.23   12.11
  -5  -6   2   50.77   10.69
  -5  -6   2   63.26   10.69
  -5  -6   2   39.00    8.42
  -5  -6   3 1251.97   49.98
  -5  -6   3 1268.36   54.58
  -5  -6   3 1333.60   44.82
  -5  -6   3 1302.02   59.43
  -5  -6   4   22.00    8.14
  -5  -6   4    0.69    2.70
  -5  -6   4   17.20    6.53
  -5  -6   5 1499.56   63.54
  -5  -6   5 1475.36   58.03
  -5  -6   6   15.28    7.05
  -5  -6   6   16.22    6.58
  -5  -6   7 1207.32   61.24
  -5  -6   7 1217.90   56.18
  -5  -6   8  144.17   19.68
  -5  -6   8  168.42   24.13
  -5  -6   9  551.99   44.84
  -5  -6  10  221.50   29.06
  -5  -5  -9  296.99   32.58
  -5  -5  -8   56.01   13.87
  -5  -5  -7  924.25   54.63
  -5  -5  -6  257.14   27.84
  -5  -5  -5 1070.71   55.26
  -5  -5  -4  736.57   25.10
  -5  -5  -4  716.75   43.91
  -5  -5  -3  481.41   35.20
  -5  -5  -3  443.78   21.54
  -5  -5  -2  697.37   42.12
  -5  -5  -2  773.84   30.42
  -5  -5  -1  645.72   40.25
  -5  -5  -1  605.97   28.52
  -5  -5   0  948.86   39.30
  -5  -5   0 1022.29   45.27
  -5  -5   0  898.50   46.98
  -5  -5   0  951.31   37.59
  -5  -5   1  216.46   19.93
  -5  -5   1  229.50   20.17
  -5  -5   1  251.86   20.21
  -5  -5   1  237.79   24.10
  -5  -5   2  838.03   45.17
  -5  -5   2  851.34   38.26
  -5  -5   2  887.14   36.77
  -5  -5   2  886.53   41.50
  -5  -5   3   46.88   10.83
  -5  -5   3   58.55   11.03
  -5  -5   3   45.84    9.18
  -5  -5   3   60.03    8.64
  -5  -5   4  668.36   39.13
  -5  -5   4  686.75   41.67
  -5  -5   4  665.29   36.44
  -5  -5   4  710.95   25.64
  -5  -5   5   45.55   10.84
  -5  -5   5   49.74   10.66
  -5  -5   6  143.51   18.06
  -5  -5   6  136.17   19.13
  -5  -5   7   -0.86    2.58
  -5  -5   8   95.18   15.70
  -5  -5   9    7.00    4.09
  -5  -5  10   -0.37    3.64
  -5  -5  10    3.85    4.81
  -5  -5  11   27.10   11.46
  -5  -4 -10  503.79   42.08
  -5  -4  -9    4.53    2.44
  -5  -4  -8  315.61   31.07
  -5  -4  -7   -2.84    3.37
  -5  -4  -6  238.84   25.34
  -5  -4  -5    3.49    1.29
  -5  -4  -5   -0.93    3.73
  -5  -4  -4   79.80    8.64
  -5  -4  -4   77.17   13.68
  -5  -4  -3   36.90    9.50
  -5  -4  -3   24.69    5.00
  -5  -4  -2    3.24    1.40
  -5  -4  -2    6.78    3.01
  -5  -4  -2    2.15    2.93
  -5  -4  -1   -0.17    1.91
  -5  -4  -1   -0.19    1.45
  -5  -4  -1   -1.90    3.60
  -5  -4   0    3.91    2.52
  -5  -4   0    5.10    2.05
  -5  -4   0    2.61    2.36
  -5  -4   0    0.13    1.42
  -5  -4   1  224.83   18.50
  -5  -4   1  228.39   18.93
  -5  -4   1  235.57   22.52
  -5  -4   1  250.28   19.61
  -5  -4   2   13.24    4.34
  -5  -4   2   15.27    4.85
  -5  -4   2   13.35    5.57
  -5  -4   3  681.01   34.65
  -5  -4   3  658.82   25.81
  -5  -4   3  693.51   39.08
  -5  -4   4   25.81    4.26
  -5  -4   4   20.04    6.28
  -5  -4   5  506.00   31.63
  -5  -4   6    3.32    3.05
  -5  -4   7  636.39   38.09
  -5  -4   8   67.24   12.93
  -5  -4   9  738.97   43.26
  -5  -4  10  197.41   23.52
  -5  -4  11  328.67   30.76
  -5  -3 -11   31.14   10.21
  -5  -3 -10   27.07    9.67
  -5  -3  -9  291.22   29.56
  -5  -3  -8   19.78    7.53
  -5  -3  -7  350.48   29.77
  -5  -3  -6   59.27   11.92
  -5  -3  -6   59.25    6.82
  -5  -3  -5  642.49   37.93
  -5  -3  -5  631.90   23.83
  -5  -3  -4  393.26   19.79
  -5  -3  -4  426.01   30.09
  -5  -3  -3  794.13   40.09
  -5  -3  -3  829.19   30.32
  -5  -3  -2  993.64   43.84
  -5  -3  -2  909.77   32.91
  -5  -3  -2  907.33   42.22
  -5  -3  -2  951.56   29.18
  -5  -3  -2  969.78   43.97
  -5  -3  -1  748.64   37.68
  -5  -3  -1  744.37   38.01
  -5  -3  -1  801.28   37.58
  -5  -3  -1  829.33   29.93
  -5  -3  -1  782.45   31.80
  -5  -3   0  929.10   35.57
  -5  -3   0  976.59   43.09
  -5  -3   0  958.79   38.41
  -5  -3   0  949.55   42.44
  -5  -3   1  373.21   26.80
  -5  -3   1  339.47   25.35
  -5  -3   1  336.89   21.23
  -5  -3   1  369.59   23.35
  -5  -3   2 1764.27   43.80
  -5  -3   2 1816.11   53.09
  -5  -3   2 1865.01   59.55
  -5  -3   2 1815.39   59.88
  -5  -3   3   64.37   10.43
  -5  -3   3   71.98    7.67
  -5  -3   3   63.18   11.45
  -5  -3   4 1424.46   49.91
  -5  -3   4 1334.11   25.12
  -5  -3   5  111.21   14.67
  -5  -3   6 1492.17   54.27
  -5  -3   7  129.62   16.73
  -5  -3   8 1235.42   52.86
  -5  -3   9  296.33   26.62
  -5  -3  10  446.86   33.68
  -5  -3  11  257.74   26.33
  -5  -3  12   94.75   16.80
  -5  -2 -12  436.32   38.34
  -5  -2 -11   22.02    8.77
  -5  -2 -10  612.11   41.77
  -5  -2  -9   11.57    6.39
  -5  -2  -8  815.43   44.66
  -5  -2  -7  233.48   23.07
  -5  -2  -6 1024.37   46.58
  -5  -2  -5  282.98   23.73
  -5  -2  -4  616.71   33.73
  -5  -2  -3 1291.96   25.73
  -5  -2  -3 1231.80   48.78
  -5  -2  -3 1227.55   50.66
  -5  -2  -3 1139.39   44.91
  -5  -2  -2  230.04   16.87
  -5  -2  -2  256.13   21.64
  -5  -2  -2  236.07   20.85
  -5  -2  -2  279.81   21.92
  -5  -2  -1 1642.74   45.59
  -5  -2  -1 1605.46   50.96
  -5  -2  -1 1565.91   53.07
  -5  -2  -1 1590.72   51.71
  -5  -2   0   25.14    5.98
  -5  -2   0   28.99    7.31
  -5  -2   0   33.18    6.97
  -5  -2   0   19.12    6.12
  -5  -2   1 2318.79   57.03
  -5  -2   1 2411.11   53.65
  -5  -2   1 2267.82   62.35
  -5  -2   1 2387.35   65.33
  -5  -2   2   12.05    4.62
  -5  -2   2   10.11    3.46
  -5  -2   2    4.59    3.73
  -5  -2   3 2294.38   39.78
  -5  -2   3 2261.56   59.58
  -5  -2   3 2170.82   62.94
  -5  -2   4   56.22    9.73
  -5  -2   4   59.99    4.67
  -5  -2   4   64.62   10.91
  -5  -2   5 1187.26   46.06
  -5  -2   6   61.17   11.30
  -5  -2   7  663.99   36.21
  -5  -2   8  238.46   22.41
  -5  -2   9  161.32   19.14
  -5  -2  10   61.52   12.35
  -5  -2  11   36.31   11.27
  -5  -2  11   42.31   10.70
  -5  -2  12    7.06    4.74
  -5  -2  12    4.08    5.29
  -5  -2  13   69.03   17.14
  -5  -2  13   90.63   16.09
  -5  -1 -13  508.34   41.04
  -5  -1 -12    4.03    6.06
  -5  -1 -11  373.27   32.09
  -5  -1 -10   92.89   18.23
  -5  -1 -10   69.11   13.40
  -5  -1  -9  550.68   35.97
  -5  -1  -9  527.70   41.09
  -5  -1  -8  167.56   22.34
  -5  -1  -8  162.58   18.82
  -5  -1  -7  432.97   29.27
  -5  -1  -7  434.46   34.32
  -5  -1  -6  309.27   23.86
  -5  -1  -6  323.94   28.19
  -5  -1  -5  217.51   22.21
  -5  -1  -5  201.64   18.52
  -5  -1  -4 1060.04   41.18
  -5  -1  -4 1017.44   46.78
  -5  -1  -4 1072.68   45.60
  -5  -1  -3  164.84   17.78
  -5  -1  -3  180.94   18.80
  -5  -1  -3  173.39   17.96
  -5  -1  -3  163.00   15.70
  -5  -1  -2  534.85   30.87
  -5  -1  -2  521.33   30.14
  -5  -1  -2  555.75   28.59
  -5  -1  -2  531.58   29.87
  -5  -1  -1  489.40   26.94
  -5  -1  -1  533.63   27.92
  -5  -1  -1  495.05   29.07
  -5  -1  -1  459.34   26.95
  -5  -1   0   30.96    6.87
  -5  -1   0   36.38    7.02
  -5  -1   0   24.20    6.29
  -5  -1   0   36.28    7.12
  -5  -1   1   19.10    5.33
  -5  -1   1   19.46    5.70
  -5  -1   1   13.69    4.48
  -5  -1   1   16.81    4.42
  -5  -1   1    1.04    1.66
  -5  -1   2  151.05   14.76
  -5  -1   2  142.47   11.37
  -5  -1   2  155.65   15.80
  -5  -1   3   63.82    6.52
  -5  -1   3   71.28   10.46
  -5  -1   4   58.99    9.87
  -5  -1   4   75.85   11.60
  -5  -1   4   70.77    5.60
  -5  -1   5   90.19   13.16
  -5  -1   5  127.40   14.77
  -5  -1   6  317.47   23.97
  -5  -1   7  233.74   21.31
  -5  -1   8  143.98   16.98
  -5  -1   9  312.50   25.71
  -5  -1   9  322.95   29.86
  -5  -1  10  310.81   26.60
  -5  -1  10  300.39   30.37
  -5  -1  11  374.61   35.42
  -5  -1  11  366.50   29.53
  -5  -1  12   98.48   19.01
  -5  -1  12  157.20   19.95
  -5  -1  13  352.22   37.55
  -5  -1  13  340.36   30.37
  -5   0 -12   55.92   14.39
  -5   0 -12   45.54   11.54
  -5   0 -11   -1.30    4.05
  -5   0 -11    8.74    5.59
  -5   0 -10   76.27   13.08
  -5   0 -10   53.16   13.66
  -5   0  -9   14.92    6.04
  -5   0  -9   20.90    8.81
  -5   0  -8   27.82    8.90
  -5   0  -8   23.69    6.88
  -5   0  -7    7.37    3.66
  -5   0  -7   13.07    7.37
  -5   0  -6    2.13    1.56
  -5   0  -6    1.71    2.05
  -5   0  -5  642.63   37.09
  -5   0  -5  651.23   30.50
  -5   0  -4   38.17    8.71
  -5   0  -4   44.70    9.52
  -5   0  -4   51.49   10.22
  -5   0  -4   37.83    7.25
  -5   0  -3 1235.80   46.88
  -5   0  -3 1276.05   47.40
  -5   0  -3 1195.52   46.50
  -5   0  -3 1157.79   38.73
  -5   0  -2  222.53   19.20
  -5   0  -2  225.48   16.91
  -5   0  -1 1472.69   43.38
  -5   0  -1 1591.36   48.88
  -5   0   0   32.00    6.64
  -5   0   0   23.86    5.84
  -5   0   1 3475.85   68.89
  -5   0   1 3579.29   64.24
  -5   0   2    3.10    2.33
  -5   0   3 3375.66   51.26
  -5   0   3 3499.37   74.77
  -5   0   3 3465.15   71.75
  -5   0   4   88.69   11.76
  -5   0   4   82.83    7.09
  -5   0   4   71.01   11.03
  -5   0   5 2727.11   68.74
  -5   0   5 2949.15   37.30
  -5   0   5 2831.73   68.14
  -5   0   6  235.54   20.27
  -5   0   6  231.66    9.00
  -5   0   6  242.42   20.92
  -5   0   7 1747.11   56.49
  -5   0   7 1386.62   20.36
  -5   0   8   67.38   12.50
  -5   0   8   60.75   10.88
  -5   0   9  851.19   46.87
  -5   0   9  923.58   43.11
  -5   0  10 1255.00   51.50
  -5   0  10 1182.43   58.44
  -5   0  11  466.63   32.56
  -5   0  11  381.16   34.84
  -5   0  12  409.34   38.13
  -5   0  12  404.01   31.21
  -5   0  13  101.79   19.99
  -5   0  13   89.02   15.39
  -5   0  14  244.19   32.57
  -5   0  14  200.48   23.27
  -5   1 -12   31.77   11.29
  -5   1 -11  853.56   43.55
  -5   1 -11  945.15   57.01
  -5   1 -10   64.82   14.59
  -5   1 -10   79.90   12.63
  -5   1  -9  827.73   49.49
  -5   1  -9  813.74   38.12
  -5   1  -8  513.10   28.90
  -5   1  -8  535.47   38.15
  -5   1  -7 1053.79   39.06
  -5   1  -7  990.80   49.53
  -5   1  -6 1116.69   50.08
  -5   1  -6 1032.38   37.12
  -5   1  -5 1671.73   44.83
  -5   1  -5 1722.69   26.66
  -5   1  -4 1583.19   41.93
  -5   1  -4 1585.52   54.77
  -5   1  -4 1571.33   54.10
  -5   1  -3 1255.08   47.00
  -5   1  -3 1243.08   36.66
  -5   1  -2 3008.44   68.72
  -5   1  -2 2915.49   55.93
  -5   1  -1  335.58   21.67
  -5   1  -1  332.60   19.11
  -5   1   0 2738.79   55.76
  -5   1   0 2683.02   57.91
  -5   1   1  210.97   17.82
  -5   1   1  207.14   15.19
  -5   1   2 2290.46   46.51
  -5   1   2 2197.49   57.47
  -5   1   3   93.53    8.58
  -5   1   3   93.39   11.92
  -5   1   4 1451.85   28.97
  -5   1   4 1427.33   34.56
  -5   1   4 1477.12   47.41
  -5   1   5  278.92    9.41
  -5   1   5  312.10   22.23
  -5   1   5  309.02   15.82
  -5   1   5  285.46   21.32
  -5   1   6  805.90   24.77
  -5   1   6  781.99   36.37
  -5   1   6  816.49   36.99
  -5   1   7  566.75   21.11
  -5   1   7  553.04   31.24
  -5   1   7  583.65   32.43
  -5   1   8  359.20   25.72
  -5   1   8  314.70   26.47
  -5   1   8  359.41   17.57
  -5   1   9  178.42   18.66
  -5   1   9  187.05   13.41
  -5   1   9  170.29   20.63
  -5   1  10   92.42   13.73
  -5   1  10   75.03   14.49
  -5   1  11  107.69   18.20
  -5   1  11   86.73   14.02
  -5   1  12   42.07    9.61
  -5   1  12   37.05   11.80
  -5   1  13   81.79   17.78
  -5   1  13  114.03   16.81
  -5   1  14   -1.10    4.03
  -5   1  14   -1.71    5.35
  -5   2 -12  628.52   48.15
  -5   2 -11   32.80   10.77
  -5   2 -11   37.05    8.72
  -5   2 -10  640.97   32.68
  -5   2 -10  596.27   43.05
  -5   2  -9  180.31   23.14
  -5   2  -9  186.20   16.67
  -5   2  -8  986.15   51.26
  -5   2  -8  978.31   36.04
  -5   2  -7  312.88   19.24
  -5   2  -7  331.65   28.59
  -5   2  -6  701.69   21.94
  -5   2  -6  674.14   39.38
  -5   2  -6  683.43   26.53
  -5   2  -5  416.75   20.12
  -5   2  -5  465.60   30.65
  -5   2  -5  472.93   18.78
  -5   2  -4  144.74   11.27
  -5   2  -4  136.02   16.19
  -5   2  -4  112.43   14.50
  -5   2  -3  458.96   28.08
  -5   2  -3  439.11   27.27
  -5   2  -3  479.61   20.23
  -5   2  -2   18.19    5.87
  -5   2  -2   23.58    4.64
  -5   2  -2   14.19    4.46
  -5   2  -1  572.81   29.38
  -5   2  -1  639.18   29.64
  -5   2   0   18.33    4.92
  -5   2   0   17.25    5.14
  -5   2   1  270.05   17.37
  -5   2   1  269.94   19.55
  -5   2   2  156.83   14.83
  -5   2   2  163.02   12.61
  -5   2   3  207.29   13.25
  -5   2   3  240.54   18.32
  -5   2   4   26.80    6.23
  -5   2   4   29.11    5.58
  -5   2   4   27.27    4.47
  -5   2   5    0.58    2.07
  -5   2   5    0.64    1.28
  -5   2   5    2.28    1.46
  -5   2   6   10.77    3.78
  -5   2   6    7.98    1.85
  -5   2   6   10.00    4.57
  -5   2   6   10.84    4.70
  -5   2   7   -0.71    2.48
  -5   2   7    0.31    1.65
  -5   2   7   -0.88    1.19
  -5   2   8  187.33   19.70
  -5   2   8  197.04   18.71
  -5   2   9    4.51    3.75
  -5   2   9    4.73    2.61
  -5   2  10   10.12    5.41
  -5   2  10    0.44    3.48
  -5   2  11   59.10   13.26
  -5   2  11   66.41   10.67
  -5   2  11   73.93   12.11
  -5   2  12  299.96   31.20
  -5   2  12  318.99   26.02
  -5   2  13   17.78    9.32
  -5   2  13    4.38    3.70
  -5   2  14  351.20   37.70
  -5   3 -12   -0.44    3.57
  -5   3 -11  150.79   23.85
  -5   3 -10   14.53    6.64
  -5   3 -10   17.27    4.84
  -5   3  -9   93.18   16.13
  -5   3  -9   63.16    8.69
  -5   3  -8    9.77    4.75
  -5   3  -8   18.72    4.44
  -5   3  -7   59.21   11.77
  -5   3  -7   64.58    7.54
  -5   3  -6    0.90    1.15
  -5   3  -6    1.12    1.36
  -5   3  -5    4.29    3.80
  -5   3  -5    6.90    2.64
  -5   3  -5    5.29    1.83
  -5   3  -4   11.76    4.90
  -5   3  -4   16.33    3.22
  -5   3  -4   14.50    5.33
  -5   3  -3    2.54    2.68
  -5   3  -3    3.04    2.44
  -5   3  -2  633.17   31.59
  -5   3  -2  586.77   30.38
  -5   3  -1   30.57    6.61
  -5   3  -1   36.68    7.46
  -5   3   0  877.39   33.91
  -5   3   0  942.31   36.28
  -5   3   1  146.37   14.11
  -5   3   1  147.48   13.19
  -5   3   2 1384.52   38.44
  -5   3   2 1413.52   42.87
  -5   3   3  475.50   21.45
  -5   3   3  467.21   24.54
  -5   3   4 1222.94   32.37
  -5   3   4 1274.46   40.87
  -5   3   5  349.55   21.80
  -5   3   6 1213.14   41.82
  -5   3   7  907.51   39.06
  -5   3   7  936.84   39.60
  -5   3   7  949.07   38.13
  -5   3   8  984.22   24.13
  -5   3   8  978.92   41.32
  -5   3   8  942.22   42.22
  -5   3   9 1038.47   43.33
  -5   3   9  941.52   45.14
  -5   3   9  934.39   21.58
  -5   3   9  976.57   40.79
  -5   3  10  447.05   28.92
  -5   3  10  406.57   31.53
  -5   3  10  449.50   29.10
  -5   3  11 1072.49   55.15
  -5   3  11 1128.15   48.05
  -5   3  12   71.82   12.73
  -5   3  12   65.56   11.79
  -5   3  12   70.83   15.09
  -5   3  13  476.04   40.88
  -5   3  14   14.71    8.39
  -5   4 -12  133.43   22.27
  -5   4 -11  135.89   21.75
  -5   4 -10  399.11   35.53
  -5   4  -9  210.85   24.96
  -5   4  -9  230.40   13.97
  -5   4  -8  359.68   15.63
  -5   4  -8  315.09   29.60
  -5   4  -7  918.40   35.37
  -5   4  -7  935.44   22.20
  -5   4  -7  908.34   47.58
  -5   4  -6  449.82   24.56
  -5   4  -6  461.19   32.96
  -5   4  -6  460.06   13.23
  -5   4  -5 1842.43   62.92
  -5   4  -5 1896.61   50.54
  -5   4  -4  475.67   30.05
  -5   4  -4  508.95   31.87
  -5   4  -3 2969.29   71.29
  -5   4  -3 2948.46   72.93
  -5   4  -2  138.42   14.68
  -5   4  -2  135.91   15.13
  -5   4  -1 2770.19   63.25
  -5   4  -1 2867.81   66.74
  -5   4   0   19.04    5.45
  -5   4   0   25.11    5.79
  -5   4   1 3449.01   66.90
  -5   4   1 3411.03   67.08
  -5   4   2   -1.25    2.24
  -5   4   2   20.07    5.19
  -5   4   3   27.63    7.60
  -5   4   3 2761.31   57.61
  -5   4   4   22.41    6.06
  -5   4   4  174.56   14.51
  -5   4   5 2377.06   54.22
  -5   4   5 2326.15   62.49
  -5   4   6  415.15   26.82
  -5   4   6  388.81   22.27
  -5   4   6  365.93   21.69
  -5   4   7  599.61   32.98
  -5   4   7  586.44   30.13
  -5   4   7  602.18   31.66
  -5   4   8  283.75   23.17
  -5   4   8  338.78   24.01
  -5   4   8  298.97   22.94
  -5   4   9  185.32   18.10
  -5   4   9  218.35   21.59
  -5   4   9  151.81   17.86
  -5   4   9  189.82   13.78
  -5   4  10  111.53   16.48
  -5   4  10  117.86   14.78
  -5   4  10  113.46   15.95
  -5   4  11  282.47   22.88
  -5   4  11  272.38   25.81
  -5   4  11  254.83   26.51
  -5   4  12  211.55   23.56
  -5   4  12  178.67   23.62
  -5   4  12  217.53   20.47
  -5   4  13   -0.23    5.48
  -5   4  14   46.35   12.88
  -5   5 -12  137.57   22.75
  -5   5 -11  867.00   55.78
  -5   5 -10  147.46   22.28
  -5   5  -9  957.83   53.94
  -5   5  -8  678.86   43.64
  -5   5  -7  898.02   38.73
  -5   5  -7  909.90   48.53
  -5   5  -6  484.68   34.53
  -5   5  -6  507.25   29.90
  -5   5  -6  508.85   28.79
  -5   5  -5  426.88   26.43
  -5   5  -5  365.65   28.69
  -5   5  -4  753.99   39.72
  -5   5  -4  695.59   37.09
  -5   5  -3  296.16   23.91
  -5   5  -3  293.69   22.60
  -5   5  -2 1400.74   46.86
  -5   5  -2 1388.01   50.14
  -5   5  -1   55.86    9.16
  -5   5  -1   54.90    9.94
  -5   5   0  320.94   20.55
  -5   5   1    0.61    1.31
  -5   5   2  143.74   16.38
  -5   5   2  138.22   12.72
  -5   5   3   60.14    8.13
  -5   5   3   61.26   10.72
  -5   5   4   28.58    5.56
  -5   5   4   35.88    8.47
  -5   5   5    3.29    2.17
  -5   5   5    3.33    2.31
  -5   5   6    2.41    2.35
  -5   5   6    0.45    1.83
  -5   5   6   -0.65    2.48
  -5   5   7   21.55    7.46
  -5   5   7   14.96    4.95
  -5   5   8    1.29    3.80
  -5   5   8   -1.09    2.51
  -5   5   8   -0.86    3.27
  -5   5   9   12.46    5.34
  -5   5   9    6.44    4.79
  -5   5   9    3.87    2.15
  -5   5  10    6.47    4.13
  -5   5  10    8.42    3.74
  -5   5  10    9.06    6.93
  -5   5  11    2.06    2.30
  -5   5  11   -1.39    1.79
  -5   5  11   -3.50    3.22
  -5   5  12   14.42    6.78
  -5   5  12   11.95    7.19
  -5   6 -12  122.81   22.10
  -5   6 -11   -0.94    4.91
  -5   6 -10   65.57   15.22
  -5   6  -9   20.00    8.49
  -5   6  -8   -4.64    4.74
  -5   6  -7   95.17   16.47
  -5   6  -6   -0.78    2.53
  -5   6  -6    6.29    4.82
  -5   6  -5    2.26    4.66
  -5   6  -5    4.09    2.87
  -5   6  -5    3.58    3.99
  -5   6  -4   23.94    7.62
  -5   6  -3   67.73   12.13
  -5   6  -3   56.45   10.04
  -5   6  -2  124.10   14.26
  -5   6  -1  201.64   16.96
  -5   6   0    4.44    2.34
  -5   6   1   53.63    7.87
  -5   6   1   60.85   11.42
  -5   6   2    4.37    2.43
  -5   6   2    4.44    3.47
  -5   6   3  175.12   13.09
  -5   6   3  148.34   18.21
  -5   6   4  235.91   22.98
  -5   6   4  242.56   14.95
  -5   6   5  184.22   20.71
  -5   6   5  195.83   13.48
  -5   6   6  230.96   23.38
  -5   6   6  214.50   14.16
  -5   6   7  260.57   25.58
  -5   6   7  317.39   19.80
  -5   6   8  614.80   30.86
  -5   6   8  589.06   39.08
  -5   6   8  610.63   32.29
  -5   6   9   31.87    9.58
  -5   6   9   20.77    6.42
  -5   6   9   27.01    6.48
  -5   6  10  777.69   41.07
  -5   6  10  804.21   36.82
  -5   6  10  721.97   46.11
  -5   6  11    2.08    5.29
  -5   6  12  412.59   37.50
  -5   6  13   -0.29    4.81
  -5   7 -11   31.21   10.86
  -5   7 -10   35.78   12.25
  -5   7  -9  112.65   19.87
  -5   7  -8  106.59   18.51
  -5   7  -7  210.90   25.05
  -5   7  -6  632.97   32.60
  -5   7  -6  617.07   41.40
  -5   7  -5   11.39    3.43
  -5   7  -5   14.49    6.49
  -5   7  -4  694.11   27.52
  -5   7  -4  702.58   41.79
  -5   7  -3    3.19    2.70
  -5   7  -2  608.38   31.42
  -5   7  -1   62.61    9.72
  -5   7   0 1662.99   63.10
  -5   7   0 1591.52   44.99
  -5   7   1  746.85   28.67
  -5   7   1  816.13   44.44
  -5   7   2 2381.66   76.48
  -5   7   2 2252.99   46.22
  -5   7   3  339.78   29.17
  -5   7   3  359.92   17.11
  -5   7   4  814.57   24.18
  -5   7   4  853.20   46.68
  -5   7   5 1023.64   52.30
  -5   7   6  700.64   43.52
  -5   7   7 1043.94   33.28
  -5   7   7  980.36   52.93
  -5   7   8  356.13   32.76
  -5   7   9  508.70   40.16
  -5   7   9  509.55   29.08
  -5   7  10  139.21   21.74
  -5   7  11  378.70   37.25
  -5   7  12   83.71   18.56
  -5   8 -10  241.26   30.22
  -5   8  -9  562.52   44.89
  -5   8  -8  213.17   26.92
  -5   8  -7 1039.95   57.64
  -5   8  -6  160.73   22.13
  -5   8  -5 1044.70   55.34
  -5   8  -5 1085.26   38.05
  -5   8  -4   39.91    6.60
  -5   8  -3 2128.93   62.92
  -5   8  -2   -0.73    2.21
  -5   8  -2    3.48    4.00
  -5   8  -1 2118.34   76.00
  -5   8  -1 1912.42   51.69
  -5   8   0    5.14    4.22
  -5   8   0   16.89    4.71
  -5   8   1  644.19   42.05
  -5   8   1  585.10   24.28
  -5   8   2    9.76    2.59
  -5   8   2    3.49    3.33
  -5   8   3  919.44   51.77
  -5   8   3  859.32   22.01
  -5   8   4   56.77   13.29
  -5   8   5  253.76   27.43
  -5   8   6    1.98    3.04
  -5   8   7  170.29   23.77
  -5   8   8   -0.27    5.27
  -5   8   9   -4.39    7.31
  -5   8  10   27.86   10.94
  -5   8  11    5.93    6.16
  -5   9  -9  353.00   36.89
  -5   9  -8   66.37   15.68
  -5   9  -7  121.25   20.41
  -5   9  -6  256.38   29.18
  -5   9  -5   -0.48    3.67
  -5   9  -3  138.49   20.88
  -5   9  -3  129.37   15.58
  -5   9  -2    7.53    4.79
  -5   9  -2    5.90    3.66
  -5   9  -1   96.20   17.00
  -5   9  -1  106.28   12.12
  -5   9   0   26.24    9.16
  -5   9   0   28.78    5.65
  -5   9   1   17.87    7.94
  -5   9   2   91.58   17.26
  -5   9   3   99.70   17.93
  -5   9   4  290.77   31.20
  -5   9   5  180.72   24.91
  -5   9   6  176.21   24.99
  -5   9   7  118.05   20.81
  -5   9   8   47.25   13.24
  -5   9   9  250.18   31.76
  -5  10  -8   39.36   12.74
  -5  10  -7  192.87   27.35
  -5  10  -6    5.23    5.38
  -5  10  -6    8.78    5.12
  -5  10  -5  473.04   41.64
  -5  10  -4   -5.58    5.03
  -5  10  -3  430.83   38.39
  -5  10  -2   19.41    8.95
  -5  10  -1  774.54   51.74
  -5  10   0   25.28   10.56
  -5  10   1  779.25   52.51
  -5  10   2  303.27   33.01
  -5  10   3  327.26   34.67
  -5  10   4  226.95   29.13
  -5  10   5  215.78   28.52
  -5  10   6  556.81   46.81
  -5  10   7   64.13   16.76
  -5  11  -7   45.66   13.86
  -5  11  -6  521.26   46.00
  -5  11  -5   78.21   17.52
  -5  11  -4  938.73   59.69
  -5  11  -3   41.78   13.32
  -5  11  -2  541.34   45.23
  -5  11  -1  109.83   20.36
  -5  11   0  612.16   48.76
  -5  11   1   71.70   17.19
  -5  11   2  394.98   39.50
  -5  11   3  163.13   25.78
  -5  11   4  330.92   37.09
  -5  11   5  208.88   30.29
  -5  12  -4   -4.76    7.89
  -5  12  -3   52.51   15.73
  -5  12  -2   85.84   18.96
  -5  12  -1  142.67   24.97
  -5  12   0   -4.12    8.71
  -4 -10   0  829.73   56.09
  -4 -10   1    7.49    6.45
  -4 -10   2  836.36   55.56
  -4 -10   3   38.20   12.17
  -4 -10   4  727.83   52.16
  -4 -10   5  169.30   25.26
  -4  -9  -3  507.45   43.26
  -4  -9  -2  127.33   21.47
  -4  -9  -1  429.93   38.53
  -4  -9   0   40.19   12.32
  -4  -9   1  417.83   37.56
  -4  -9   2    9.10    4.66
  -4  -9   3  281.99   30.61
  -4  -9   4   15.57    7.60
  -4  -9   5  191.55   25.11
  -4  -9   6   53.41   14.56
  -4  -9   7    1.57    5.42
  -4  -8  -5    8.83    5.07
  -4  -8  -4    2.28    5.56
  -4  -8  -3    6.04    4.80
  -4  -8  -2   14.50    6.43
  -4  -8  -1   25.62    9.55
  -4  -8   0   10.09    6.55
  -4  -8   1    9.18    5.36
  -4  -8   2  178.18   23.10
  -4  -8   3    5.65    5.31
  -4  -8   3    5.47    4.74
  -4  -8   4  494.23   38.22
  -4  -8   4  477.12   37.63
  -4  -8   5   22.00    8.64
  -4  -8   5   10.15    6.27
  -4  -8   6  218.11   26.87
  -4  -8   7  129.72   21.26
  -4  -8   8  190.68   26.87
  -4  -8   9  151.88   24.53
  -4  -7  -7   80.45   16.89
  -4  -7  -6   97.52   18.24
  -4  -7  -5  215.63   26.32
  -4  -7  -4  207.66   25.19
  -4  -7  -3  376.56   32.91
  -4  -7  -2    5.07    5.11
  -4  -7  -2    2.78    2.98
  -4  -7  -1  997.98   51.86
  -4  -7  -1  882.06   39.87
  -4  -7   0    2.27    2.83
  -4  -7   1 1023.57   47.59
  -4  -7   1  999.50   51.48
  -4  -7   2  104.09   16.82
  -4  -7   2   93.47   14.77
  -4  -7   2   92.30   13.64
  -4  -7   3 1248.47   46.66
  -4  -7   3 1174.97   53.77
  -4  -7   3 1199.66   56.16
  -4  -7   4  340.17   30.15
  -4  -7   4  258.53   25.95
  -4  -7   5  519.94   37.80
  -4  -7   5  488.27   36.58
  -4  -7   6  610.10   42.38
  -4  -7   7  547.52   41.55
  -4  -7   8  519.26   41.94
  -4  -7   9  298.78   33.16
  -4  -7  10  701.93   52.15
  -4  -6  -9  283.67   32.15
  -4  -6  -8  383.17   35.71
  -4  -6  -7  238.95   27.65
  -4  -6  -6  618.09   42.83
  -4  -6  -5   69.98   14.21
  -4  -6  -4 1499.06   63.17
  -4  -6  -4 1720.75   56.38
  -4  -6  -3   14.67    6.36
  -4  -6  -3    6.04    3.68
  -4  -6  -2 1945.88   69.24
  -4  -6  -2 1946.89   58.71
  -4  -6  -1   20.09    5.29
  -4  -6  -1   15.69    5.16
  -4  -6  -1   12.79    5.91
  -4  -6   0 1530.12   57.30
  -4  -6   0 1571.77   60.69
  -4  -6   0 1542.39   45.72
  -4  -6   0 1565.10   52.20
  -4  -6   1   56.08   11.61
  -4  -6   1   71.64   10.48
  -4  -6   1   68.49   11.77
  -4  -6   1   82.72   12.35
  -4  -6   1   63.03   11.69
  -4  -6   2 1260.65   50.53
  -4  -6   2 1272.80   46.17
  -4  -6   2 1255.74   45.38
  -4  -6   2 1225.23   53.63
  -4  -6   3  104.92   15.81
  -4  -6   3  122.35   13.49
  -4  -6   3  102.18   15.26
  -4  -6   3  119.17   14.51
  -4  -6   4  899.66   45.63
  -4  -6   4  896.62   46.62
  -4  -6   4  921.79   41.99
  -4  -6   5  325.49   25.83
  -4  -6   5  399.42   31.73
  -4  -6   6  328.03   30.04
  -4  -6   6  327.48   26.87
  -4  -6   7  166.29   22.11
  -4  -6   8   78.44   16.01
  -4  -6   9   65.65   15.12
  -4  -6  10   43.19   13.24
  -4  -6  11    8.98    6.62
  -4  -5 -10  288.00   31.42
  -4  -5  -9  351.28   33.62
  -4  -5  -8  304.43   30.20
  -4  -5  -7  480.00   36.84
  -4  -5  -6  129.13   18.85
  -4  -5  -5  393.11   31.23
  -4  -5  -5  475.81   29.99
  -4  -5  -4  244.22   21.07
  -4  -5  -4  207.76   22.05
  -4  -5  -3  202.69   18.92
  -4  -5  -3  211.17   21.83
  -4  -5  -3  191.09   12.41
  -4  -5  -2   55.05    7.26
  -4  -5  -2   64.39   10.51
  -4  -5  -2   63.39   11.88
  -4  -5  -1   42.69    8.53
  -4  -5  -1   61.48   11.38
  -4  -5  -1   48.01   10.17
  -4  -5  -1   44.78    7.16
  -4  -5   0   26.40    6.24
  -4  -5   0   25.09    6.73
  -4  -5   0   33.57    6.52
  -4  -5   0   21.35    7.31
  -4  -5   0   37.44    8.37
  -4  -5   1   17.17    4.97
  -4  -5   1    8.67    3.63
  -4  -5   1   12.35    4.35
  -4  -5   1   13.61    5.74
  -4  -5   1    8.45    4.39
  -4  -5   2   -0.01    1.55
  -4  -5   2    7.40    3.89
  -4  -5   2   -0.50    2.80
  -4  -5   2    2.66    2.42
  -4  -5   2    6.52    3.62
  -4  -5   3   26.24    6.77
  -4  -5   3   22.14    7.13
  -4  -5   3   20.31    5.03
  -4  -5   3   19.85    6.31
  -4  -5   4   62.44   10.46
  -4  -5   4   47.13   10.10
  -4  -5   4   60.92   11.42
  -4  -5   5  428.39   28.51
  -4  -5   5  407.43   30.40
  -4  -5   6  503.36   32.17
  -4  -5   6  426.38   32.31
  -4  -5   7   99.93   16.59
  -4  -5   7   67.88   12.51
  -4  -5   8  227.44   26.15
  -4  -5   8  201.03   21.69
  -4  -5   9  132.65   20.49
  -4  -5  10  415.95   37.25
  -4  -5  11  184.58   26.08
  -4  -5  12  452.76   41.76
  -4  -4 -11   19.37    8.41
  -4  -4 -10   25.08    8.23
  -4  -4  -9   -1.56    3.81
  -4  -4  -8  166.03   21.29
  -4  -4  -7    1.84    2.20
  -4  -4  -6  506.72   34.41
  -4  -4  -5   48.07    9.30
  -4  -4  -5   51.09    4.80
  -4  -4  -5   60.03   11.33
  -4  -4  -4  570.53   34.17
  -4  -4  -4  632.65   20.20
  -4  -4  -4  583.53   32.07
  -4  -4  -3   64.12   11.53
  -4  -4  -3   64.13   10.48
  -4  -4  -3   68.30    7.50
  -4  -4  -2 1337.51   47.04
  -4  -4  -2 1264.72   48.97
  -4  -4  -2 1318.65   51.23
  -4  -4  -2 1251.51   34.14
  -4  -4  -1    8.55    4.14
  -4  -4  -1    3.65    3.01
  -4  -4  -1    5.57    3.34
  -4  -4  -1    2.19    2.03
  -4  -4  -1    4.72    2.44
  -4  -4   0 2082.28   61.75
  -4  -4   0 2263.14   51.21
  -4  -4   0 2227.01   58.13
  -4  -4   0 2255.37   60.49
  -4  -4   1  164.80   15.04
  -4  -4   1  138.63   15.14
  -4  -4   1  132.29   15.65
  -4  -4   1  140.13   13.63
  -4  -4   2 1554.32   50.56
  -4  -4   2 1594.39   41.64
  -4  -4   2 1436.78   47.84
  -4  -4   2 1535.87   46.22
  -4  -4   2 1517.06   52.83
  -4  -4   3  484.73   28.90
  -4  -4   3  484.53   20.66
  -4  -4   3  470.28   29.80
  -4  -4   3  466.37   26.43
  -4  -4   4 1343.17   49.22
  -4  -4   4 1273.20   49.93
  -4  -4   4 1289.69   45.86
  -4  -4   5  385.78   25.98
  -4  -4   6  849.70   40.10
  -4  -4   7 1086.11   46.61
  -4  -4   8  451.32   31.13
  -4  -4   9  985.62   47.58
  -4  -4  10   19.34    7.21
  -4  -4  11  751.98   52.12
  -4  -4  12    5.02    4.74
  -4  -3 -12  363.39   35.28
  -4  -3 -11  324.90   31.88
  -4  -3 -10  516.91   38.72
  -4  -3  -9  293.35   27.85
  -4  -3  -8  350.67   29.06
  -4  -3  -7  961.03   46.16
  -4  -3  -7  802.50   13.24
  -4  -3  -6  299.10   24.79
  -4  -3  -6  316.74   12.01
  -4  -3  -5 1586.95   53.84
  -4  -3  -5 1580.13   54.96
  -4  -3  -5 1667.51   31.61
  -4  -3  -4   61.12   10.32
  -4  -3  -4   68.76   10.98
  -4  -3  -4   75.44    7.46
  -4  -3  -3 2185.44   65.20
  -4  -3  -3 2046.35   59.44
  -4  -3  -3 2087.53   58.12
  -4  -3  -3 2173.34   42.31
  -4  -3  -2   26.48    4.98
  -4  -3  -2   25.49    6.40
  -4  -3  -2   13.92    5.05
  -4  -3  -2   23.13    6.30
  -4  -3  -2   28.34    4.87
  -4  -3  -1 2428.18   47.93
  -4  -3  -1 2380.30   60.10
  -4  -3  -1 2271.74   60.30
  -4  -3  -1 2391.21   49.41
  -4  -3   0  156.48   14.42
  -4  -3   0  146.48   15.41
  -4  -3   0  151.11   12.89
  -4  -3   0  158.91   13.41
  -4  -3   1 1410.37   41.51
  -4  -3   1 1447.05   39.82
  -4  -3   2  606.40   28.11
  -4  -3   2  614.50   23.27
  -4  -3   2  640.44   31.37
  -4  -3   3 1543.04   46.66
  -4  -3   3 1474.75   30.72
  -4  -3   3 1497.79   48.89
  -4  -3   4 1208.52   44.92
  -4  -3   4 1243.42   43.04
  -4  -3   5 1210.86   46.31
  -4  -3   5 1187.53   43.95
  -4  -3   6 1404.36   49.95
  -4  -3   7   20.83    6.59
  -4  -3   8  393.71   27.93
  -4  -3   9   80.40   15.36
  -4  -3   9  115.54   15.84
  -4  -3  10  609.31   43.59
  -4  -3  10  585.99   36.82
  -4  -3  11   19.92    8.25
  -4  -3  11   25.65    8.15
  -4  -3  12  281.30   32.47
  -4  -3  13    0.96    3.58
  -4  -2 -13  283.40   30.91
  -4  -2 -12  120.35   19.70
  -4  -2 -11  240.14   26.13
  -4  -2 -10  544.81   37.49
  -4  -2  -9  310.96   26.95
  -4  -2  -8  947.33   45.24
  -4  -2  -7   31.14    7.74
  -4  -2  -6 1090.38   44.37
  -4  -2  -6  996.11   43.68
  -4  -2  -5   45.99    9.59
  -4  -2  -5   38.48    8.20
  -4  -2  -4 1217.10   43.75
  -4  -2  -4 1209.87   48.93
  -4  -2  -4 1149.09   43.54
  -4  -2  -3   10.95    4.09
  -4  -2  -3    8.64    3.73
  -4  -2  -3    4.63    3.03
  -4  -2  -2  675.65   32.56
  -4  -2  -2  631.72   24.15
  -4  -2  -2  613.54   29.28
  -4  -2  -2  677.71   20.23
  -4  -2  -1  454.45   24.88
  -4  -2  -1  466.47   25.13
  -4  -2  -1  449.30   21.22
  -4  -2   0 2078.08   46.80
  -4  -2   0 2046.95   52.88
  -4  -2   0 2052.64   48.58
  -4  -2   1    3.15    3.31
  -4  -2   1    1.85    2.64
  -4  -2   1   -0.59    1.25
  -4  -2   2   42.68    5.56
  -4  -2   2   38.52    6.98
  -4  -2   3    0.33    1.12
  -4  -2   3    3.68    2.28
  -4  -2   3    4.69    1.59
  -4  -2   4    1.65    2.83
  -4  -2   4    0.27    1.46
  -4  -2   5   29.12    6.74
  -4  -2   5   46.74    8.90
  -4  -2   6   14.37    5.28
  -4  -2   6   23.70    6.63
  -4  -2   7   86.95   12.49
  -4  -2   8   32.51    9.00
  -4  -2   8   28.94    7.90
  -4  -2   9  133.18   19.24
  -4  -2   9  118.38   15.57
  -4  -2  10   -4.83    4.26
  -4  -2  10   -2.32    2.44
  -4  -2  11  665.51   38.64
  -4  -2  11  598.25   44.05
  -4  -2  12   30.68    8.99
  -4  -2  12   26.39    9.83
  -4  -2  13  571.63   47.62
  -4  -1 -13   33.66   10.74
  -4  -1 -12  121.39   18.38
  -4  -1 -11   37.17    9.67
  -4  -1 -10   67.52   13.97
  -4  -1 -10   75.51   13.25
  -4  -1  -9    9.48    5.23
  -4  -1  -9   -5.11    4.27
  -4  -1  -8   62.05   10.88
  -4  -1  -8   71.84   13.54
  -4  -1  -7   10.92    5.42
  -4  -1  -7   12.66    4.91
  -4  -1  -6   17.33    5.87
  -4  -1  -6   19.93    5.75
  -4  -1  -6   14.92    5.91
  -4  -1  -5   73.51   10.33
  -4  -1  -5   70.89   10.99
  -4  -1  -5   52.51    9.91
  -4  -1  -5   67.90   12.18
  -4  -1  -4   26.65    7.10
  -4  -1  -4   19.98    5.34
  -4  -1  -4   16.80    5.23
  -4  -1  -4   34.29    8.00
  -4  -1  -3  547.23   25.91
  -4  -1  -3  525.64   29.34
  -4  -1  -3  523.84   29.44
  -4  -1  -2  382.88   23.30
  -4  -1  -2  334.57   22.08
  -4  -1  -2  331.31   19.83
  -4  -1  -1 1836.64   48.88
  -4  -1  -1 1909.04   47.20
  -4  -1  -1 1907.12   48.91
  -4  -1   0  316.37   19.49
  -4  -1   0  320.50   18.37
  -4  -1   0  339.45   19.75
  -4  -1   1 2403.85   48.74
  -4  -1   1 2283.01   50.34
  -4  -1   1 2299.09   53.38
  -4  -1   1 2391.07   44.67
  -4  -1   2 1153.47   27.24
  -4  -1   2 1112.64   38.11
  -4  -1   2 1147.11   36.68
  -4  -1   3 1002.51   21.05
  -4  -1   3 1074.28   36.63
  -4  -1   4  750.95   31.94
  -4  -1   5 1056.40   38.87
  -4  -1   5 1057.41   40.38
  -4  -1   6 1537.14   48.57
  -4  -1   6 1517.33   50.19
  -4  -1   7  872.75   42.55
  -4  -1   7  803.89   36.24
  -4  -1   8 3553.14   89.72
  -4  -1   8 3815.31   81.75
  -4  -1   9  181.18   21.26
  -4  -1   9  174.57   18.25
  -4  -1  10  920.79   50.06
  -4  -1  10  897.30   42.58
  -4  -1  11   33.95   10.72
  -4  -1  11   32.26    8.62
  -4  -1  12  760.41   51.00
  -4  -1  12  886.92   44.45
  -4  -1  13    1.18    4.10
  -4  -1  14  614.56   50.27
  -4   0 -13  122.78   18.56
  -4   0 -12  287.68   27.15
  -4   0 -12  248.09   29.18
  -4   0 -11  119.43   19.29
  -4   0 -11  110.32   16.02
  -4   0 -10  580.31   34.35
  -4   0 -10  596.94   41.32
  -4   0  -9  298.67   23.47
  -4   0  -9  283.26   27.30
  -4   0  -8 1299.03   56.27
  -4   0  -8 1362.07   47.50
  -4   0  -7  259.53   19.81
  -4   0  -7  288.03   25.30
  -4   0  -6 3397.87   67.36
  -4   0  -6 3298.96   82.08
  -4   0  -6 3254.84   78.14
  -4   0  -5   95.41   13.66
  -4   0  -5   89.02   12.42
  -4   0  -5   80.56   12.48
  -4   0  -5   95.38   10.82
  -4   0  -4 2552.89   65.02
  -4   0  -4 2443.47   51.57
  -4   0  -4 2486.06   65.07
  -4   0  -4 2387.28   60.80
  -4   0  -3    8.49    3.23
  -4   0  -3    7.95    4.05
  -4   0  -3    3.60    2.06
  -4   0  -3    0.18    1.61
  -4   0  -2 4164.83   63.77
  -4   0  -2 4359.78   76.41
  -4   0  -1   19.55    5.34
  -4   0  -1   12.01    3.75
  -4   0   0 2825.03   53.32
  -4   0   0 2922.27   54.98
  -4   0   1  476.59   22.78
  -4   0   1  471.01   20.31
  -4   0   2 2397.95   41.34
  -4   0   3 1848.28   30.60
  -4   0   3 1920.80   48.33
  -4   0   3 1887.45   48.92
  -4   0   4 1521.46   44.14
  -4   0   4 1533.78   45.19
  -4   0   4 1603.97   26.49
  -4   0   5 1654.82   48.53
  -4   0   5 1731.16   48.42
  -4   0   5 1660.64   25.19
  -4   0   6  459.37   25.77
  -4   0   6  451.76   27.85
  -4   0   6  446.00   26.32
  -4   0   6  432.46   13.47
  -4   0   7  772.19   38.16
  -4   0   7  753.11   19.33
  -4   0   7  778.20   34.66
  -4   0   8   25.48    7.21
  -4   0   8   21.79    7.19
  -4   0   9  371.84   29.28
  -4   0   9  372.90   25.52
  -4   0  10   55.71   12.06
  -4   0  10   56.29   10.31
  -4   0  11  515.80   38.88
  -4   0  11  599.27   34.73
  -4   0  12   43.52   12.14
  -4   0  12   40.18    9.62
  -4   0  13  113.69   16.11
  -4   0  13  111.18   20.45
  -4   0  14   15.76   10.43
  -4   1 -13  223.64   28.38
  -4   1 -13  211.99   22.87
  -4   1 -12  622.08   45.17
  -4   1 -12  683.56   39.30
  -4   1 -11  445.05   37.14
  -4   1 -11  461.34   30.60
  -4   1 -10  413.56   34.09
  -4   1 -10  449.90   28.59
  -4   1  -9  796.03   35.63
  -4   1  -9  802.27   45.52
  -4   1  -8  394.08   23.62
  -4   1  -8  356.23   29.28
  -4   1  -7  699.55   38.80
  -4   1  -7  722.58   30.31
  -4   1  -6   73.17    8.97
  -4   1  -6   82.75   12.51
  -4   1  -6   70.36   12.21
  -4   1  -5  895.72   39.13
  -4   1  -5  952.84   41.10
  -4   1  -5  938.35   30.19
  -4   1  -4    3.84    1.98
  -4   1  -4    6.23    2.83
  -4   1  -4    0.09    0.95
  -4   1  -3 2032.48   54.17
  -4   1  -3 1939.44   39.69
  -4   1  -2  303.24   20.08
  -4   1  -2  294.74   15.32
  -4   1  -1  329.64   19.62
  -4   1  -1  348.07   16.84
  -4   1   0  668.65   25.66
  -4   1   0  676.12   24.16
  -4   1   1  530.19   24.82
  -4   1   1  569.07   21.85
  -4   1   2  814.81   30.73
  -4   1   2  788.23   23.18
  -4   1   3    0.70    0.95
  -4   1   3    1.80    1.64
  -4   1   4   63.73    8.98
  -4   1   4   56.29    8.36
  -4   1   4   60.40    6.53
  -4   1   4   62.42    4.84
  -4   1   5  166.86   15.11
  -4   1   5  159.70   10.71
  -4   1   5  164.44   14.75
  -4   1   5  163.37   14.59
  -4   1   6   41.24    7.92
  -4   1   6   45.57    6.11
  -4   1   6   40.24    7.69
  -4   1   6   52.05    8.53
  -4   1   7   -0.82    1.18
  -4   1   7   -0.19    2.40
  -4   1   7   -1.22    2.49
  -4   1   8  110.24   13.35
  -4   1   8   91.71    9.75
  -4   1   8   83.66   12.71
  -4   1   9    4.72    2.24
  -4   1   9    2.16    1.73
  -4   1   9    2.24    1.80
  -4   1  10  175.22   20.79
  -4   1  10  164.94   17.00
  -4   1  11    0.63    2.52
  -4   1  11    8.94    5.85
  -4   1  12   92.24   17.26
  -4   1  12   94.53   13.74
  -4   1  13    9.05    6.63
  -4   1  13   12.48    4.70
  -4   1  14    9.50    6.07
  -4   2 -14   27.84   10.77
  -4   2 -13   84.88   17.51
  -4   2 -12  127.77   20.43
  -4   2 -12  122.96   15.92
  -4   2 -11   22.51    9.08
  -4   2 -11   12.72    5.16
  -4   2 -10   50.62   12.01
  -4   2 -10   33.38    7.54
  -4   2  -9   12.47    5.77
  -4   2  -9   12.33    4.35
  -4   2  -8  226.72   16.59
  -4   2  -8  196.73   21.52
  -4   2  -7   86.28    9.44
  -4   2  -7   85.81   13.87
  -4   2  -6  221.29   20.70
  -4   2  -6  221.36   19.67
  -4   2  -6  208.68   13.41
  -4   2  -5   73.16   11.39
  -4   2  -5   87.36    7.88
  -4   2  -5   78.60    7.68
  -4   2  -5   75.65   11.76
  -4   2  -4   87.98    7.50
  -4   2  -4  116.04   13.52
  -4   2  -3   -2.41    2.22
  -4   2  -3    0.93    1.34
  -4   2  -2   23.60    3.84
  -4   2  -2   20.68    5.20
  -4   2  -2   17.67    4.61
  -4   2  -1    8.78    3.26
  -4   2  -1   19.32    4.75
  -4   2   0   34.93    6.02
  -4   2   0   21.61    5.06
  -4   2   1  433.96   21.56
  -4   2   1  428.84   19.13
  -4   2   2  216.75   12.71
  -4   2   2  258.34   16.68
  -4   2   3  766.02   27.21
  -4   2   3  797.78   22.37
  -4   2   3  841.52   30.09
  -4   2   4  142.26   12.57
  -4   2   4  135.88   11.68
  -4   2   5 1594.41   40.25
  -4   2   5 1561.80   42.93
  -4   2   6  288.01   19.53
  -4   2   6  260.63   19.01
  -4   2   6  276.45   18.89
  -4   2   6  315.30   18.51
  -4   2   7 1716.49   26.76
  -4   2   7 1802.26   46.38
  -4   2   7 1697.05   51.73
  -4   2   8   22.70    6.40
  -4   2   8   21.80    5.76
  -4   2   8   18.11    2.69
  -4   2   9 1590.77   49.71
  -4   2   9 1459.48   54.90
  -4   2  10  165.00   19.81
  -4   2  10  134.41    7.32
  -4   2  10  180.94   17.30
  -4   2  10  167.90   16.70
  -4   2  11  848.26   39.41
  -4   2  11  836.26   46.82
  -4   2  11  864.92   38.69
  -4   2  12   19.15    6.33
  -4   2  12   24.38    8.79
  -4   2  13  818.12   52.88
  -4   2  13  925.60   41.94
  -4   2  14  157.43   24.38
  -4   3 -14   -3.41    4.39
  -4   3 -13   11.47    7.07
  -4   3 -12   16.12    7.98
  -4   3 -11  110.87   13.55
  -4   3 -11  112.04   18.67
  -4   3 -10   85.09   15.32
  -4   3 -10   95.27   11.29
  -4   3  -9  242.12   24.76
  -4   3  -9  275.13   17.87
  -4   3  -8   -1.63    3.09
  -4   3  -8    2.54    2.02
  -4   3  -7  942.87   27.11
  -4   3  -7 1036.97   46.94
  -4   3  -6  178.67   18.76
  -4   3  -6  180.44   10.51
  -4   3  -6  173.25   13.24
  -4   3  -6  169.97   16.81
  -4   3  -5 1623.27   48.19
  -4   3  -5 1572.99   53.52
  -4   3  -5 1705.48   55.05
  -4   3  -5 1653.18   28.15
  -4   3  -5 1696.54   40.72
  -4   3  -4  309.71   19.40
  -4   3  -4  308.16   22.10
  -4   3  -4  294.53   22.12
  -4   3  -4  321.56   11.32
  -4   3  -3 1405.10   44.47
  -4   3  -3 1436.80   22.26
  -4   3  -3 1399.30   46.02
  -4   3  -2  796.41   32.31
  -4   3  -2  749.82   30.61
  -4   3  -1 5198.12   76.93
  -4   3  -1 5376.21   80.04
  -4   3   0 2188.28   48.42
  -4   3   0 2215.83   48.96
  -4   3   1 2187.49   47.04
  -4   3   2 2540.73   50.05
  -4   3   3 2745.16   58.32
  -4   3   3 2878.70   53.05
  -4   3   4 2273.12   53.86
  -4   3   4 2294.80   47.76
  -4   3   5  245.05   16.11
  -4   3   5  234.99   15.87
  -4   3   6 1808.08   47.58
  -4   3   6 1847.54   49.86
  -4   3   6 1844.37   46.45
  -4   3   7  264.46   19.79
  -4   3   7  253.18   18.69
  -4   3   8 1501.64   35.46
  -4   3   8 1450.01   49.84
  -4   3   8 1506.05   46.39
  -4   3   8 1519.10   49.94
  -4   3   9   71.43   10.38
  -4   3   9   69.04    7.78
  -4   3   9   67.61   11.20
  -4   3   9   65.87   11.49
  -4   3  10  913.21   28.71
  -4   3  10  828.52   43.32
  -4   3  10  938.14   37.97
  -4   3  10  874.56   41.95
  -4   3  11    8.02    4.98
  -4   3  11    3.64    2.79
  -4   3  11   -1.69    2.49
  -4   3  12  439.14   32.42
  -4   3  12  480.44   28.64
  -4   3  13   -2.12    4.37
  -4   3  14   85.89   17.98
  -4   4 -14  279.65   33.34
  -4   4 -13  379.80   36.97
  -4   4 -12  544.03   42.68
  -4   4 -11  151.33   21.68
  -4   4 -10 1367.86   62.50
  -4   4 -10 1502.20   39.97
  -4   4  -9   14.11    6.36
  -4   4  -9    7.24    2.82
  -4   4  -8 1607.19   33.04
  -4   4  -8 1542.71   60.66
  -4   4  -7  190.48   18.80
  -4   4  -7  177.79   19.91
  -4   4  -7  178.06    9.36
  -4   4  -6 3329.33   81.88
  -4   4  -6 3155.58   64.48
  -4   4  -6 3119.09   31.48
  -4   4  -6 3175.65   71.27
  -4   4  -5    2.89    3.45
  -4   4  -5   -0.71    1.23
  -4   4  -5    2.14    2.56
  -4   4  -5   -0.04    1.61
  -4   4  -4 3389.41   74.33
  -4   4  -4 3371.16   62.15
  -4   4  -4 3421.34   76.54
  -4   4  -3  218.62   14.24
  -4   4  -3  215.08   17.61
  -4   4  -3  222.83   18.62
  -4   4  -2 1458.35   45.65
  -4   4  -2 1359.99   41.52
  -4   4  -1  323.64   19.10
  -4   4   0 1404.21   37.99
  -4   4   1  275.05   16.16
  -4   4   2  537.67   22.03
  -4   4   3  403.94   19.00
  -4   4   4   54.99    6.23
  -4   4   4   58.37    7.28
  -4   4   5  173.05   12.83
  -4   4   5  179.29   12.99
  -4   4   6   55.82    9.64
  -4   4   6   36.45    6.50
  -4   4   7   84.27   10.98
  -4   4   7  117.36   14.73
  -4   4   7  100.04   11.63
  -4   4   8   14.59    5.40
  -4   4   8   26.67    6.73
  -4   4   8   21.88    5.11
  -4   4   8   30.27    8.22
  -4   4   9    0.72    2.29
  -4   4   9    3.56    3.18
  -4   4  10   -1.02    4.04
  -4   4  10   -1.78    3.32
  -4   4  10    8.64    4.47
  -4   4  11   43.02   10.40
  -4   4  11   46.76   11.12
  -4   4  11   61.35    9.75
  -4   4  12   -2.98    4.18
  -4   4  12   -0.03    2.64
  -4   4  13   -6.22    5.79
  -4   4  13    0.69    4.46
  -4   4  14   -2.59    8.24
  -4   5 -13  163.23   24.68
  -4   5 -12  134.22   21.41
  -4   5 -11  380.38   34.64
  -4   5 -10  179.49   23.09
  -4   5  -9  349.22   14.01
  -4   5  -9  406.14   33.46
  -4   5  -8  141.44    7.45
  -4   5  -8  141.95    7.02
  -4   5  -7   73.06   11.72
  -4   5  -7   75.34   13.50
  -4   5  -7   79.12   11.27
  -4   5  -6  171.39   19.42
  -4   5  -6  171.71   16.45
  -4   5  -6  181.40   17.14
  -4   5  -5   36.68    7.49
  -4   5  -5   28.61    6.20
  -4   5  -5   29.94    7.92
  -4   5  -4   18.91    5.85
  -4   5  -4   26.99    5.56
  -4   5  -4   23.55    6.97
  -4   5  -4   27.18    6.67
  -4   5  -3   -0.35    1.01
  -4   5  -3    2.12    2.37
  -4   5  -2   32.20    6.53
  -4   5  -1    1.96    1.95
  -4   5   0   36.24    6.12
  -4   5   1  267.97   15.58
  -4   5   1  280.27   21.91
  -4   5   2  159.75   16.58
  -4   5   2  132.07   10.29
  -4   5   3  137.39   15.68
  -4   5   3  116.07    9.29
  -4   5   4  181.41   10.10
  -4   5   4  196.75   18.96
  -4   5   4  178.44   11.43
  -4   5   5   44.35    9.23
  -4   5   5   39.28    5.67
  -4   5   5   48.70    6.06
  -4   5   6  431.41   29.48
  -4   5   6  468.45   22.15
  -4   5   7   12.88    5.89
  -4   5   7   16.16    4.72
  -4   5   8  605.93   28.73
  -4   5   8  545.82   29.01
  -4   5   8  608.44   37.03
  -4   5   9   17.00    6.92
  -4   5   9   11.17    4.94
  -4   5   9   16.39    5.81
  -4   5   9    8.50    3.80
  -4   5  10  436.58   24.44
  -4   5  10  417.00   29.99
  -4   5  10  384.72   32.39
  -4   5  11  148.51   20.91
  -4   5  11  125.75   17.64
  -4   5  12  324.99   30.03
  -4   5  12  266.66   29.01
  -4   5  13  265.28   30.16
  -4   5  13  217.66   26.08
  -4   6 -13    5.88    4.81
  -4   6 -12   11.87    7.26
  -4   6 -11   30.32   11.30
  -4   6 -10  109.43   18.47
  -4   6  -9  113.41   18.13
  -4   6  -8  296.74   28.08
  -4   6  -7  114.74   14.58
  -4   6  -7  122.18   17.76
  -4   6  -6  234.51   19.30
  -4   6  -6  269.15   23.69
  -4   6  -6  265.00   24.96
  -4   6  -5   12.16    4.26
  -4   6  -5   16.60    7.11
  -4   6  -5   31.14    8.09
  -4   6  -4  736.77   27.54
  -4   6  -4  783.46   39.94
  -4   6  -4  747.13   37.22
  -4   6  -3  163.68   11.39
  -4   6  -3  193.33   17.22
  -4   6  -2 1029.94   36.87
  -4   6  -2 1062.49   24.09
  -4   6  -1  943.24   32.75
  -4   6   0  859.80   41.06
  -4   6   0  857.71   28.96
  -4   6   1 1457.02   53.72
  -4   6   1 1329.95   33.30
  -4   6   2   69.44    7.00
  -4   6   2   88.82   13.64
  -4   6   3 2488.27   38.22
  -4   6   3 2580.43   73.54
  -4   6   4  262.57   10.06
  -4   6   4  293.54   12.62
  -4   6   4  282.26   24.55
  -4   6   5 2140.76   38.31
  -4   6   5 2289.13   71.15
  -4   6   6   13.14    3.46
  -4   6   6   16.05    6.86
  -4   6   7 1561.34   43.73
  -4   6   7 1472.50   60.50
  -4   6   8   10.47    4.38
  -4   6   8    8.42    3.33
  -4   6   8    5.62    5.25
  -4   6   9 1263.67   47.48
  -4   6   9 1338.25   41.89
  -4   6   9 1385.63   62.60
  -4   6  10  133.69   16.70
  -4   6  10  129.30   20.06
  -4   6  11  658.08   46.35
  -4   6  11  768.72   42.68
  -4   6  12  105.13   19.60
  -4   6  13  403.66   39.39
  -4   7 -12   38.86   12.39
  -4   7 -11  607.61   45.99
  -4   7 -10   -2.46    5.08
  -4   7  -9  944.71   53.84
  -4   7  -8   28.70    9.99
  -4   7  -7 1617.93   66.09
  -4   7  -7 1507.75   52.51
  -4   7  -6   10.61    4.13
  -4   7  -6   13.95    5.86
  -4   7  -5 2383.50   55.39
  -4   7  -5 2371.93   75.78
  -4   7  -4  955.13   31.42
  -4   7  -3 1377.71   32.72
  -4   7  -3 1416.86   47.31
  -4   7  -2  766.14   32.25
  -4   7  -2  755.51   19.22
  -4   7  -1 1242.68   53.53
  -4   7  -1 1279.52   38.21
  -4   7   0  803.49   42.86
  -4   7   0  764.45   27.15
  -4   7   1 1340.48   32.06
  -4   7   1 1482.12   58.15
  -4   7   2  936.42   22.91
  -4   7   2  964.56   48.04
  -4   7   3  343.49   11.25
  -4   7   3  392.87   30.85
  -4   7   4  724.63   42.29
  -4   7   5  116.44    8.17
  -4   7   5  132.44   18.51
  -4   7   6  292.55   15.99
  -4   7   6  323.12   29.65
  -4   7   7   19.93    4.79
  -4   7   7   20.45    7.98
  -4   7   8  208.22   16.58
  -4   7   8  197.12   24.60
  -4   7   8  197.75   16.98
  -4   7   9   17.56    5.70
  -4   7   9   23.88    9.28
  -4   7  10   48.12   13.35
  -4   7  11   50.85   14.21
  -4   7  12    7.46    5.49
  -4   8 -12  332.46   35.79
  -4   8 -11  185.61   26.39
  -4   8 -10  694.93   49.04
  -4   8  -9   16.90    7.56
  -4   8  -8  673.25   45.77
  -4   8  -7    4.90    4.77
  -4   8  -6  297.50   29.04
  -4   8  -6  273.37   20.81
  -4   8  -5   26.08    6.00
  -4   8  -4  383.25   19.95
  -4   8  -3   32.26    4.76
  -4   8  -3   34.92    9.66
  -4   8  -3   36.14    7.83
  -4   8  -2   54.04    8.64
  -4   8  -2   51.83    4.83
  -4   8  -2   48.43   11.41
  -4   8  -1   -1.04    1.79
  -4   8  -1    8.30    5.76
  -4   8   0    4.21    3.64
  -4   8   0    3.52    2.19
  -4   8   1   52.12    5.86
  -4   8   1   44.22   11.35
  -4   8   2   56.34   12.31
  -4   8   3   88.52   15.72
  -4   8   4   -3.73    5.36
  -4   8   5  224.64   25.58
  -4   8   5  211.88    9.23
  -4   8   6   -3.50    5.79
  -4   8   7  313.15   32.03
  -4   8   8    1.93    5.53
  -4   8   9  240.91   29.72
  -4   8  10   -0.38    6.76
  -4   8  11  216.21   29.96
  -4   9 -11   18.22    9.71
  -4   9 -10   -1.19    5.31
  -4   9  -9  167.00   24.61
  -4   9  -8    5.53    5.57
  -4   9  -7  242.26   28.09
  -4   9  -5  277.81   28.65
  -4   9  -4   -0.12    3.53
  -4   9  -3  904.44   39.01
  -4   9  -3  934.18   52.31
  -4   9  -2  181.68   15.93
  -4   9  -2  177.15   22.61
  -4   9  -2  168.31    8.27
  -4   9  -1  269.66   28.05
  -4   9  -1  256.86   16.95
  -4   9   0  477.68   37.31
  -4   9   0  439.43   19.17
  -4   9   1  174.46   23.01
  -4   9   1  166.25    8.11
  -4   9   2  596.06   42.85
  -4   9   3  261.23   28.43
  -4   9   4  503.24   40.38
  -4   9   5   -0.37    3.09
  -4   9   6  704.93   49.67
  -4   9   7   51.29   15.62
  -4   9   8  628.23   48.90
  -4   9   9   71.89   16.15
  -4  10  -9    7.35    5.21
  -4  10  -8  498.40   43.39
  -4  10  -7   22.57    9.90
  -4  10  -7   14.44    7.45
  -4  10  -6  722.55   49.53
  -4  10  -5   93.68   17.64
  -4  10  -4  278.60   29.97
  -4  10  -3  595.93   43.84
  -4  10  -2  369.79   34.44
  -4  10  -1  560.49   43.15
  -4  10   0  169.77   24.11
  -4  10   1  855.76   53.70
  -4  10   2   40.59   12.47
  -4  10   3 1162.07   63.51
  -4  10   4   -5.13    6.19
  -4  10   5  860.15   57.17
  -4  10   6   28.61   11.78
  -4  10   7  417.33   41.24
  -4  11  -9  516.49   45.84
  -4  11  -8   21.63    9.52
  -4  11  -7  188.78   26.81
  -4  11  -6  185.45   26.23
  -4  11  -5  286.27   32.45
  -4  11  -4  146.00   22.94
  -4  11  -3  366.66   36.33
  -4  11  -2  251.73   30.45
  -4  11  -1   76.67   16.70
  -4  11   0   73.46   16.44
  -4  11   1  118.71   21.35
  -4  11   2   39.78   12.76
  -4  11   3   51.73   14.91
  -4  11   4  -16.89    8.61
  -4  11   5   55.52   15.34
  -4  12  -7   -1.73    5.53
  -4  12  -6  -11.26    7.65
  -4  12  -5   45.51   13.77
  -4  12  -4    8.07    6.36
  -4  12  -3  145.63   24.26
  -4  12  -2   48.49   14.11
  -4  12  -1  348.54   38.01
  -4  12   0   31.91   12.17
  -4  12   1  357.19   38.94
  -4  12   2    8.10    8.37
  -3 -11   1  337.30   35.63
  -3 -11   2  291.02   33.06
  -3 -11   3  346.55   35.77
  -3 -11   4  266.93   31.21
  -3 -11   5  580.36   46.27
  -3 -10  -3  876.19   56.49
  -3 -10  -2   54.39   14.09
  -3 -10  -1  675.04   48.51
  -3 -10   0  103.29   18.86
  -3 -10   1  410.57   36.94
  -3 -10   2   86.58   16.50
  -3 -10   3  389.30   35.58
  -3 -10   4  227.43   27.49
  -3 -10   5   25.22    9.91
  -3  -9  -5   16.58    7.87
  -3  -9  -4   56.23   14.33
  -3  -9  -3   58.52   14.15
  -3  -9  -2   12.45    6.01
  -3  -9  -1    4.23    4.55
  -3  -9   0   13.51    7.20
  -3  -9   1    7.94    4.51
  -3  -9   2   63.62   13.50
  -3  -9   3   76.76   15.07
  -3  -9   4   41.29   10.79
  -3  -9   5  110.67   17.93
  -3  -9   6   88.80   18.04
  -3  -9   7   93.13   18.62
  -3  -9   8   37.82   12.04
  -3  -8  -7   85.70   17.59
  -3  -8  -6   24.98    9.20
  -3  -8  -5  182.73   24.00
  -3  -8  -4   -0.33    4.38
  -3  -8  -3  319.74   30.42
  -3  -8  -2   49.47   11.64
  -3  -8  -1  621.67   30.36
  -3  -8  -1  494.44   36.90
  -3  -8   0  336.31   29.74
  -3  -8   0  345.72   23.42
  -3  -8   1  563.23   38.20
  -3  -8   1  588.59   31.24
  -3  -8   2  470.37   34.85
  -3  -8   3   89.00   15.28
  -3  -8   4  350.23   30.39
  -3  -8   4  348.01   31.46
  -3  -8   5  265.29   28.02
  -3  -8   5  280.01   27.24
  -3  -8   6 1124.18   59.38
  -3  -8   7   18.97    8.73
  -3  -8   8 1062.52   60.79
  -3  -8   9   97.08   19.23
  -3  -8  10  533.41   46.72
  -3  -7  -8  533.84   42.23
  -3  -7  -7   14.44    6.83
  -3  -7  -6  895.80   51.41
  -3  -7  -5  115.12   17.84
  -3  -7  -4   -0.21    2.44
  -3  -7  -4 1142.06   55.04
  -3  -7  -3  427.62   32.97
  -3  -7  -2  888.88   46.25
  -3  -7  -2   -0.16    2.10
  -3  -7  -1  526.45   35.24
  -3  -7  -1  147.01   14.83
  -3  -7   0  882.96   45.04
  -3  -7   0  866.52   35.82
  -3  -7   1  894.91   37.45
  -3  -7   1  846.61   44.31
  -3  -7   1  925.22   43.89
  -3  -7   2  405.46   30.56
  -3  -7   2  435.94   28.88
  -3  -7   2  402.63   29.92
  -3  -7   2  409.97   26.09
  -3  -7   3 1685.33   62.35
  -3  -7   3 1782.26   64.21
  -3  -7   4  147.29   19.00
  -3  -7   4  120.44   16.65
  -3  -7   5 1519.44   62.77
  -3  -7   5 1691.70   63.18
  -3  -7   6   56.64   12.81
  -3  -7   7  411.49   34.83
  -3  -7   8    7.36    7.59
  -3  -7   9  582.07   44.44
  -3  -7  10   19.93    8.65
  -3  -7  11  257.92   31.62
  -3  -6 -10   56.49   14.01
  -3  -6  -9  665.86   46.06
  -3  -6  -8    2.18    2.55
  -3  -6  -7  939.23   51.52
  -3  -6  -6    6.04    5.29
  -3  -6  -6    0.66    2.16
  -3  -6  -5  820.64   44.85
  -3  -6  -5  212.45   17.96
  -3  -6  -4   25.05    8.04
  -3  -6  -3  638.67   37.57
  -3  -6  -2   20.85    6.62
  -3  -6  -1  340.32   26.45
  -3  -6  -1  306.12   25.78
  -3  -6   0  286.94   24.23
  -3  -6   0  333.84   25.81
  -3  -6   1  150.76   17.44
  -3  -6   1  151.51   14.95
  -3  -6   1  146.17   16.18
  -3  -6   1  169.85   17.56
  -3  -6   2    6.85    3.80
  -3  -6   2    2.28    2.39
  -3  -6   2    6.52    3.65
  -3  -6   2    8.43    3.90
  -3  -6   3   13.91    6.09
  -3  -6   3   17.21    6.22
  -3  -6   3   11.02    4.15
  -3  -6   3   12.52    4.19
  -3  -6   4  267.49   23.92
  -3  -6   4  275.18   23.79
  -3  -6   5   80.21   13.65
  -3  -6   6    1.37    3.56
  -3  -6   7    1.50    3.35
  -3  -6   8  399.53   34.04
  -3  -6   9   28.67    9.79
  -3  -6  10  631.33   46.05
  -3  -6  11   58.86   14.10
  -3  -6  12  395.05   38.90
  -3  -5 -11   50.02   13.33
  -3  -5 -10    1.31    4.71
  -3  -5  -9   46.84   12.00
  -3  -5  -8    4.03    3.71
  -3  -5  -7   28.54    7.43
  -3  -5  -7   16.85    6.84
  -3  -5  -6  169.51   19.90
  -3  -5  -6  163.61   16.41
  -3  -5  -5    9.66    4.05
  -3  -5  -5  141.12   17.69
  -3  -5  -4  588.89   34.74
  -3  -5  -3   35.35    8.41
  -3  -5  -2  574.51   32.49
  -3  -5  -2  658.77   36.75
  -3  -5  -1  697.96   36.00
  -3  -5  -1  659.58   34.28
  -3  -5  -1  708.54   25.38
  -3  -5   0  487.16   28.16
  -3  -5   0  472.99   28.87
  -3  -5   0  462.24   22.21
  -3  -5   1 1061.18   39.29
  -3  -5   1 1025.82   39.04
  -3  -5   1 1104.95   36.47
  -3  -5   1 1046.76   42.74
  -3  -5   2  503.83   26.89
  -3  -5   2  586.50   27.24
  -3  -5   2  545.29   29.86
  -3  -5   2  584.82   31.98
  -3  -5   2  587.01   27.71
  -3  -5   3 1247.85   36.68
  -3  -5   3 1230.82   46.70
  -3  -5   3 1198.86   46.14
  -3  -5   3 1204.63   42.91
  -3  -5   3 1194.92   41.45
  -3  -5   4  423.60   26.57
  -3  -5   4  426.45   28.61
  -3  -5   4  438.82   28.44
  -3  -5   4  431.44   26.05
  -3  -5   5 1638.20   52.56
  -3  -5   5 1730.33   59.47
  -3  -5   6  158.20   16.94
  -3  -5   6  152.12   18.83
  -3  -5   7 2576.34   78.84
  -3  -5   8   63.13   17.48
  -3  -5   9  948.25   52.16
  -3  -5  10   21.47    8.36
  -3  -5  10    8.43    6.21
  -3  -5  11  419.16   38.38
  -3  -5  11  425.58   37.79
  -3  -5  12  124.00   22.27
  -3  -5  12  135.80   22.11
  -3  -5  13  425.51   40.32
  -3  -4 -12  143.36   21.88
  -3  -4 -11  293.38   30.65
  -3  -4 -10    4.94    3.55
  -3  -4  -9 1365.95   59.88
  -3  -4  -8   67.84   12.61
  -3  -4  -7 1249.43   52.75
  -3  -4  -7 1394.92   49.82
  -3  -4  -6   17.67    5.72
  -3  -4  -6    7.26    4.03
  -3  -4  -5 1206.02   47.78
  -3  -4  -5   -1.07    2.37
  -3  -4  -4  240.52   20.64
  -3  -4  -4  237.50   10.31
  -3  -4  -3 1596.64   51.71
  -3  -4  -3 1565.82   29.48
  -3  -4  -3 1644.00   56.82
  -3  -4  -2 1065.08   41.33
  -3  -4  -2 1124.40   28.19
  -3  -4  -2 1144.86   44.80
  -3  -4  -1 1280.83   44.70
  -3  -4  -1 1270.16   32.49
  -3  -4  -1 1278.82   36.42
  -3  -4   0 1315.64   42.05
  -3  -4   0 1251.47   37.94
  -3  -4   0 1243.99   34.36
  -3  -4   1 1676.70   44.33
  -3  -4   1 1708.79   43.24
  -3  -4   2 2725.51   51.71
  -3  -4   2 2658.20   63.77
  -3  -4   2 2721.29   57.07
  -3  -4   3  183.46   12.05
  -3  -4   3  172.57   16.32
  -3  -4   3  184.41   15.54
  -3  -4   3  182.32   17.21
  -3  -4   4 2063.58   58.25
  -3  -4   4 2154.89   57.53
  -3  -4   4 2057.67   53.99
  -3  -4   5   18.67    4.96
  -3  -4   5   23.35    6.59
  -3  -4   6 1207.94   44.95
  -3  -4   7   26.86    6.88
  -3  -4   8  903.86   47.88
  -3  -4   8  914.07   42.21
  -3  -4   9  217.63   24.59
  -3  -4  10  505.28   39.20
  -3  -4  11  135.35   21.66
  -3  -4  12  185.28   26.22
  -3  -4  12  200.63   26.02
  -3  -4  13  107.92   19.76
  -3  -4  13  122.28   21.99
  -3  -4  14   66.31   16.23
  -3  -3 -13  159.10   23.23
  -3  -3 -12  643.23   44.41
  -3  -3 -11   61.48   13.41
  -3  -3 -10  465.59   34.58
  -3  -3  -9    8.40    5.14
  -3  -3  -8  767.60   40.57
  -3  -3  -7   64.49   10.67
  -3  -3  -7   33.51    8.07
  -3  -3  -6 1457.81   51.00
  -3  -3  -6 1380.69   47.28
  -3  -3  -5  715.92   14.79
  -3  -3  -5  681.79   33.47
  -3  -3  -4 1122.45   41.29
  -3  -3  -4 1185.36   22.86
  -3  -3  -4 1180.45   48.14
  -3  -3  -3  813.02   34.08
  -3  -3  -3  847.76   21.60
  -3  -3  -3  835.73   37.78
  -3  -3  -2 1328.19   44.74
  -3  -3  -2 1336.35   40.10
  -3  -3  -1  482.15   19.20
  -3  -3  -1  460.72   24.40
  -3  -3  -1  438.26   22.72
  -3  -3  -1  458.45   19.18
  -3  -3   0   32.31    6.24
  -3  -3   0   17.85    4.37
  -3  -3   0   22.17    5.11
  -3  -3   0   19.76    4.34
  -3  -3   1 1034.93   30.82
  -3  -3   1 1048.80   31.70
  -3  -3   1 1082.28   35.49
  -3  -3   2   72.36    7.20
  -3  -3   2   74.13    9.13
  -3  -3   3  424.42   22.42
  -3  -3   3  399.86   14.40
  -3  -3   4   78.22   10.56
  -3  -3   4  221.50   17.02
  -3  -3   5   40.12    7.58
  -3  -3   5   40.46    8.13
  -3  -3   6    1.89    2.03
  -3  -3   7   60.30    9.93
  -3  -3   7   51.13   10.60
  -3  -3   8    7.69    4.56
  -3  -3   8    3.80    2.78
  -3  -3   9  125.59   18.17
  -3  -3   9  148.14   17.07
  -3  -3  10  169.44   21.97
  -3  -3  11  117.54   19.29
  -3  -3  12  144.47   22.20
  -3  -3  13   44.53   13.46
  -3  -3  15   97.66   20.00
  -3  -2 -13  195.13   24.53
  -3  -2 -12   17.79    8.06
  -3  -2 -11  242.79   25.10
  -3  -2 -10   12.02    5.29
  -3  -2  -9  356.50   27.18
  -3  -2  -8    5.25    1.40
  -3  -2  -8    4.59    1.68
  -3  -2  -7  180.35   17.84
  -3  -2  -7  149.56   16.05
  -3  -2  -6    1.07    2.50
  -3  -2  -6    1.78    2.80
  -3  -2  -5    0.28    1.49
  -3  -2  -5    7.59    3.80
  -3  -2  -5    8.44    4.29
  -3  -2  -4  225.25   20.01
  -3  -2  -4  195.95   16.01
  -3  -2  -3    9.44    3.55
  -3  -2  -3    8.69    3.98
  -3  -2  -3   10.30    3.94
  -3  -2  -2   63.92    6.38
  -3  -2  -2   73.50   10.06
  -3  -2  -2   67.56    5.56
  -3  -2  -2   65.43    8.64
  -3  -2  -2   49.45    7.62
  -3  -2  -1   26.52    5.41
  -3  -2  -1   24.51    5.39
  -3  -2  -1   33.55    6.23
  -3  -2  -1   28.09    4.31
  -3  -2  -1   17.86    3.71
  -3  -2   0 1611.91   36.29
  -3  -2   0 1640.57   42.41
  -3  -2   0 1664.82   39.68
  -3  -2   1   19.81    4.02
  -3  -2   1   18.46    4.57
  -3  -2   1   19.45    5.26
  -3  -2   2  876.95   21.22
  -3  -2   2  882.11   29.74
  -3  -2   2  860.87   31.04
  -3  -2   3  319.39   18.68
  -3  -2   3  302.03    9.17
  -3  -2   4 3226.43   61.88
  -3  -2   5   19.78    5.13
  -3  -2   6 2284.11   63.92
  -3  -2   6 2362.79   57.39
  -3  -2   7  148.80   15.21
  -3  -2   7  159.79   17.48
  -3  -2   8 1827.23   62.72
  -3  -2   8 1937.64   56.06
  -3  -2   9  137.08   18.10
  -3  -2   9  129.60   15.26
  -3  -2  10 1343.61   59.38
  -3  -2  10 1338.16   50.73
  -3  -2  11  294.85   29.39
  -3  -2  12  802.24   50.91
  -3  -2  13  186.18   25.85
  -3  -2  14  326.05   36.42
  -3  -1 -14   21.26    8.37
  -3  -1 -13   16.98    7.39
  -3  -1 -12   94.75   15.61
  -3  -1 -11   13.59    5.38
  -3  -1 -10  731.05   44.26
  -3  -1 -10  783.77   40.58
  -3  -1  -9  154.73   19.56
  -3  -1  -9  183.86   18.56
  -3  -1  -9  142.98    9.95
  -3  -1  -8 1096.87   49.38
  -3  -1  -8 1079.28   42.36
  -3  -1  -8 1096.76   26.31
  -3  -1  -7  279.55   23.99
  -3  -1  -7  270.46   20.17
  -3  -1  -7  227.87   20.10
  -3  -1  -6 1262.28   48.21
  -3  -1  -6 1280.47   50.82
  -3  -1  -6 1190.66   43.39
  -3  -1  -6 1258.37   40.90
  -3  -1  -5  522.62   25.04
  -3  -1  -5  504.39   28.97
  -3  -1  -5  514.29   30.25
  -3  -1  -4 3061.67   69.67
  -3  -1  -4 3057.80   67.87
  -3  -1  -4 3077.72   58.00
  -3  -1  -3 1546.66   39.02
  -3  -1  -3 1649.35   48.43
  -3  -1  -3 1573.12   42.64
  -3  -1  -3 1610.93   46.29
  -3  -1  -2 2282.59   52.38
  -3  -1  -2 2252.54   45.33
  -3  -1  -2 2333.60   50.32
  -3  -1  -2 2413.39   53.19
  -3  -1  -1 3680.76   59.81
  -3  -1  -1 3686.42   61.42
  -3  -1  -1 3642.29   56.89
  -3  -1  -1 3601.44   60.64
  -3  -1   0 2556.91   47.55
  -3  -1   0 2626.29   45.48
  -3  -1   0 2521.56   48.36
  -3  -1   0 2480.17   50.24
  -3  -1   1 2947.18   49.89
  -3  -1   1 2964.49   53.28
  -3  -1   1 3016.09   42.55
  -3  -1   1 2993.37   55.09
  -3  -1   2  690.66   25.21
  -3  -1   2  646.37   16.03
  -3  -1   3 4118.12   64.03
  -3  -1   4   10.77    3.54
  -3  -1   5 2806.90   57.89
  -3  -1   5 2893.99   64.99
  -3  -1   6   11.06    4.69
  -3  -1   6   19.55    5.17
  -3  -1   7 1415.13   49.79
  -3  -1   7 1558.17   46.77
  -3  -1   8   29.79    7.64
  -3  -1   8   27.83    6.56
  -3  -1   9  811.46   42.09
  -3  -1   9  879.53   37.58
  -3  -1  10  429.09   32.49
  -3  -1  10  409.53   26.87
  -3  -1  11  216.71   24.90
  -3  -1  11  203.46   19.75
  -3  -1  12  125.76   19.89
  -3  -1  13   27.21    9.39
  -3  -1  14  239.64   30.27
  -3   0 -14  135.24   19.62
  -3   0 -13  650.88   40.75
  -3   0 -12   21.94    7.92
  -3   0 -12   19.66    7.76
  -3   0 -11 1291.35   59.65
  -3   0 -11 1238.16   51.02
  -3   0 -10    0.87    1.43
  -3   0 -10   -0.35    2.41
  -3   0 -10    2.53    2.56
  -3   0  -9 1316.59   34.97
  -3   0  -9 1263.26   45.84
  -3   0  -9 1200.82   52.65
  -3   0  -8   -1.91    3.14
  -3   0  -8    0.87    1.77
  -3   0  -7 2216.26   65.06
  -3   0  -7 2181.28   63.21
  -3   0  -7 2166.02   53.06
  -3   0  -6  368.83   25.20
  -3   0  -6  359.19   26.11
  -3   0  -6  385.33   24.96
  -3   0  -6  361.97   20.28
  -3   0  -5 2522.65   50.06
  -3   0  -5 2530.76   64.89
  -3   0  -5 2466.61   61.66
  -3   0  -4 1176.77   41.22
  -3   0  -4 1148.05   39.75
  -3   0  -4 1132.95   31.69
  -3   0  -3  466.22   23.85
  -3   0  -3  435.31   18.42
  -3   0  -3  430.96   22.01
  -3   0  -3  437.84   23.41
  -3   0  -2  563.69   20.13
  -3   0  -2  518.93   22.93
  -3   0  -2  598.33   25.67
  -3   0  -1  195.23   13.39
  -3   0  -1  216.21   12.47
  -3   0   0 4078.53   55.26
  -3   0   0 4123.48   56.10
  -3   0   1  344.43   16.69
  -3   0   1  343.43   14.54
  -3   0   2  704.66   17.71
  -3   0   2  706.11   25.72
  -3   0   3   81.19    4.56
  -3   0   3   71.63    8.34
  -3   0   3   73.69    5.11
  -3   0   3   65.85    8.09
  -3   0   4  841.87   30.85
  -3   0   4  840.11   29.86
  -3   0   4  809.38   16.44
  -3   0   5  282.70   18.98
  -3   0   5  286.76   18.50
  -3   0   5  277.73   17.48
  -3   0   5  276.96   10.76
  -3   0   6  114.40   11.78
  -3   0   6  115.20   12.96
  -3   0   6  118.40    8.03
  -3   0   7  142.82   15.22
  -3   0   7  133.38    9.78
  -3   0   7  126.98   12.73
  -3   0   8   50.68    8.46
  -3   0   8   69.26   11.35
  -3   0   9   72.41   10.70
  -3   0   9   86.89   13.33
  -3   0  10   42.11   10.24
  -3   0  10   24.15    6.43
  -3   0  11    3.09    3.35
  -3   0  11    3.83    3.16
  -3   0  12   -4.03    6.29
  -3   0  13   33.12   10.93
  -3   0  14   14.49    7.56
  -3   1 -14  211.08   23.35
  -3   1 -14  181.91   25.24
  -3   1 -13   15.59    7.68
  -3   1 -13   23.24    7.78
  -3   1 -12  207.32   24.89
  -3   1 -12  234.80   22.05
  -3   1 -11   41.31    8.81
  -3   1 -11   44.47   11.34
  -3   1 -10  588.86   38.17
  -3   1 -10  612.28   31.92
  -3   1 -10  581.58   27.05
  -3   1  -9  310.09   26.40
  -3   1  -9  353.33   22.61
  -3   1  -8  164.47   18.43
  -3   1  -8  184.70   15.42
  -3   1  -7   21.72    6.25
  -3   1  -7   35.78    8.38
  -3   1  -7   24.70    7.69
  -3   1  -7   34.36    6.40
  -3   1  -6   14.58    4.94
  -3   1  -6   29.32    7.28
  -3   1  -6   11.44    3.51
  -3   1  -6   25.41    6.53
  -3   1  -5  181.43   15.60
  -3   1  -5  147.48   15.12
  -3   1  -5  155.17   11.20
  -3   1  -4  185.90   14.74
  -3   1  -4  176.94   11.03
  -3   1  -4  195.58   16.23
  -3   1  -4  187.15    8.80
  -3   1  -3  121.14   12.17
  -3   1  -3  111.31    8.05
  -3   1  -2   74.57    8.67
  -3   1  -2   72.09    6.36
  -3   1  -1   16.55    4.05
  -3   1  -1    9.41    2.35
  -3   1   0   25.72    4.79
  -3   1   0   34.45    5.12
  -3   1   1  326.65   13.85
  -3   1   1  334.18   16.61
  -3   1   2    4.76    2.58
  -3   1   2    4.17    1.48
  -3   1   3  505.98   12.86
  -3   1   3  545.98   18.05
  -3   1   3  528.63   21.57
  -3   1   4   32.47    5.68
  -3   1   4   33.31    5.77
  -3   1   4   28.49    5.49
  -3   1   4   26.95    4.32
  -3   1   5  542.31   24.68
  -3   1   5  582.73   24.84
  -3   1   5  555.64   24.21
  -3   1   5  568.78   20.21
  -3   1   6  423.62   23.20
  -3   1   6  436.84   22.15
  -3   1   6  381.61   17.89
  -3   1   7  389.40   21.60
  -3   1   7  422.84   25.22
  -3   1   7  426.54   20.74
  -3   1   7  377.49   11.06
  -3   1   8  822.27   37.50
  -3   1   8  793.55   18.24
  -3   1   8  835.19   31.51
  -3   1   8  859.05   33.28
  -3   1   9 1190.11   48.22
  -3   1   9 1201.61   24.81
  -3   1   9 1264.25   42.19
  -3   1  10  366.42   28.82
  -3   1  10  351.24   14.63
  -3   1  10  345.62   22.80
  -3   1  11  217.56   23.67
  -3   1  11  238.57   20.03
  -3   1  12 1131.71   43.95
  -3   1  12 1119.71   56.68
  -3   1  13  187.33   24.67
  -3   1  14  692.94   49.93
  -3   2 -14   -3.22    3.78
  -3   2 -13   -1.47    4.73
  -3   2 -13    3.74    3.31
  -3   2 -12   18.59    5.46
  -3   2 -12    9.56    5.35
  -3   2 -11    6.52    5.22
  -3   2 -11    3.87    2.10
  -3   2 -10   15.07    4.90
  -3   2 -10   25.01    7.98
  -3   2 -10   21.06    5.62
  -3   2  -9  268.53   24.48
  -3   2  -9  263.13   18.37
  -3   2  -8  429.82   29.40
  -3   2  -8  423.90   21.54
  -3   2  -7  103.16   13.44
  -3   2  -7   99.63    9.47
  -3   2  -7  102.20   13.58
  -3   2  -6  261.87   20.67
  -3   2  -6  256.48   19.63
  -3   2  -6  249.01   13.77
  -3   2  -5  713.75   30.04
  -3   2  -5  667.85   31.20
  -3   2  -5  754.34   23.20
  -3   2  -5  673.48   20.29
  -3   2  -4 1478.68   39.74
  -3   2  -4 1437.77   31.79
  -3   2  -4 1449.43   43.76
  -3   2  -4 1416.11   25.90
  -3   2  -3 1307.16   33.89
  -3   2  -3 1285.92   21.76
  -3   2  -3 1253.37   38.35
  -3   2  -2 4989.69   72.19
  -3   2  -2 5093.81   41.66
  -3   2  -2 4994.64   70.10
  -3   2  -1  431.03   19.47
  -3   2  -1  420.01   19.05
  -3   2   0 4572.02   60.20
  -3   2   0 4668.42   59.44
  -3   2   1  296.97   15.06
  -3   2   2 4130.39   59.21
  -3   2   2 4232.99   56.16
  -3   2   3  158.44   11.76
  -3   2   3  162.33   10.49
  -3   2   3  161.01   11.14
  -3   2   4 5798.50   70.06
  -3   2   4 5661.38   68.90
  -3   2   4 5743.40   73.02
  -3   2   5  111.12   10.54
  -3   2   5  104.62   10.04
  -3   2   5  103.83   10.21
  -3   2   5  103.17   10.20
  -3   2   6 4282.87   50.52
  -3   2   6 4335.82   70.19
  -3   2   6 4437.92   68.48
  -3   2   7  292.06   18.17
  -3   2   7  328.35   21.37
  -3   2   7  307.69   14.38
  -3   2   8 1680.18   44.99
  -3   2   8 1718.76   36.07
  -3   2   8 1673.43   51.92
  -3   2   9  557.40   21.76
  -3   2   9  561.42   32.48
  -3   2   9  607.00   28.08
  -3   2  10 1116.70   45.29
  -3   2  10 1138.08   32.90
  -3   2  10 1119.86   49.23
  -3   2  10 1157.93   39.91
  -3   2  11  443.34   30.09
  -3   2  11  490.89   34.48
  -3   2  11  492.83   26.92
  -3   2  12  646.10   31.72
  -3   2  12  663.08   42.96
  -3   2  13  254.22   28.15
  -3   2  14  133.72   21.62
  -3   3 -14  687.18   48.64
  -3   3 -13   20.72    8.09
  -3   3 -12  853.45   49.88
  -3   3 -12  934.33   39.68
  -3   3 -11  125.98   18.46
  -3   3 -11  128.55   13.83
  -3   3 -10 1394.50   58.82
  -3   3 -10 1312.17   41.06
  -3   3  -9   85.08   14.29
  -3   3  -9   70.01    8.69
  -3   3  -8 2831.58   76.35
  -3   3  -8 2881.91   51.28
  -3   3  -7  845.80   39.41
  -3   3  -7  937.15   39.53
  -3   3  -7  879.55   25.37
  -3   3  -6 2238.89   56.89
  -3   3  -6 2366.82   36.52
  -3   3  -6 2284.55   61.84
  -3   3  -5 1946.43   54.13
  -3   3  -5 1949.65   48.45
  -3   3  -5 1966.84   44.17
  -3   3  -5 1948.90   27.64
  -3   3  -4 2140.26   22.69
  -3   3  -4 2238.97   55.47
  -3   3  -4 2233.92   47.38
  -3   3  -4 2324.08   46.88
  -3   3  -3 2116.70   41.32
  -3   3  -3 2208.54   51.80
  -3   3  -2 2004.28   35.04
  -3   3  -2 2097.35   47.82
  -3   3  -2 1985.70   44.46
  -3   3  -1 1240.41   32.36
  -3   3   0  419.41   17.88
  -3   3   1 3250.61   47.43
  -3   3   2  104.10   10.76
  -3   3   2  116.15    8.84
  -3   3   3 1987.10   48.15
  -3   3   3 1958.70   36.17
  -3   3   3 1938.48   32.04
  -3   3   4    0.39    1.15
  -3   3   4    2.11    1.10
  -3   3   5  887.12   28.12
  -3   3   6    4.72    2.41
  -3   3   6    7.50    3.13
  -3   3   7  121.04   12.65
  -3   3   7  125.79   11.23
  -3   3   7  122.61   11.56
  -3   3   8   13.20    4.84
  -3   3   8   19.89    4.73
  -3   3   8   15.05    5.70
  -3   3   8   11.55    3.63
  -3   3   9  170.89   14.34
  -3   3   9  185.68   18.53
  -3   3   9  201.56   20.14
  -3   3   9  187.39   14.97
  -3   3  10   -0.43    1.89
  -3   3  10   -2.06    3.23
  -3   3  10    0.58    1.79
  -3   3  11   10.39    6.16
  -3   3  11    6.83    5.34
  -3   3  11    6.05    3.21
  -3   3  12   21.21    7.96
  -3   3  12   15.56    4.56
  -3   3  12   22.65    8.63
  -3   3  13   44.46   11.96
  -3   3  14   -1.49    2.65
  -3   4 -14   24.70    9.92
  -3   4 -13  662.10   46.16
  -3   4 -12   52.58   12.34
  -3   4 -11  897.93   49.50
  -3   4 -11  882.96   33.88
  -3   4 -10    3.12    2.01
  -3   4 -10    5.18    4.77
  -3   4  -9  608.92   37.32
  -3   4  -9  602.03   23.57
  -3   4  -8  260.09   23.34
  -3   4  -8  259.41   13.79
  -3   4  -7  238.47   21.46
  -3   4  -7  285.25   21.83
  -3   4  -7  257.70   12.02
  -3   4  -6   58.16    9.18
  -3   4  -6   49.80    8.27
  -3   4  -6   59.57    4.71
  -3   4  -6   48.41    9.28
  -3   4  -5  262.27   17.64
  -3   4  -5  266.89   18.40
  -3   4  -5  255.47   20.44
  -3   4  -4   72.07    8.29
  -3   4  -4   79.49   10.99
  -3   4  -4   79.82   10.05
  -3   4  -3   26.63    4.64
  -3   4  -3   28.11    6.40
  -3   4  -2  264.23   12.16
  -3   4  -2  274.30   16.67
  -3   4  -1   39.33    5.77
  -3   4   0    0.78    0.97
  -3   4   1   18.17    3.44
  -3   4   2  110.97    7.92
  -3   4   3    7.06    1.68
  -3   4   3    7.56    2.24
  -3   4   4  213.65   11.52
  -3   4   4  236.55   11.86
  -3   4   5   12.74    3.35
  -3   4   6  411.13   20.88
  -3   4   6  441.29   27.49
  -3   4   7   70.90    8.67
  -3   4   7   56.05    8.65
  -3   4   7   72.89   11.99
  -3   4   8  298.51   24.76
  -3   4   8  300.55   17.93
  -3   4   8  296.09   21.21
  -3   4   9  238.24   16.16
  -3   4   9  240.66   20.78
  -3   4   9  244.06   23.20
  -3   4  10  244.92   22.32
  -3   4  10  275.80   21.36
  -3   4  10  329.75   28.53
  -3   4  10  277.59   17.72
  -3   4  11  243.02   23.81
  -3   4  11  274.26   18.10
  -3   4  11  232.60   25.35
  -3   4  12   19.37    7.52
  -3   4  12   20.77    7.39
  -3   4  13  321.07   32.19
  -3   4  13  339.07   31.85
  -3   4  14   19.01    8.68
  -3   5 -14   27.63    9.10
  -3   5 -13    1.60    5.98
  -3   5 -12   49.47   12.57
  -3   5 -11    3.46    4.26
  -3   5 -10   89.83   15.37
  -3   5 -10   82.52    8.73
  -3   5  -9    8.54    2.68
  -3   5  -9    8.85    2.74
  -3   5  -9    6.08    3.43
  -3   5  -8  177.27   18.82
  -3   5  -8  180.86   20.24
  -3   5  -8  194.22   10.59
  -3   5  -8  192.01   11.27
  -3   5  -7    0.26    2.42
  -3   5  -7    2.36    1.15
  -3   5  -7    2.83    2.50
  -3   5  -7    2.55    1.31
  -3   5  -7    6.86    4.61
  -3   5  -6  351.79   25.58
  -3   5  -6  376.81   26.73
  -3   5  -6  359.78   22.65
  -3   5  -6  372.89   24.49
  -3   5  -5   68.55   11.28
  -3   5  -5   87.90   12.46
  -3   5  -5   81.51   11.27
  -3   5  -5   97.79   10.77
  -3   5  -4  364.55   25.26
  -3   5  -4  354.14   18.41
  -3   5  -4  361.54   23.20
  -3   5  -3  501.28   19.17
  -3   5  -3  505.84   28.87
  -3   5  -2   72.05    6.10
  -3   5  -1 1780.03   23.37
  -3   5  -1 1815.25   39.71
  -3   5   0   13.56    3.58
  -3   5   1 2117.62   35.03
  -3   5   2    7.82    1.98
  -3   5   2   -0.34    1.35
  -3   5   3 2004.47   27.88
  -3   5   3 1953.91   25.48
  -3   5   3 1958.60   57.62
  -3   5   4  135.66   15.61
  -3   5   4  157.14    9.41
  -3   5   5 1793.34   58.11
  -3   5   5 1778.05   37.36
  -3   5   6  855.59   29.55
  -3   5   6  905.17   42.66
  -3   5   7 1296.10   52.66
  -3   5   7 1358.11   37.09
  -3   5   7 1247.74   39.72
  -3   5   8  685.88   34.58
  -3   5   8  691.93   32.19
  -3   5   8  699.32   40.17
  -3   5   8  676.92   26.22
  -3   5   9  578.90   24.05
  -3   5   9  552.91   31.03
  -3   5   9  562.17   32.24
  -3   5   9  541.74   37.03
  -3   5  10  756.38   39.38
  -3   5  10  782.21   46.46
  -3   5  10  800.10   28.20
  -3   5  11  267.42   28.35
  -3   5  11  251.53   24.29
  -3   5  12  797.84   46.43
  -3   5  12  788.26   50.98
  -3   5  13  172.52   23.36
  -3   5  13  169.37   24.68
  -3   5  14  424.04   40.14
  -3   5  14  376.78   35.83
  -3   6 -14    7.58    6.81
  -3   6 -13  379.25   35.94
  -3   6 -12   -1.45    4.42
  -3   6 -11  281.38   28.85
  -3   6 -10   87.07   15.71
  -3   6  -9  657.15   41.16
  -3   6  -9  650.60   19.35
  -3   6  -8  325.11   11.29
  -3   6  -8  340.82   12.29
  -3   6  -8  330.05   28.20
  -3   6  -7  688.90   39.12
  -3   6  -7  769.87   35.92
  -3   6  -6 1786.70   50.48
  -3   6  -6 1863.76   62.90
  -3   6  -6 1891.62   60.01
  -3   6  -5  327.51   19.77
  -3   6  -5  370.49   26.08
  -3   6  -4 1737.38   41.09
  -3   6  -4 1798.88   61.14
  -3   6  -4 1861.65   57.64
  -3   6  -3  505.48   19.88
  -3   6  -3  537.59   32.60
  -3   6  -3  518.26   30.47
  -3   6  -2 2772.35   38.76
  -3   6  -2 2677.38   70.94
  -3   6  -1   88.77   13.11
  -3   6  -1   68.56    4.73
  -3   6  -1   83.89   13.29
  -3   6  -1   69.75    8.19
  -3   6   0 3376.27   76.69
  -3   6   0 3283.02   48.16
  -3   6   1    3.26    2.96
  -3   6   1    2.34    1.02
  -3   6   2 2717.20   73.37
  -3   6   2 2588.28   29.02
  -3   6   3   22.07    2.67
  -3   6   3   21.03    6.96
  -3   6   4 1727.20   30.69
  -3   6   4 1725.87   59.73
  -3   6   5  113.79    9.46
  -3   6   5  122.54   16.45
  -3   6   6  994.91   48.38
  -3   6   6  918.93   30.43
  -3   6   7   79.98   10.00
  -3   6   7   69.13   13.61
  -3   6   8  282.07   20.68
  -3   6   8  300.36   28.54
  -3   6   8  291.38   16.60
  -3   6   9  100.94    9.70
  -3   6   9   92.72   12.73
  -3   6   9  108.31   17.83
  -3   6  10  214.15   26.33
  -3   6  10  220.42   21.07
  -3   6  11    8.53    5.03
  -3   6  11    0.40    3.22
  -3   6  12   15.26    8.60
  -3   6  12   17.71    7.51
  -3   6  13    1.86    5.36
  -3   6  13   -1.52    4.83
  -3   7 -13   81.09   17.69
  -3   7 -12  714.79   48.90
  -3   7 -11  272.03   29.26
  -3   7 -10  761.23   48.00
  -3   7  -9  284.93   28.05
  -3   7  -8  910.97   48.75
  -3   7  -7  371.42   30.15
  -3   7  -7  318.18   23.44
  -3   7  -6  356.36   22.96
  -3   7  -5  526.29   25.76
  -3   7  -4  370.40   19.40
  -3   7  -3  429.99   18.77
  -3   7  -2  165.85   10.02
  -3   7  -2  196.91   20.29
  -3   7  -1  200.60   20.63
  -3   7  -1  167.20   12.58
  -3   7  -1  168.68    8.14
  -3   7   0   21.19    3.99
  -3   7   0   19.90    6.40
  -3   7   0   26.67    7.61
  -3   7   1   16.29    6.37
  -3   7   1   15.85    2.70
  -3   7   1   14.21    5.56
  -3   7   2   43.80    9.82
  -3   7   3   48.64   10.93
  -3   7   3   50.18    4.13
  -3   7   4    4.72    1.80
  -3   7   4    1.02    3.51
  -3   7   5   23.67    7.91
  -3   7   5   17.59    3.80
  -3   7   6   29.72    5.48
  -3   7   6   26.36    8.50
  -3   7   7  137.42   20.11
  -3   7   7   97.07   11.08
  -3   7   8  232.20   18.57
  -3   7   8  219.71   25.94
  -3   7   8  231.56   14.47
  -3   7   9  142.76   16.03
  -3   7   9  138.06   21.57
  -3   7  10  101.36   19.32
  -3   7  10  109.82   14.88
  -3   7  11   95.95   19.27
  -3   7  12  161.85   25.78
  -3   8 -13  142.73   23.55
  -3   8 -12    4.29    4.74
  -3   8 -11    1.38    3.63
  -3   8 -10    2.12    3.11
  -3   8  -9    6.16    4.50
  -3   8  -8   14.22    7.60
  -3   8  -7   12.61    5.69
  -3   8  -6  108.13   12.87
  -3   8  -5   94.70   11.19
  -3   8  -4  300.71   27.00
  -3   8  -4  309.84   18.28
  -3   8  -3   39.52    5.93
  -3   8  -3   37.55    9.72
  -3   8  -2  556.35   36.50
  -3   8  -2  479.39   17.97
  -3   8  -1   91.56    9.34
  -3   8  -1   92.77   15.04
  -3   8  -1   94.88    6.70
  -3   8   0  787.21   15.06
  -3   8   0  841.41   45.56
  -3   8   0  852.28   23.74
  -3   8   1   22.83    2.53
  -3   8   1   21.50    7.97
  -3   8   1   23.70    2.65
  -3   8   2  451.93    9.54
  -3   8   2  484.69   35.51
  -3   8   3  305.02   28.49
  -3   8   3  262.57    9.97
  -3   8   4  910.26   50.16
  -3   8   4  918.27   22.95
  -3   8   5  103.01    8.98
  -3   8   5   77.75   15.32
  -3   8   6  716.93   47.11
  -3   8   6  735.97   27.11
  -3   8   7  340.18   20.55
  -3   8   7  347.86   33.85
  -3   8   8  288.31   31.85
  -3   8   8  284.18   20.60
  -3   8   9  384.16   38.03
  -3   8  10   79.67   18.07
  -3   8  11  412.03   41.92
  -3   9 -12  212.83   28.70
  -3   9 -11   20.67    7.74
  -3   9 -10  325.12   33.79
  -3   9  -9  194.72   25.50
  -3   9  -8  350.62   33.13
  -3   9  -6  242.59   26.26
  -3   9  -5  841.89   34.36
  -3   9  -5  783.18   46.65
  -3   9  -4  138.19   19.60
  -3   9  -4  134.56   12.59
  -3   9  -3  945.25   30.01
  -3   9  -3  943.60   50.45
  -3   9  -2   -3.03    4.81
  -3   9  -2    0.81    0.95
  -3   9  -1 1176.44   31.31
  -3   9  -1 1257.64   58.84
  -3   9  -1 1175.36   33.05
  -3   9  -1 1231.82   25.99
  -3   9   0   42.41    4.06
  -3   9   0   35.13    4.64
  -3   9   0   39.76   10.79
  -3   9   0   41.46    4.12
  -3   9   0   42.10    4.81
  -3   9   1 1316.75   18.93
  -3   9   1 1636.39   68.82
  -3   9   2   98.34   17.44
  -3   9   2  116.37    5.98
  -3   9   2  118.26    5.82
  -3   9   3  973.71   54.14
  -3   9   3  939.14   19.74
  -3   9   4  297.05   30.54
  -3   9   5  606.86   45.24
  -3   9   6  422.72   38.40
  -3   9   7  179.07   25.62
  -3   9   8  436.26   41.17
  -3   9   9  128.85   23.34
  -3  10 -10  228.30   29.50
  -3  10 -10  177.05   25.56
  -3  10  -9  150.27   23.53
  -3  10  -9  162.67   23.80
  -3  10  -8  545.07   43.47
  -3  10  -8  485.07   40.80
  -3  10  -7  274.82   29.74
  -3  10  -6  792.61   49.92
  -3  10  -5   70.97   15.40
  -3  10  -4  796.64   35.91
  -3  10  -4  797.54   49.31
  -3  10  -3   61.07   13.98
  -3  10  -3   54.33    8.65
  -3  10  -2  683.01   27.50
  -3  10  -2  667.57   45.32
  -3  10  -1   12.81    3.41
  -3  10  -1    5.92    3.86
  -3  10   0  698.87   47.40
  -3  10   1    0.98    4.90
  -3  10   2  174.08   24.23
  -3  10   3    1.24    3.05
  -3  10   4   39.18   12.55
  -3  10   5   30.04   12.21
  -3  10   6   81.39   18.22
  -3  10   7    5.16    5.83
  -3  11 -10  134.49   23.62
  -3  11  -9   28.97   10.36
  -3  11  -9   23.15    8.12
  -3  11  -8   77.56   17.10
  -3  11  -8   39.27   10.48
  -3  11  -7    4.49    5.05
  -3  11  -7    9.88    6.88
  -3  11  -6   60.39   14.76
  -3  11  -6   74.51   13.15
  -3  11  -5   22.11    6.66
  -3  11  -5    4.90    5.30
  -3  11  -4   26.38    9.68
  -3  11  -3   54.32   13.91
  -3  11  -2   21.31    9.71
  -3  11  -1  179.16   25.37
  -3  11   0   81.06   17.40
  -3  11   1  434.95   39.93
  -3  11   2   42.27   13.63
  -3  11   3  344.38   36.62
  -3  11   4  200.43   28.59
  -3  11   5  184.33   28.38
  -3  12  -8  303.14   35.14
  -3  12  -7  105.59   20.30
  -3  12  -6  380.43   38.31
  -3  12  -5  121.37   21.88
  -3  12  -4  708.11   52.26
  -3  12  -3   31.44   12.07
  -3  12  -2  707.08   52.87
  -3  12  -1    9.29    4.80
  -3  12   0  474.94   43.32
  -3  12   1   13.87    8.57
  -3  12   2  549.67   49.18
  -2 -12   1  203.93   28.00
  -2 -12   2    7.01    4.40
  -2 -12   3  468.94   41.47
  -2 -12   4    2.71    5.69
  -2 -12   5  772.29   52.74
  -2 -11  -2  514.93   43.13
  -2 -11  -1  170.70   25.04
  -2 -11   0  734.59   50.28
  -2 -11   1  111.54   19.55
  -2 -11   2 1336.01   66.55
  -2 -11   3    8.07    5.14
  -2 -11   4  345.36   33.59
  -2 -11   5   11.40    7.34
  -2 -10  -4  207.38   26.55
  -2 -10  -3  101.68   18.49
  -2 -10  -2   82.69   16.20
  -2 -10  -1   34.16   10.71
  -2 -10   0  123.21   28.13
  -2 -10   1   -0.56    3.76
  -2 -10   2    2.65    4.85
  -2 -10   3   43.51   11.56
  -2 -10   4   -1.15    4.27
  -2 -10   5    3.99    3.36
  -2  -9  -6   32.66   11.20
  -2  -9  -5   67.74   14.61
  -2  -9  -4  150.86   21.24
  -2  -9  -3  365.35   32.31
  -2  -9  -2  265.69   27.27
  -2  -9  -1   20.10    7.40
  -2  -9   0  441.80   33.96
  -2  -9   1   30.04    9.43
  -2  -9   2  493.90   35.57
  -2  -9   3   54.92   12.11
  -2  -9   4 1095.21   52.80
  -2  -9   5  112.28   17.13
  -2  -9   8  373.92   37.17
  -2  -9   9  336.64   36.70
  -2  -8  -8  437.87   38.57
  -2  -8  -7  139.12   21.01
  -2  -8  -6  473.55   37.57
  -2  -8  -5  473.61   36.55
  -2  -8  -4  200.05   23.14
  -2  -8  -3  872.81   47.12
  -2  -8  -2  269.02   16.49
  -2  -8  -2  262.83   25.35
  -2  -8  -1 1308.04   55.51
  -2  -8   0   72.70   13.14
  -2  -8   1 1781.81   63.32
  -2  -8   2   12.53    5.01
  -2  -8   3 1733.82   62.63
  -2  -8   4  128.27   17.17
  -2  -8   5  533.48   34.77
  -2  -8   5  519.62   38.17
  -2  -8   6  270.43   28.40
  -2  -8   7 1322.40   64.11
  -2  -8   8  129.37   20.79
  -2  -8   9  393.43   37.49
  -2  -8  10  155.87   24.24
  -2  -8  11   56.16   15.85
  -2  -7  -9  556.53   42.63
  -2  -7  -8  193.35   24.58
  -2  -7  -7  695.78   44.45
  -2  -7  -6  591.23   39.43
  -2  -7  -5  444.39   33.31
  -2  -7  -5  431.49   21.05
  -2  -7  -4  651.53   39.39
  -2  -7  -4  702.92   26.34
  -2  -7  -3  368.24   28.70
  -2  -7  -3  419.45   20.22
  -2  -7  -2  898.82   30.12
  -2  -7  -2  923.30   44.33
  -2  -7  -1   36.81    6.44
  -2  -7  -1   31.07    8.04
  -2  -7   0  218.57   20.79
  -2  -7   0  210.61   21.55
  -2  -7   1   48.56    9.84
  -2  -7   1   51.61   10.15
  -2  -7   2  297.94   23.59
  -2  -7   2  304.09   24.55
  -2  -7   3   34.39    8.31
  -2  -7   3   53.78   11.13
  -2  -7   4  105.51   15.66
  -2  -7   4  121.05   15.39
  -2  -7   5   18.12    6.88
  -2  -7   5   26.90    7.52
  -2  -7   6   22.81    7.58
  -2  -7   7  180.99   23.41
  -2  -7   8  105.16   17.78
  -2  -7   9   56.72   14.00
  -2  -7  10  133.64   21.79
  -2  -7  11  109.63   19.99
  -2  -7  12   24.43    9.51
  -2  -7  12   23.76    9.69
  -2  -6 -10  141.03   20.88
  -2  -6  -9   10.54    6.96
  -2  -6  -8    4.33    2.72
  -2  -6  -7   33.44    9.15
  -2  -6  -6   -0.05    2.16
  -2  -6  -5   32.02    6.06
  -2  -6  -5   27.49    7.90
  -2  -6  -4   -1.72    2.17
  -2  -6  -4    1.97    3.34
  -2  -6  -3  385.75   27.27
  -2  -6  -3  387.53   19.60
  -2  -6  -2   21.27    4.65
  -2  -6  -2   39.34    9.66
  -2  -6  -2   24.14    6.71
  -2  -6  -1  653.17   33.90
  -2  -6  -1  664.13   37.04
  -2  -6  -1  624.71   25.52
  -2  -6   0    4.40    3.34
  -2  -6   0    0.52    1.14
  -2  -6   0   -0.31    1.94
  -2  -6   1 1328.36   47.50
  -2  -6   1 1400.85   48.63
  -2  -6   2   45.95    8.31
  -2  -6   2   52.59    9.53
  -2  -6   2   50.78    9.74
  -2  -6   3 1429.43   52.05
  -2  -6   3 1470.76   50.28
  -2  -6   4   26.76    7.54
  -2  -6   4   48.73    9.40
  -2  -6   5 2027.09   66.68
  -2  -6   6  136.53   17.86
  -2  -6   7  741.03   42.93
  -2  -6   8  133.96   19.09
  -2  -6   9  393.45   34.23
  -2  -6   9  432.71   35.52
  -2  -6  10  484.02   39.60
  -2  -6  10  535.31   41.00
  -2  -6  11  304.26   32.18
  -2  -6  11  239.97   29.38
  -2  -6  12  476.52   41.71
  -2  -6  12  430.89   40.64
  -2  -6  13   60.56   15.71
  -2  -5 -11  455.93   37.97
  -2  -5 -10   56.89   12.67
  -2  -5  -9  406.96   32.67
  -2  -5  -8  337.56   28.47
  -2  -5  -8  318.54   22.68
  -2  -5  -7  457.20   31.78
  -2  -5  -7    1.33    2.26
  -2  -5  -6  533.13   33.02
  -2  -5  -5 1087.34   35.86
  -2  -5  -5 1124.12   46.47
  -2  -5  -4 1253.21   36.81
  -2  -5  -4 1205.99   46.39
  -2  -5  -3  463.84   27.58
  -2  -5  -3  432.89   29.96
  -2  -5  -3  436.57   20.89
  -2  -5  -2 2020.99   56.17
  -2  -5  -2 2094.36   62.38
  -2  -5  -2 2108.35   45.10
  -2  -5  -1  429.21   25.41
  -2  -5  -1  454.69   20.89
  -2  -5  -1  466.62   28.60
  -2  -5   0 2864.74   64.45
  -2  -5   0 2842.11   65.82
  -2  -5   0 2762.62   52.55
  -2  -5   1    9.83    3.38
  -2  -5   1    4.10    2.41
  -2  -5   1    6.86    3.37
  -2  -5   2 1540.10   43.00
  -2  -5   2 1549.13   47.69
  -2  -5   2 1626.24   49.47
  -2  -5   3  129.05   14.49
  -2  -5   3  107.63   12.82
  -2  -5   4 1941.79   58.96
  -2  -5   4 1935.30   54.61
  -2  -5   5  314.05   24.54
  -2  -5   6  560.51   34.20
  -2  -5   7  864.13   44.39
  -2  -5   7  927.63   45.61
  -2  -5   8  284.59   26.57
  -2  -5   8  343.98   29.25
  -2  -5   9  804.35   46.36
  -2  -5   9  867.52   48.57
  -2  -5  10  134.04   20.11
  -2  -5  10  149.28   20.83
  -2  -5  11  730.62   47.52
  -2  -5  11  614.09   44.79
  -2  -5  12    1.17    5.14
  -2  -5  12   10.66    5.97
  -2  -5  13  348.00   35.26
  -2  -5  13  342.12   37.16
  -2  -5  14    9.06    5.96
  -2  -4 -12  237.52   27.29
  -2  -4 -11   41.41   11.01
  -2  -4 -10  895.08   47.97
  -2  -4  -9  221.96   20.36
  -2  -4  -9  232.57   23.55
  -2  -4  -8  639.87   32.47
  -2  -4  -8  650.91   37.18
  -2  -4  -7   20.50    6.25
  -2  -4  -7  953.84   43.15
  -2  -4  -6  462.95   28.70
  -2  -4  -5 1327.17   46.67
  -2  -4  -5 1378.90   40.45
  -2  -4  -4   90.76   11.99
  -2  -4  -4  133.21   16.50
  -2  -4  -4  128.42   11.75
  -2  -4  -3 1673.96   54.27
  -2  -4  -3 1557.42   39.13
  -2  -4  -2   27.82    5.17
  -2  -4  -2   23.35    6.28
  -2  -4  -1 1726.83   39.43
  -2  -4  -1 1815.47   34.20
  -2  -4   0  192.39   13.65
  -2  -4   0  220.82   16.41
  -2  -4   0  209.48   15.14
  -2  -4   0  216.35   13.21
  -2  -4   1 1773.02   43.44
  -2  -4   1 1764.12   45.24
  -2  -4   1 1729.12   39.56
  -2  -4   1 1767.39   41.44
  -2  -4   2   50.76    7.51
  -2  -4   2   52.35    6.93
  -2  -4   2   48.02    7.06
  -2  -4   3  604.95   26.18
  -2  -4   4    0.55    1.49
  -2  -4   4  616.71   27.98
  -2  -4   5    1.76    2.82
  -2  -4   5  391.97   23.43
  -2  -4   6  305.36   24.19
  -2  -4   6  299.63   23.92
  -2  -4   7  238.38   21.97
  -2  -4   7  243.69   22.55
  -2  -4   8    9.68    5.09
  -2  -4   8   -0.36    2.45
  -2  -4   9   55.17   11.79
  -2  -4   9   46.29   10.75
  -2  -4  10   -0.93    3.04
  -2  -4  10    3.86    4.09
  -2  -4  11   22.95    8.85
  -2  -4  11   28.45    9.37
  -2  -4  12  107.28   19.50
  -2  -4  12   84.33   16.57
  -2  -4  13   15.98    8.30
  -2  -4  13   15.21    7.14
  -2  -4  14  174.51   25.08
  -2  -4  15    0.84    5.19
  -2  -3 -13  324.27   31.47
  -2  -3 -12   26.33    9.10
  -2  -3 -11  446.68   34.05
  -2  -3 -10  338.83   28.16
  -2  -3  -9  122.42   16.07
  -2  -3  -8  261.57   20.99
  -2  -3  -8  290.72   23.61
  -2  -3  -7  118.61   13.29
  -2  -3  -7  150.28   16.25
  -2  -3  -6   73.97   10.96
  -2  -3  -5  258.21   17.21
  -2  -3  -5  230.17   18.03
  -2  -3  -4   42.02    7.45
  -2  -3  -4   49.63    9.45
  -2  -3  -4   46.01    6.95
  -2  -3  -3   18.56    2.35
  -2  -3  -3   21.71    4.42
  -2  -3  -3   16.99    5.38
  -2  -3  -2    7.90    1.86
  -2  -3  -2    9.81    3.13
  -2  -3  -2    8.26    3.95
  -2  -3  -1    0.37    1.08
  -2  -3  -1    2.64    2.14
  -2  -3  -1   -1.62    1.62
  -2  -3  -1   -2.96    1.64
  -2  -3   0   35.43    5.81
  -2  -3   0   37.38    5.13
  -2  -3   0   41.07    5.83
  -2  -3   0   46.81    6.26
  -2  -3   1  117.37    9.64
  -2  -3   1  120.31   11.22
  -2  -3   1  115.78   10.46
  -2  -3   1  107.53    9.70
  -2  -3   1  122.73    9.82
  -2  -3   2  805.56   27.65
  -2  -3   2  820.13   22.68
  -2  -3   2  766.99   28.99
  -2  -3   2  777.06   29.05
  -2  -3   2  830.71   27.11
  -2  -3   3  262.69   16.86
  -2  -3   3  306.67   17.58
  -2  -3   3  286.57   18.02
  -2  -3   4  124.30   12.01
  -2  -3   5 1097.79   41.36
  -2  -3   5 1083.43   36.67
  -2  -3   6 1065.38   42.99
  -2  -3   6 1064.83   38.51
  -2  -3   7 1279.01   48.82
  -2  -3   7 1224.33   42.89
  -2  -3   8  544.46   33.48
  -2  -3   9 1324.04   55.58
  -2  -3  10  293.75   27.43
  -2  -3  11 1002.16   53.85
  -2  -3  12  106.48   18.55
  -2  -3  13  960.83   58.85
  -2  -3  13  926.10   53.99
  -2  -3  14   20.31    9.86
  -2  -3  14   23.16    8.61
  -2  -3  15  587.35   46.08
  -2  -2 -14    2.77    4.92
  -2  -2 -13   -2.22    4.27
  -2  -2 -12   54.04   12.05
  -2  -2 -11  166.66   19.85
  -2  -2 -10    4.20    3.40
  -2  -2  -9  446.15   11.73
  -2  -2  -9  554.35   32.55
  -2  -2  -8  310.59   23.06
  -2  -2  -8  344.07   24.02
  -2  -2  -7  780.84   34.42
  -2  -2  -7  802.04   34.67
  -2  -2  -6  399.97   28.28
  -2  -2  -6  406.87   23.63
  -2  -2  -6  326.81    8.21
  -2  -2  -5 1296.81   47.46
  -2  -2  -5 1292.62   38.43
  -2  -2  -5 1306.28   39.59
  -2  -2  -4  298.96   17.22
  -2  -2  -4  288.73   17.80
  -2  -2  -3 3684.94   34.64
  -2  -2  -3 3737.17   60.57
  -2  -2  -3 3677.30   57.43
  -2  -2  -2    9.90    3.21
  -2  -2  -2   10.04    2.22
  -2  -2  -2    7.36    3.01
  -2  -2  -2    5.42    2.15
  -2  -2  -1 5262.76   51.00
  -2  -2  -1 5174.09   69.19
  -2  -2  -1 5062.46   62.65
  -2  -2  -1 5227.99   50.18
  -2  -2   0  194.17   12.20
  -2  -2   0  202.17   10.91
  -2  -2   0  212.46   11.48
  -2  -2   0  189.64   11.77
  -2  -2   1 6044.26   64.29
  -2  -2   1 6220.45   58.21
  -2  -2   1 6110.04   69.45
  -2  -2   2  406.46   12.20
  -2  -2   2  416.33   19.48
  -2  -2   2  425.30   18.93
  -2  -2   2  410.50   18.07
  -2  -2   3 4998.84   69.10
  -2  -2   3 5092.27   67.11
  -2  -2   4  800.08   31.76
  -2  -2   4  856.24   29.57
  -2  -2   5 3261.86   66.82
  -2  -2   5 3292.08   60.45
  -2  -2   6 1673.26   50.64
  -2  -2   6 1702.30   45.47
  -2  -2   7 1391.82   43.57
  -2  -2   7 1284.69   46.93
  -2  -2   8  993.54   43.36
  -2  -2   8  978.32   38.01
  -2  -2   9  513.61   33.21
  -2  -2  10  790.76   43.92
  -2  -2  11  105.29   17.01
  -2  -2  12  626.42   43.72
  -2  -2  13    0.83    2.91
  -2  -2  14  242.89   30.29
  -2  -2  15   12.83    7.52
  -2  -1 -15  416.73   36.68
  -2  -1 -14  124.44   19.33
  -2  -1 -13  784.10   45.32
  -2  -1 -12  283.27   25.83
  -2  -1 -11  994.79   46.06
  -2  -1 -10  164.64   11.33
  -2  -1 -10  181.17   18.43
  -2  -1  -9 1821.48   55.69
  -2  -1  -9 1686.42   60.37
  -2  -1  -9 1762.87   34.72
  -2  -1  -8 1292.65   50.34
  -2  -1  -8 1343.73   44.81
  -2  -1  -8 1288.61   27.96
  -2  -1  -7  852.89   38.89
  -2  -1  -7  823.53   38.00
  -2  -1  -7  841.53   41.24
  -2  -1  -7  885.25   34.04
  -2  -1  -7  837.81   20.91
  -2  -1  -6 1830.91   53.42
  -2  -1  -6 1881.99   58.06
  -2  -1  -6 1927.58   47.20
  -2  -1  -5  178.94   15.98
  -2  -1  -5  185.53   17.02
  -2  -1  -5  214.49   15.77
  -2  -1  -5  205.17   14.50
  -2  -1  -4 3117.17   62.01
  -2  -1  -4 3131.62   55.89
  -2  -1  -4 3233.69   53.43
  -2  -1  -3  242.22   13.76
  -2  -1  -3  213.98   15.89
  -2  -1  -3  251.81   16.41
  -2  -1  -3  239.73   14.34
  -2  -1  -2 5341.96   60.82
  -2  -1  -2 5572.50   71.13
  -2  -1  -2 5411.35   71.72
  -2  -1  -2 5358.08   63.90
  -2  -1  -1  866.37   24.64
  -2  -1  -1  833.48   25.48
  -2  -1  -1  839.19   23.20
  -2  -1  -1  863.41   25.57
  -2  -1   0 1196.73   27.76
  -2  -1   0 1243.27   28.12
  -2  -1   0 1249.90   25.68
  -2  -1   0 1204.58   26.07
  -2  -1   0 1171.14   28.25
  -2  -1   1 2042.71   34.92
  -2  -1   1 2056.48   27.51
  -2  -1   2 3918.48   52.39
  -2  -1   3  352.22   18.23
  -2  -1   3  380.79   17.36
  -2  -1   4  878.99   27.90
  -2  -1   4  774.00   28.74
  -2  -1   5  255.97   17.31
  -2  -1   5  249.58   15.84
  -2  -1   6  231.25   17.81
  -2  -1   6  229.01   15.78
  -2  -1   7  378.04   24.08
  -2  -1   7  419.16   22.58
  -2  -1   8   34.43    7.90
  -2  -1   8   50.57    8.41
  -2  -1   9  131.26   16.28
  -2  -1   9  128.86   13.58
  -2  -1  10   22.18    7.27
  -2  -1  11   22.70    7.71
  -2  -1  12    2.70    2.88
  -2  -1  13   -1.49    4.99
  -2  -1  14   26.44   10.57
  -2   0 -15   10.16    6.66
  -2   0 -14  487.31   36.02
  -2   0 -13   16.24    5.93
  -2   0 -12  527.41   37.79
  -2   0 -12  517.77   33.43
  -2   0 -11  156.61   19.74
  -2   0 -11  140.07   16.49
  -2   0 -10  166.86   19.04
  -2   0 -10  169.53   17.11
  -2   0 -10  151.43   12.69
  -2   0  -9  260.66   23.04
  -2   0  -9  266.59   20.09
  -2   0  -9  265.31   15.87
  -2   0  -8   67.83    9.45
  -2   0  -8   73.18   11.56
  -2   0  -8   77.99    7.98
  -2   0  -7  759.38   37.54
  -2   0  -7  739.44   34.76
  -2   0  -7  739.74   29.22
  -2   0  -7  720.32   34.64
  -2   0  -6  170.07   15.77
  -2   0  -6  161.46   16.34
  -2   0  -6  145.86   12.00
  -2   0  -5  271.84   18.70
  -2   0  -5  307.94   20.93
  -2   0  -5  302.44   15.87
  -2   0  -4    3.91    2.16
  -2   0  -4    7.11    2.23
  -2   0  -4    8.28    3.47
  -2   0  -3  416.37   20.65
  -2   0  -3  454.59   19.82
  -2   0  -3  462.94   20.97
  -2   0  -3  451.65   16.22
  -2   0  -2  460.48   15.28
  -2   0  -2  460.50   19.46
  -2   0  -2  444.99   18.10
  -2   0  -1  492.60   18.03
  -2   0  -1  505.05   15.27
  -2   0   0    8.13    2.09
  -2   0   0    6.82    1.85
  -2   0   1  144.71    7.11
  -2   0   2  214.75   11.74
  -2   0   2  213.97   11.85
  -2   0   3   38.11    5.24
  -2   0   3   50.58    6.13
  -2   0   3   50.64    3.67
  -2   0   3   49.92    6.18
  -2   0   4   77.05    7.82
  -2   0   4   74.84    8.16
  -2   0   4   71.99    7.91
  -2   0   4   73.32    5.35
  -2   0   5  187.55   12.99
  -2   0   5  186.07   13.94
  -2   0   5  192.25   10.33
  -2   0   6  478.47   12.65
  -2   0   6  506.69   24.88
  -2   0   6  497.39   19.30
  -2   0   6  505.60   22.44
  -2   0   7  289.18   11.83
  -2   0   7  292.10   20.32
  -2   0   7  314.30   18.32
  -2   0   8  676.50   33.34
  -2   0   8  650.70   19.86
  -2   0   8  675.65   28.27
  -2   0   9    9.85    3.99
  -2   0   9   14.34    5.84
  -2   0  10 1358.79   54.19
  -2   0  11    2.18    2.30
  -2   0  12  877.54   49.22
  -2   0  13    3.69    4.55
  -2   0  14  654.83   47.88
  -2   1 -15   30.45    9.30
  -2   1 -14   14.36    5.63
  -2   1 -14   28.63    9.97
  -2   1 -13    2.84    3.19
  -2   1 -13    4.78    2.82
  -2   1 -12    1.13    1.93
  -2   1 -12    0.23    4.17
  -2   1 -11   25.05    6.09
  -2   1 -11   27.31    8.12
  -2   1 -11   19.85    6.24
  -2   1 -10   12.29    4.82
  -2   1 -10    6.81    3.37
  -2   1 -10    5.80    4.05
  -2   1  -9   17.73    4.55
  -2   1  -9   21.83    5.50
  -2   1  -9   20.53    6.44
  -2   1  -8   22.38    4.83
  -2   1  -8   24.00    5.36
  -2   1  -8   25.80    7.36
  -2   1  -8   28.27    6.95
  -2   1  -7  140.74   14.94
  -2   1  -7  131.78   14.34
  -2   1  -7  119.81   10.93
  -2   1  -7  125.60   15.04
  -2   1  -6  493.27   25.81
  -2   1  -6  527.57   27.23
  -2   1  -6  532.95   28.93
  -2   1  -6  502.21   20.37
  -2   1  -5    2.21    1.34
  -2   1  -5    3.30    1.67
  -2   1  -5    5.03    2.63
  -2   1  -4 1804.93   41.13
  -2   1  -4 1775.18   43.04
  -2   1  -3    7.48    2.55
  -2   1  -3    5.92    2.57
  -2   1  -3    5.96    1.67
  -2   1  -3    8.28    1.82
  -2   1  -2 2733.43   29.20
  -2   1  -2 2807.07   46.20
  -2   1  -2 2726.00   40.83
  -2   1  -1  815.24   15.60
  -2   1  -1  780.50   21.82
  -2   1   0 5456.14   51.13
  -2   1   0 5454.59   54.63
  -2   1   1  593.08   17.66
  -2   1   2 4518.11   47.71
  -2   1   2 4585.78   47.44
  -2   1   2 4565.34   50.08
  -2   1   3 2364.28   38.71
  -2   1   3 2238.43   37.64
  -2   1   3 2310.85   35.58
  -2   1   4 2762.57   45.50
  -2   1   4 2770.39   45.72
  -2   1   4 2776.43   44.27
  -2   1   4 2756.65   42.50
  -2   1   5 3175.11   50.56
  -2   1   5 3167.98   36.83
  -2   1   5 3176.71   50.01
  -2   1   5 3162.98   54.23
  -2   1   6 1814.30   40.03
  -2   1   6 1810.50   31.62
  -2   1   6 1708.43   43.84
  -2   1   6 1794.37   41.89
  -2   1   7 2856.55   61.95
  -2   1   7 2771.47   57.25
  -2   1   7 2841.96   43.77
  -2   1   7 2881.61   52.72
  -2   1   8  872.45   36.96
  -2   1   8  905.33   27.45
  -2   1   8  927.00   31.58
  -2   1   9 1795.56   57.01
  -2   1   9 1810.63   41.38
  -2   1   9 1867.21   46.76
  -2   1  10  363.08   27.52
  -2   1  10  343.14   19.20
  -2   1  10  354.03   21.31
  -2   1  11 1203.51   53.40
  -2   1  11 1302.61   39.76
  -2   1  12   44.71   11.15
  -2   1  13  500.79   38.77
  -2   1  14    1.37    4.27
  -2   2 -14  124.41   19.84
  -2   2 -14  133.51   17.61
  -2   2 -13   89.83   16.02
  -2   2 -13  105.88   14.81
  -2   2 -12  305.79   28.19
  -2   2 -12  333.38   24.63
  -2   2 -11  785.38   42.95
  -2   2 -11  713.43   33.83
  -2   2 -10  517.09   26.73
  -2   2 -10  515.73   33.08
  -2   2 -10  536.61   27.96
  -2   2  -9 1417.91   52.50
  -2   2  -9 1469.79   41.97
  -2   2  -8  605.53   34.11
  -2   2  -8  530.48   30.30
  -2   2  -8  526.47   23.37
  -2   2  -7 2931.98   67.20
  -2   2  -7 3002.64   67.66
  -2   2  -7 2993.42   50.85
  -2   2  -6  326.31   20.56
  -2   2  -6  296.27   20.25
  -2   2  -6  298.01   14.33
  -2   2  -5 4679.52   71.49
  -2   2  -5 4728.99   49.56
  -2   2  -5 4581.07   75.39
  -2   2  -4  150.76    7.56
  -2   2  -4  136.60   10.95
  -2   2  -4  143.55   12.40
  -2   2  -4  149.39   10.15
  -2   2  -3 4295.76   54.61
  -2   2  -3 4493.23   53.25
  -2   2  -3 4361.75   63.36
  -2   2  -3 4336.12   31.19
  -2   2  -2   14.93    2.84
  -2   2  -2   17.32    3.78
  -2   2  -1 6601.69   63.14
  -2   2  -1 6825.09   47.83
  -2   2   0  258.53   11.29
  -2   2   1 5807.62   50.76
  -2   2   2 1164.50   29.81
  -2   2   2 1153.97   19.75
  -2   2   2 1144.86   22.66
  -2   2   3 2882.85   38.98
  -2   2   3 3038.19   38.43
  -2   2   3 2979.22   49.59
  -2   2   4  119.11    8.95
  -2   2   4   95.55    9.47
  -2   2   5 1024.03   29.84
  -2   2   5 1091.93   34.04
  -2   2   5 1094.78   28.33
  -2   2   6  700.19   23.56
  -2   2   6  657.43   22.87
  -2   2   6  671.11   28.52
  -2   2   6  690.64   27.22
  -2   2   7  216.40   16.65
  -2   2   7  226.79   14.59
  -2   2   7  237.12   14.37
  -2   2   8  114.07   13.13
  -2   2   8  113.05   10.97
  -2   2   8   93.11    9.45
  -2   2   9   -0.54    1.65
  -2   2   9   -1.18    3.14
  -2   2   9   -0.42    2.34
  -2   2   9    2.16    1.92
  -2   2  10   86.60   13.31
  -2   2  10   81.77   13.19
  -2   2  10   84.24    9.82
  -2   2  11    1.31    2.11
  -2   2  12   11.05    5.86
  -2   2  13    1.38    3.09
  -2   2  14    7.60    5.95
  -2   3 -14  106.98   18.04
  -2   3 -13  804.25   47.80
  -2   3 -13  886.54   40.78
  -2   3 -12  344.19   24.02
  -2   3 -12  313.56   28.45
  -2   3 -11  677.33   39.94
  -2   3 -11  680.67   31.71
  -2   3 -10  466.57   31.71
  -2   3 -10  439.84   23.71
  -2   3  -9  440.17   21.95
  -2   3  -9  464.01   30.08
  -2   3  -9  452.66   26.29
  -2   3  -8  611.59   32.84
  -2   3  -8  623.90   23.81
  -2   3  -7  398.28   22.19
  -2   3  -7  433.49   26.50
  -2   3  -7  398.43   24.52
  -2   3  -6  983.52   35.20
  -2   3  -6  933.57   36.51
  -2   3  -6  890.07   32.32
  -2   3  -5   -0.57    1.37
  -2   3  -5    0.47    1.23
  -2   3  -5    0.43    1.72
  -2   3  -5    0.49    1.45
  -2   3  -4  729.23   28.33
  -2   3  -4  791.92   30.00
  -2   3  -4  799.49   26.11
  -2   3  -4  760.98   26.99
  -2   3  -4  740.00   13.64
  -2   3  -3   13.69    3.20
  -2   3  -3   17.64    4.28
  -2   3  -3   20.47    4.68
  -2   3  -3   22.65    4.61
  -2   3  -2  341.79   12.73
  -2   3  -2  326.07   17.65
  -2   3  -1   41.00    3.44
  -2   3   0  117.79    7.52
  -2   3   1   18.20    2.73
  -2   3   1    8.65    2.99
  -2   3   2  220.92   15.20
  -2   3   2  249.43    7.79
  -2   3   2  236.91    9.09
  -2   3   3   16.52    4.48
  -2   3   3   23.68    3.18
  -2   3   3   28.55    3.41
  -2   3   4  392.40   15.77
  -2   3   4  431.60   22.77
  -2   3   5    6.74    2.49
  -2   3   6   71.08    7.23
  -2   3   6   73.08    8.75
  -2   3   7  151.72   13.88
  -2   3   7  132.28   12.58
  -2   3   7  134.14   10.22
  -2   3   7  162.10   16.46
  -2   3   8  103.66   13.88
  -2   3   8   68.24   10.14
  -2   3   8   89.94    8.76
  -2   3   9  228.74   21.82
  -2   3   9  214.21   19.24
  -2   3   9  247.47   15.14
  -2   3  10   59.52   10.97
  -2   3  10   71.44   10.90
  -2   3  10   61.53   11.91
  -2   3  10   63.64    7.87
  -2   3  11   69.35   11.42
  -2   3  11  107.21   16.76
  -2   3  11   95.78   14.95
  -2   3  12   26.50    8.70
  -2   3  12   26.72    8.71
  -2   3  13  217.49   25.32
  -2   3  14   69.22   15.24
  -2   4 -14   13.78    9.09
  -2   4 -13    1.56    3.04
  -2   4 -12    4.97    3.56
  -2   4 -12    1.55    3.01
  -2   4 -11   49.10    8.18
  -2   4 -11   36.46    8.46
  -2   4 -11   45.01   10.73
  -2   4 -10    4.22    2.88
  -2   4 -10    4.70    3.69
  -2   4  -9    6.58    3.43
  -2   4  -9    5.60    3.53
  -2   4  -8   13.47    4.96
  -2   4  -8   12.51    5.15
  -2   4  -7   56.36    9.39
  -2   4  -7   64.02   10.51
  -2   4  -6  131.09   13.01
  -2   4  -6  120.72   13.57
  -2   4  -5  125.76   13.31
  -2   4  -5  119.96   12.42
  -2   4  -5  111.72    6.93
  -2   4  -5  105.23   10.64
  -2   4  -4    8.27    1.51
  -2   4  -4   13.52    3.50
  -2   4  -4   10.50    3.64
  -2   4  -3  855.80   33.36
  -2   4  -3  852.54   24.04
  -2   4  -3  869.68   31.81
  -2   4  -2   14.19    2.74
  -2   4  -2   15.91    1.76
  -2   4  -1  922.62   16.82
  -2   4   0  233.56   15.97
  -2   4   0  225.89   10.28
  -2   4   1 1871.23   43.71
  -2   4   1 1882.66   24.92
  -2   4   2  333.96    9.36
  -2   4   2  358.22   21.84
  -2   4   2  322.16    8.46
  -2   4   3  344.13   12.28
  -2   4   4 1791.26   34.18
  -2   4   5   99.07   12.87
  -2   4   5  548.85   21.41
  -2   4   6 1113.55   33.98
  -2   4   6 1132.90   44.69
  -2   4   6 1151.10   28.37
  -2   4   7  216.59   12.44
  -2   4   7  187.41   15.28
  -2   4   7  192.06   19.40
  -2   4   8 1707.77   50.34
  -2   4   8 1754.75   61.01
  -2   4   8 1743.63   52.91
  -2   4   8 1764.57   35.84
  -2   4   9   85.72   12.25
  -2   4   9   69.55   11.02
  -2   4   9   53.00   11.38
  -2   4   9   81.44    7.83
  -2   4  10 1423.46   53.35
  -2   4  10 1424.90   52.41
  -2   4  10 1510.52   62.62
  -2   4  10 1521.98   34.25
  -2   4  11   59.44   11.80
  -2   4  11   31.70    9.64
  -2   4  12 1046.34   52.14
  -2   4  12 1029.20   56.53
  -2   4  13  119.64   18.64
  -2   4  13  139.36   21.84
  -2   4  14  501.11   40.78
  -2   5 -14   28.66    9.90
  -2   5 -13   74.26   14.91
  -2   5 -12  120.94   18.49
  -2   5 -11  195.45   15.56
  -2   5 -11  177.50   21.24
  -2   5 -10  526.57   35.49
  -2   5  -9   87.55   13.82
  -2   5  -9   95.99   14.24
  -2   5  -9  100.72   10.60
  -2   5  -8  870.15   41.55
  -2   5  -8  823.36   40.42
  -2   5  -8  838.11   27.63
  -2   5  -7   24.99    6.35
  -2   5  -7   31.10    7.61
  -2   5  -7   31.86    4.93
  -2   5  -7   34.70    8.33
  -2   5  -6 1827.25   49.42
  -2   5  -6 1819.09   31.97
  -2   5  -6 1741.73   57.16
  -2   5  -6 1778.52   54.84
  -2   5  -5   92.50   10.20
  -2   5  -5   92.27    6.19
  -2   5  -5   90.82   11.90
  -2   5  -5   95.17   13.11
  -2   5  -4 3313.59   75.10
  -2   5  -4 3452.53   33.32
  -2   5  -4 3629.71   57.74
  -2   5  -4 3748.85   74.71
  -2   5  -3  460.21   18.49
  -2   5  -3  473.12   25.92
  -2   5  -3  457.07   11.94
  -2   5  -2 3780.20   45.60
  -2   5  -2 3798.78   37.89
  -2   5  -1  323.35   21.79
  -2   5  -1  322.87   11.40
  -2   5  -1  335.62   12.80
  -2   5   0 1706.97   48.31
  -2   5   0 1701.19   28.89
  -2   5   0 1661.81   22.25
  -2   5   1 1213.44   19.67
  -2   5   1 1244.97   19.19
  -2   5   1 1218.19   18.19
  -2   5   2 2319.83   28.32
  -2   5   2 2371.52   54.04
  -2   5   3 2985.41   38.52
  -2   5   3   -1.26    1.91
  -2   5   4  832.03   23.67
  -2   5   4  798.90   37.53
  -2   5   5 1617.65   37.24
  -2   5   5 1572.55   54.71
  -2   5   6  262.38   16.59
  -2   5   6  241.27   22.29
  -2   5   7 1565.77   31.98
  -2   5   7 1531.30   44.22
  -2   5   7 1503.74   57.94
  -2   5   8  121.22   13.44
  -2   5   8  108.55   14.46
  -2   5   8  128.12   17.68
  -2   5   8  116.55    8.50
  -2   5   9  764.90   36.37
  -2   5   9  742.45   44.75
  -2   5   9  749.37   21.03
  -2   5  10   90.03   13.43
  -2   5  10   92.89   16.60
  -2   5  11  383.37   35.01
  -2   5  11  401.18   30.43
  -2   5  12   29.08   10.25
  -2   5  12   22.30    8.18
  -2   5  13   47.97   11.82
  -2   5  13   83.48   18.08
  -2   5  14    4.10    4.79
  -2   6 -13  504.66   39.60
  -2   6 -12  330.60   30.70
  -2   6 -11  833.87   47.25
  -2   6 -10  254.04   25.14
  -2   6  -9 1438.65   57.66
  -2   6  -9 1474.22   38.62
  -2   6  -8    8.93    4.04
  -2   6  -8   19.66    4.30
  -2   6  -7 2641.90   73.15
  -2   6  -7 2686.64   42.74
  -2   6  -7 2682.10   66.09
  -2   6  -6  264.39   19.26
  -2   6  -6  266.32   12.13
  -2   6  -5 1374.22   40.48
  -2   6  -5 1340.74   25.10
  -2   6  -5 1443.99   51.89
  -2   6  -4    9.26    3.08
  -2   6  -4    5.33    3.16
  -2   6  -4    6.80    1.83
  -2   6  -3 1255.01   49.55
  -2   6  -3 1260.18   31.98
  -2   6  -3 1276.38   46.52
  -2   6  -3 1289.36   24.94
  -2   6  -2  111.78   13.82
  -2   6  -2  124.50    9.12
  -2   6  -2  112.94    8.03
  -2   6  -2  108.10   13.62
  -2   6  -1  875.82   39.48
  -2   6  -1  927.83   39.77
  -2   6  -1  909.94   24.95
  -2   6  -1  903.15   22.03
  -2   6   0  153.75    8.85
  -2   6   0  140.05   15.42
  -2   6   0  161.78   17.01
  -2   6   0  145.18    8.24
  -2   6   1  620.79   11.96
  -2   6   1  675.46   32.73
  -2   6   1  647.35   18.02
  -2   6   2  126.14    7.68
  -2   6   2  114.81   13.16
  -2   6   2  104.87   14.06
  -2   6   3   28.07    4.05
  -2   6   3   27.03    6.28
  -2   6   3   33.77    8.27
  -2   6   4   73.95    7.54
  -2   6   4   89.98   13.85
  -2   6   5   53.73   11.13
  -2   6   5   70.26    7.97
  -2   6   6   11.33    5.15
  -2   6   6   15.83    4.58
  -2   6   7   17.72    3.35
  -2   6   7   20.37    5.23
  -2   6   7   20.99    7.91
  -2   6   8   50.01    8.88
  -2   6   8   36.39   10.43
  -2   6   8   42.58    4.70
  -2   6   9    0.09    1.58
  -2   6   9   -0.21    4.24
  -2   6  10  389.09   28.21
  -2   6  10  348.91   33.84
  -2   6  11    3.01    2.48
  -2   6  11    8.97    6.20
  -2   6  12  142.63   19.44
  -2   6  12  115.64   21.28
  -2   6  13   50.53   12.50
  -2   6  13    4.18    6.17
  -2   7 -13  184.13   24.59
  -2   7 -12   74.46   15.11
  -2   7 -11  117.81   18.78
  -2   7 -10   33.15    9.20
  -2   7  -9   85.28   14.71
  -2   7  -8   30.82    9.10
  -2   7  -7   18.99    3.66
  -2   7  -6   20.89    5.68
  -2   7  -6   28.88    4.25
  -2   7  -5    0.23    1.13
  -2   7  -5    1.13    1.46
  -2   7  -4  158.34   17.71
  -2   7  -4  169.01   13.68
  -2   7  -4  158.21    9.76
  -2   7  -3    1.60    1.62
  -2   7  -3    2.22    2.56
  -2   7  -3    3.71    1.37
  -2   7  -2  428.61   18.33
  -2   7  -2  382.67   27.60
  -2   7  -2  394.15   17.20
  -2   7  -2  370.87   28.75
  -2   7  -1  238.25   12.84
  -2   7  -1  244.50   22.34
  -2   7  -1  268.62   15.34
  -2   7  -1  232.56   21.12
  -2   7  -1  235.59   22.31
  -2   7   0  410.10   16.15
  -2   7   0  427.18   14.57
  -2   7   0  412.00   28.66
  -2   7   0  466.42   31.08
  -2   7   0  452.95   15.44
  -2   7   1  630.14   20.55
  -2   7   1  712.58   36.87
  -2   7   1  682.77   38.26
  -2   7   2  681.65   34.85
  -2   7   2  624.94   19.35
  -2   7   2  647.65   37.89
  -2   7   3  117.90   14.11
  -2   7   3  122.24    9.19
  -2   7   3  132.52   17.55
  -2   7   4  269.76   14.84
  -2   7   4  298.67   26.91
  -2   7   5 1018.76   51.19
  -2   7   5 1032.77   32.03
  -2   7   6  164.53   13.89
  -2   7   6  144.47   19.83
  -2   7   7  988.28   53.83
  -2   7   7 1055.09   38.26
  -2   7   7  998.28   24.28
  -2   7   8   32.14   10.54
  -2   7   8   38.63    8.18
  -2   7   9  695.48   48.80
  -2   7   9  678.29   35.04
  -2   7  10   48.88   13.72
  -2   7  10   37.37    8.64
  -2   7  11  386.38   39.26
  -2   7  11  409.80   31.37
  -2   7  12   38.91   13.42
  -2   8 -13  134.14   21.94
  -2   8 -12  145.44   21.80
  -2   8 -11  225.30   26.59
  -2   8 -10  119.88   18.57
  -2   8  -9  452.73   35.47
  -2   8  -8  142.94   19.51
  -2   8  -6    4.09    3.12
  -2   8  -6    2.27    2.60
  -2   8  -6    2.75    1.49
  -2   8  -5 1124.62   50.67
  -2   8  -5 1114.20   39.46
  -2   8  -5 1163.70   28.88
  -2   8  -4   77.42    7.71
  -2   8  -4   70.10    9.45
  -2   8  -4   65.92   12.24
  -2   8  -3 1187.81   31.73
  -2   8  -3 1082.00   49.49
  -2   8  -3 1115.67   34.24
  -2   8  -2  297.45   16.57
  -2   8  -2  278.12   16.80
  -2   8  -2  306.51   26.45
  -2   8  -2  280.64   16.35
  -2   8  -1 1046.75   28.65
  -2   8  -1 1055.08   29.84
  -2   8  -1 1083.63   50.83
  -2   8  -1 1046.63   33.52
  -2   8   0  526.01   20.31
  -2   8   0  519.42   35.26
  -2   8   0  494.56   16.10
  -2   8   0  504.30   16.03
  -2   8   1  595.84   21.90
  -2   8   1  598.10   38.39
  -2   8   2 1152.14   54.26
  -2   8   2 1099.40   28.24
  -2   8   3  694.86   23.39
  -2   8   3  731.78   38.19
  -2   8   3  725.53   43.67
  -2   8   4 1887.03   41.31
  -2   8   4 1823.02   59.10
  -2   8   4 1861.91   72.44
  -2   8   5    7.73    2.87
  -2   8   5    5.94    5.88
  -2   8   6  664.73   28.73
  -2   8   6  649.45   45.01
  -2   8   7   24.10    6.08
  -2   8   7   26.79    9.83
  -2   8   8  743.87   35.20
  -2   8   8  721.61   50.85
  -2   8   9   -0.17    1.74
  -2   8   9   -0.57    3.53
  -2   8  10  619.19   50.45
  -2   9 -12  232.35   28.68
  -2   9 -11  119.15   20.46
  -2   9 -11   59.92   14.56
  -2   9 -10  568.08   42.59
  -2   9 -10  631.77   44.26
  -2   9  -9   20.92    8.75
  -2   9  -9   18.71    7.64
  -2   9  -9   14.93    7.04
  -2   9  -8  650.22   40.64
  -2   9  -8  576.91   39.74
  -2   9  -7   10.71    4.75
  -2   9  -7   14.50    5.97
  -2   9  -6  891.99   48.18
  -2   9  -6  898.53   42.45
  -2   9  -5   65.20   12.65
  -2   9  -5   79.34   11.90
  -2   9  -5   81.93   11.30
  -2   9  -4  953.00   38.28
  -2   9  -4  989.64   36.71
  -2   9  -4  942.61   49.26
  -2   9  -4 1009.02   31.00
  -2   9  -3  251.65   18.19
  -2   9  -3  271.32   17.98
  -2   9  -3  260.43   25.81
  -2   9  -3  275.23   17.02
  -2   9  -2 1123.62   34.71
  -2   9  -2 1105.95   35.86
  -2   9  -2 1123.43   34.88
  -2   9  -2 1182.06   55.91
  -2   9  -1  466.13   35.28
  -2   9  -1  509.85   25.36
  -2   9  -1  478.84   21.56
  -2   9  -1  499.01   20.06
  -2   9   0  337.77   12.80
  -2   9   0  387.97   32.47
  -2   9   0  351.55   18.11
  -2   9   0  381.03   13.35
  -2   9   1  408.13   19.52
  -2   9   1  425.23   19.04
  -2   9   1  425.10   34.44
  -2   9   2  291.53   17.44
  -2   9   2  325.21   16.57
  -2   9   3   80.03    8.59
  -2   9   3   80.62   15.94
  -2   9   4   54.49    7.39
  -2   9   4   75.15   15.64
  -2   9   5  165.63   13.85
  -2   9   5  167.59   23.56
  -2   9   6  119.15   20.70
  -2   9   6  106.53   12.03
  -2   9   7  113.59   20.56
  -2   9   8   46.79   14.65
  -2   9   9    2.60    3.34
  -2  10 -11  191.42   26.42
  -2  10 -10   13.39    7.94
  -2  10 -10    7.21    5.82
  -2  10 -10   -0.77    3.43
  -2  10  -9  322.48   32.97
  -2  10  -9  290.04   29.96
  -2  10  -9  247.60   27.33
  -2  10  -8   24.48    8.54
  -2  10  -8   15.99    7.27
  -2  10  -7  171.40   20.36
  -2  10  -7  150.67   21.19
  -2  10  -6    2.74    3.26
  -2  10  -6    9.45    7.29
  -2  10  -5   48.55    9.79
  -2  10  -5   51.06   12.25
  -2  10  -4   15.55    5.44
  -2  10  -4   12.39    6.51
  -2  10  -3   13.08    6.67
  -2  10  -3    8.01    3.61
  -2  10  -2   71.15   15.31
  -2  10  -2   85.04    9.75
  -2  10  -1   36.20    5.45
  -2  10  -1   63.67   14.02
  -2  10   0  188.49   24.20
  -2  10   1   24.73    5.01
  -2  10   1   20.10    8.72
  -2  10   2  177.71   24.15
  -2  10   3   -0.03    3.35
  -2  10   4  346.21   35.35
  -2  10   5  124.65   21.44
  -2  10   6  939.97   61.33
  -2  10   7    0.59    6.41
  -2  11  -9   -3.41    6.38
  -2  11  -9   -0.81    4.05
  -2  11  -8  363.80   34.67
  -2  11  -8  434.09   34.83
  -2  11  -7   11.40    6.74
  -2  11  -7    8.33    6.41
  -2  11  -6  374.33   28.95
  -2  11  -6  303.95   31.70
  -2  11  -5   52.48   10.16
  -2  11  -5   57.26   14.08
  -2  11  -4  684.82   47.55
  -2  11  -3   57.00   14.01
  -2  11  -2  479.68   40.21
  -2  11  -1  275.41   31.01
  -2  11   0  552.76   43.88
  -2  11   1  557.69   44.73
  -2  11   2  242.59   30.78
  -2  11   3  666.98   50.97
  -2  11   4  133.87   23.04
  -2  11   5  529.81   47.72
  -2  12  -8    1.68    6.78
  -2  12  -7  449.25   40.98
  -2  12  -6   14.45    9.15
  -2  12  -5  471.51   41.43
  -2  12  -4  113.08   20.83
  -2  12  -3  245.11   30.05
  -2  12  -2  166.50   25.15
  -2  12  -1  189.37   27.06
  -2  12   0  347.31   37.00
  -2  12   1   33.74   11.31
  -2  12   2  201.33   29.39
  -2  13  -6   60.25   16.64
  -2  13  -5   29.00   11.96
  -2  13  -4   67.20   17.12
  -2  13  -3   53.64   15.09
  -1 -12  -1   10.11    5.09
  -1 -12   0  944.56   57.23
  -1 -12   1  101.67   18.83
  -1 -12   2  579.59   44.19
  -1 -12   3   85.30   16.97
  -1 -12   4  510.88   40.45
  -1 -11  -4   41.34   11.90
  -1 -11  -3  246.50   29.13
  -1 -11  -2    3.04    5.85
  -1 -11  -1  168.59   22.94
  -1 -11   0   13.04    6.59
  -1 -11   1   16.36    7.01
  -1 -11   2   29.90    8.89
  -1 -11   3   -2.71    2.85
  -1 -11   4   15.88    7.67
  -1 -11   5    8.50    5.69
  -1 -10  -6   49.61   13.10
  -1 -10  -5   21.71    8.04
  -1 -10  -4   45.33   11.91
  -1 -10  -3   50.64   12.37
  -1 -10  -2  356.86   31.84
  -1 -10  -1   33.53    9.71
  -1 -10   0  453.99   34.61
  -1 -10   1    6.74    4.34
  -1 -10   2  244.09   25.01
  -1 -10   3   70.38   13.40
  -1 -10   4  300.18   27.59
  -1 -10   5  209.99   23.00
  -1  -9  -7  339.77   33.23
  -1  -9  -6   51.58   12.73
  -1  -9  -5  798.10   48.02
  -1  -9  -4   43.97   11.24
  -1  -9  -3  636.69   40.42
  -1  -9  -2   17.69    6.40
  -1  -9  -1  700.72   40.71
  -1  -9   0  325.61   27.40
  -1  -9   1  654.61   38.52
  -1  -9   2  690.63   39.30
  -1  -9   3  618.72   37.00
  -1  -9   4  788.39   41.84
  -1  -9   5  386.46   29.34
  -1  -8  -9  227.96   27.82
  -1  -8  -8  721.42   47.52
  -1  -8  -7    1.47    2.66
  -1  -8  -6 1002.21   51.91
  -1  -8  -5    3.98    4.65
  -1  -8  -4  843.01   44.69
  -1  -8  -3  109.64   16.00
  -1  -8  -2 1104.59   48.69
  -1  -8  -1  184.19   19.60
  -1  -8   0 1159.09   47.83
  -1  -8   1  161.06   17.70
  -1  -8   2  268.15   22.81
  -1  -8   3  104.06   14.34
  -1  -8   4  163.54   17.82
  -1  -8   5  134.16   16.26
  -1  -8   7    0.84    3.97
  -1  -8   8    4.38    5.36
  -1  -8   9   33.42   10.89
  -1  -8  10   15.37    7.15
  -1  -8  11   69.25   16.86
  -1  -8  12    7.03    6.11
  -1  -8  12    0.41    4.48
  -1  -7 -10   51.19   13.32
  -1  -7  -9  109.11   18.38
  -1  -7  -8   20.83    8.21
  -1  -7  -7   57.99   12.65
  -1  -7  -6   85.71   14.47
  -1  -7  -5   22.53    3.51
  -1  -7  -5   20.70    6.68
  -1  -7  -4    5.53    1.84
  -1  -7  -4    6.29    4.53
  -1  -7  -3    5.21    1.68
  -1  -7  -3    3.18    2.32
  -1  -7  -2   57.44   10.39
  -1  -7  -2   69.48    6.52
  -1  -7  -1  120.66   14.58
  -1  -7   0  123.65   16.26
  -1  -7   0   96.18   12.69
  -1  -7   1  307.76   24.76
  -1  -7   1  268.21   21.26
  -1  -7   2  374.51   25.11
  -1  -7   3  310.91   22.73
  -1  -7   4  564.44   30.86
  -1  -7   5  417.57   26.60
  -1  -7   5  397.66   30.51
  -1  -7   6  967.04   49.03
  -1  -7   7  230.60   25.01
  -1  -7   8  776.86   47.10
  -1  -7   9   11.94    6.08
  -1  -7   9    1.00    4.38
  -1  -7  10  712.23   48.25
  -1  -7  10  840.17   52.40
  -1  -7  11   -2.44    2.90
  -1  -7  11    0.03    5.05
  -1  -7  12  565.51   47.04
  -1  -7  12  586.71   46.93
  -1  -7  13   -0.24    4.23
  -1  -6 -11    8.92    5.17
  -1  -6 -10  240.98   26.66
  -1  -6  -9   17.84    7.01
  -1  -6  -8  480.86   34.19
  -1  -6  -7  144.53   12.25
  -1  -6  -7  148.70   18.45
  -1  -6  -6  889.72   43.05
  -1  -6  -6  951.13   28.78
  -1  -6  -5    3.21    1.86
  -1  -6  -5    6.05    4.49
  -1  -6  -4 1796.45   56.76
  -1  -6  -4 1831.00   34.39
  -1  -6  -3  101.63   13.01
  -1  -6  -3  102.26    7.80
  -1  -6  -2 2022.13   35.11
  -1  -6  -2 2002.53   65.03
  -1  -6  -2 1870.35   54.18
  -1  -6  -1  183.93   11.35
  -1  -6  -1  204.98   17.54
  -1  -6  -1  180.68   18.64
  -1  -6   0 1753.04   50.18
  -1  -6   0 1741.42   37.49
  -1  -6   0 1822.32   56.91
  -1  -6   1  930.38   38.90
  -1  -6   1  899.06   35.69
  -1  -6   2   73.92   10.68
  -1  -6   3    0.57    1.12
  -1  -6   3 1367.26   49.65
  -1  -6   4   10.10    4.50
  -1  -6   4  612.57   34.15
  -1  -6   5 1252.00   50.50
  -1  -6   6   38.22    9.37
  -1  -6   7 2121.08   69.10
  -1  -6   7 2096.25   70.55
  -1  -6   8   79.45   14.07
  -1  -6   8   55.62   11.76
  -1  -6   9 1168.30   56.67
  -1  -6   9 1041.71   53.22
  -1  -6  10   31.56   10.38
  -1  -6  10   20.72    7.23
  -1  -6  11  667.57   46.85
  -1  -6  11  614.42   43.87
  -1  -6  12   54.01   14.63
  -1  -6  12   75.24   15.72
  -1  -6  13  325.00   36.08
  -1  -6  13  346.40   35.55
  -1  -6  14   82.18   19.05
  -1  -5 -12  273.39   29.42
  -1  -5 -11  415.12   34.71
  -1  -5 -10  191.42   22.57
  -1  -5  -9  992.55   38.46
  -1  -5  -9 1008.41   49.42
  -1  -5  -8  119.47   16.40
  -1  -5  -7 1511.42   41.83
  -1  -5  -7 1475.42   54.57
  -1  -5  -6   18.58    4.51
  -1  -5  -6   25.00    7.05
  -1  -5  -5 1666.34   52.39
  -1  -5  -5 1658.38   37.39
  -1  -5  -4   35.55    5.16
  -1  -5  -4   30.55    8.40
  -1  -5  -4   28.97    6.86
  -1  -5  -3 1555.92   31.95
  -1  -5  -3 1554.20   47.08
  -1  -5  -3 1628.97   55.90
  -1  -5  -2  640.04   29.15
  -1  -5  -2  629.72   33.79
  -1  -5  -2  620.68   19.31
  -1  -5  -1 2048.77   57.20
  -1  -5  -1 2017.32   35.66
  -1  -5   0  909.58   25.70
  -1  -5   0  978.89   37.61
  -1  -5   1  529.55   26.26
  -1  -5   1  551.57   21.48
  -1  -5   2 1508.07   42.56
  -1  -5   3   -2.80    2.25
  -1  -5   4   -4.32    2.82
  -1  -5   5  440.17   27.99
  -1  -5   6  661.99   35.48
  -1  -5   6  668.52   36.01
  -1  -5   7   45.12   10.09
  -1  -5   7   54.15   10.89
  -1  -5   8  152.09   18.36
  -1  -5   8  152.12   18.81
  -1  -5   9    1.11    3.74
  -1  -5   9    6.02    4.55
  -1  -5  10   17.00    6.91
  -1  -5  10   23.08    8.02
  -1  -5  11   32.63    9.83
  -1  -5  11   15.89    7.48
  -1  -5  12    8.12    6.03
  -1  -5  12    4.98    5.89
  -1  -5  13   59.19   15.16
  -1  -5  13   63.06   14.79
  -1  -5  14    5.84    5.57
  -1  -5  15   19.02    7.34
  -1  -4 -13  246.79   27.51
  -1  -4 -12  613.92   41.96
  -1  -4 -11   40.83   10.30
  -1  -4 -10  433.79   32.23
  -1  -4  -9   53.44   10.79
  -1  -4  -9   54.26    9.40
  -1  -4  -8   -2.21    2.04
  -1  -4  -8  497.30   31.28
  -1  -4  -7   -0.54    2.05
  -1  -4  -6  578.14   24.62
  -1  -4  -6  622.82   31.46
  -1  -4  -5  108.61    9.82
  -1  -4  -5  121.51   15.63
  -1  -4  -5  143.32   14.43
  -1  -4  -4  759.21   37.50
  -1  -4  -4  760.64   23.91
  -1  -4  -3    5.45    4.00
  -1  -4  -3    3.44    1.50
  -1  -4  -2  115.58   13.13
  -1  -4  -2  113.66    8.22
  -1  -4  -1   34.25    6.65
  -1  -4  -1   40.48    4.83
  -1  -4   0   73.26    6.79
  -1  -4   0   87.29   10.26
  -1  -4   0   87.75    9.41
  -1  -4   1   74.57    7.41
  -1  -4   1   74.92    9.13
  -1  -4   1   78.93    8.98
  -1  -4   1   69.62    8.14
  -1  -4   2    2.24    1.84
  -1  -4   2    4.03    2.42
  -1  -4   3  549.10   23.67
  -1  -4   4    0.75    2.05
  -1  -4   5 1613.30   49.51
  -1  -4   6  104.38   13.39
  -1  -4   6  103.61   13.26
  -1  -4   7 1383.35   51.54
  -1  -4   7 1411.28   51.02
  -1  -4   8    4.74    3.98
  -1  -4   8    6.76    3.44
  -1  -4   9 1074.14   49.19
  -1  -4   9 1075.44   49.29
  -1  -4  10   90.04   15.23
  -1  -4  10   64.57   12.73
  -1  -4  11 1319.33   58.88
  -1  -4  11 1162.41   57.80
  -1  -4  12   56.16   13.22
  -1  -4  12   29.54    9.81
  -1  -4  13  645.15   47.95
  -1  -4  13  674.03   45.62
  -1  -4  14   88.94   17.52
  -1  -4  15  381.50   36.86
  -1  -3 -13   -1.45    2.75
  -1  -3 -12   32.72    9.80
  -1  -3 -11  127.25   17.47
  -1  -3 -10    8.73    4.37
  -1  -3  -9   23.39    7.08
  -1  -3  -8  107.06   13.57
  -1  -3  -7  535.31   28.75
  -1  -3  -6   65.45    8.36
  -1  -3  -6   62.93    9.43
  -1  -3  -6   80.80   12.83
  -1  -3  -5 1643.75   54.52
  -1  -3  -5 1622.11   37.94
  -1  -3  -5 1535.81   43.43
  -1  -3  -4  651.80   32.04
  -1  -3  -4  589.09   21.06
  -1  -3  -3 2235.00   37.87
  -1  -3  -3 2246.85   55.84
  -1  -3  -2 1265.65   26.37
  -1  -3  -2 1310.87   39.60
  -1  -3  -1 3264.53   57.17
  -1  -3  -1 3200.14   40.63
  -1  -3   0 1471.78   35.47
  -1  -3   0 1521.39   33.76
  -1  -3   0 1475.29   33.73
  -1  -3   0 1474.29   28.33
  -1  -3   1 3206.74   44.89
  -1  -3   1 3272.23   50.02
  -1  -3   1 3248.53   48.58
  -1  -3   1 3296.71   52.48
  -1  -3   2 5678.64   67.59
  -1  -3   2 5722.89   74.64
  -1  -3   2 5749.40   65.77
  -1  -3   2 5688.28   65.77
  -1  -3   3 2332.18   44.92
  -1  -3   3 2262.75   49.23
  -1  -3   3 2392.67   45.82
  -1  -3   4 3315.50   62.63
  -1  -3   5 1790.02   48.83
  -1  -3   6 1910.15   53.12
  -1  -3   7   56.66    9.79
  -1  -3   8 2272.69   65.24
  -1  -3   9   32.36    8.31
  -1  -3  10 1315.49   55.70
  -1  -3  10 1290.07   53.56
  -1  -3  11  140.92   19.35
  -1  -3  11  123.52   17.58
  -1  -3  12  447.70   36.70
  -1  -3  12  417.68   33.33
  -1  -3  13  130.14   20.89
  -1  -3  13  105.12   17.48
  -1  -3  14  174.22   25.61
  -1  -3  14  146.70   21.40
  -1  -3  15  114.05   19.79
  -1  -2 -14  301.01   30.10
  -1  -2 -13  154.39   20.27
  -1  -2 -12  500.16   34.75
  -1  -2 -11  188.37   20.23
  -1  -2 -10 1897.28   60.88
  -1  -2  -9  145.21   15.93
  -1  -2  -8 2171.49   58.17
  -1  -2  -7    3.54    3.06
  -1  -2  -7    3.53    2.54
  -1  -2  -7    1.90    0.85
  -1  -2  -7    4.01    1.65
  -1  -2  -6 3556.55   71.78
  -1  -2  -6 3655.21   66.27
  -1  -2  -5   24.78    6.22
  -1  -2  -5   33.07    5.95
  -1  -2  -4 4599.22   58.84
  -1  -2  -4 4732.85   65.43
  -1  -2  -3  343.53   19.65
  -1  -2  -3  343.54   16.64
  -1  -2  -2 2508.85   35.96
  -1  -2  -2 2488.19   48.32
  -1  -2  -2 2466.43   19.93
  -1  -2  -1 2418.53   42.54
  -1  -2  -1 2318.42   32.46
  -1  -2  -1 2320.09   25.32
  -1  -2   0 5839.65   58.55
  -1  -2   0 5879.53   54.93
  -1  -2   0 5633.85   50.84
  -1  -2   0 5663.86   47.12
  -1  -2   1  414.10   14.79
  -1  -2   1  423.89   13.90
  -1  -2   1  404.11   15.55
  -1  -2   1  414.20   16.06
  -1  -2   1  438.83   14.93
  -1  -2   2 1621.70   32.30
  -1  -2   2 1696.11   33.42
  -1  -2   2 1702.80   32.50
  -1  -2   3  524.35   21.46
  -1  -2   3  533.56   19.94
  -1  -2   4   52.34    7.34
  -1  -2   4   57.30    7.22
  -1  -2   5 1508.51   41.64
  -1  -2   5 1533.32   38.42
  -1  -2   6   -0.03    1.33
  -1  -2   7  668.32   31.66
  -1  -2   8   74.27   11.51
  -1  -2   9  151.79   17.31
  -1  -2  10  140.89   17.87
  -1  -2  11   74.03   13.72
  -1  -2  12    5.58    4.37
  -1  -2  13   20.70    8.54
  -1  -2  13   22.32    8.91
  -1  -2  14   20.43    8.09
  -1  -2  14   31.45    9.37
  -1  -2  15    4.25    4.21
  -1  -1 -15  230.80   26.82
  -1  -1 -14  276.10   27.74
  -1  -1 -13  195.47   22.12
  -1  -1 -12  237.37   22.92
  -1  -1 -11  757.15   38.74
  -1  -1 -10   51.53    9.79
  -1  -1 -10   42.72    6.17
  -1  -1  -9  624.36   22.02
  -1  -1  -9  658.30   32.07
  -1  -1  -8    2.16    1.68
  -1  -1  -8    2.46    1.46
  -1  -1  -8   -0.56    1.67
  -1  -1  -8    0.80    2.65
  -1  -1  -7 1009.41   38.66
  -1  -1  -7 1048.05   40.20
  -1  -1  -7 1032.91   42.89
  -1  -1  -7 1040.13   35.55
  -1  -1  -7  964.96   22.99
  -1  -1  -6   14.95    2.53
  -1  -1  -6   11.87    3.65
  -1  -1  -6   13.06    4.33
  -1  -1  -6    6.61    3.25
  -1  -1  -5  779.24   29.81
  -1  -1  -5  803.23   32.79
  -1  -1  -5  815.09   26.84
  -1  -1  -5  772.00   16.12
  -1  -1  -4  214.43   14.17
  -1  -1  -4  213.16   14.52
  -1  -1  -4  236.25   16.40
  -1  -1  -4  216.25   12.68
  -1  -1  -3  123.19    9.66
  -1  -1  -3  123.62   10.44
  -1  -1  -3  120.69   10.82
  -1  -1  -3  127.62    8.91
  -1  -1  -2   83.65    7.75
  -1  -1  -2   79.64    6.24
  -1  -1  -2   73.65    7.55
  -1  -1  -2   65.97    5.87
  -1  -1  -1   22.85    3.08
  -1  -1  -1   24.41    3.77
  -1  -1  -1   23.35    2.13
  -1  -1   0  442.99   11.34
  -1  -1   0  457.56   12.81
  -1  -1   0  454.69   13.22
  -1  -1   1  273.16   10.33
  -1  -1   2  571.02   18.47
  -1  -1   2  554.82   16.55
  -1  -1   3  760.30   23.35
  -1  -1   3  790.69   21.96
  -1  -1   4    3.46    1.87
  -1  -1   4    0.26    0.94
  -1  -1   5  158.72   12.63
  -1  -1   5  172.50   12.10
  -1  -1   6  100.45   10.86
  -1  -1   6   84.39    8.88
  -1  -1   7   55.36    9.06
  -1  -1   8  256.28   20.47
  -1  -1   9   70.86   11.41
  -1  -1  10  219.83   21.67
  -1  -1  11  133.86   17.92
  -1  -1  12  351.08   30.82
  -1  -1  13  398.93   35.09
  -1  -1  14  172.27   24.37
  -1   0 -15   15.98    7.22
  -1   0 -14   39.41   10.24
  -1   0 -13    2.77    2.74
  -1   0 -12  118.00   15.60
  -1   0 -11    2.55    2.43
  -1   0 -11    1.32    2.32
  -1   0 -11   -0.25    1.87
  -1   0 -10   28.29    5.80
  -1   0 -10   30.66    7.15
  -1   0 -10   29.47    7.44
  -1   0  -9    0.82    1.60
  -1   0  -9    4.59    3.17
  -1   0  -9    2.55    2.54
  -1   0  -8   25.72    5.74
  -1   0  -8   33.33    7.73
  -1   0  -8   32.40    7.41
  -1   0  -8   32.78    7.92
  -1   0  -8   29.77    5.04
  -1   0  -7   10.62    2.92
  -1   0  -7   -0.81    1.91
  -1   0  -7   12.27    4.42
  -1   0  -7   10.39    3.21
  -1   0  -7   11.09    4.25
  -1   0  -6  322.51   19.52
  -1   0  -6  326.17   21.39
  -1   0  -6  343.65   17.73
  -1   0  -6  303.65   13.90
  -1   0  -5   24.01    4.35
  -1   0  -5   28.55    5.60
  -1   0  -5   28.76    3.90
  -1   0  -5   29.69    6.05
  -1   0  -4  282.39   16.64
  -1   0  -4  302.98   13.48
  -1   0  -4  306.49   16.28
  -1   0  -3  338.04   16.27
  -1   0  -3  346.30   15.79
  -1   0  -3  323.18   12.26
  -1   0  -2 2111.21   35.02
  -1   0  -2 2060.32   26.14
  -1   0  -2 2102.12   33.96
  -1   0  -1 1387.58   18.29
  -1   0  -1 1381.96   23.46
  -1   0   0    0.07    0.42
  -1   0   1 2277.30   27.16
  -1   0   2  220.02    9.36
  -1   0   2  225.21    9.95
  -1   0   2  241.64    6.90
  -1   0   2  240.59   10.18
  -1   0   3 4353.77   46.24
  -1   0   3 4131.54   48.95
  -1   0   3 4124.56   29.38
  -1   0   3 4320.57   40.31
  -1   0   4  260.87    9.63
  -1   0   4  261.66   13.83
  -1   0   4  286.90   12.64
  -1   0   4  270.53   12.63
  -1   0   5 3882.19   44.27
  -1   0   5 3916.87   59.74
  -1   0   5 3826.25   53.42
  -1   0   5 3854.95   52.37
  -1   0   6    4.70    2.15
  -1   0   6    7.70    3.24
  -1   0   6    5.15    2.08
  -1   0   7 3725.00   70.18
  -1   0   7 3876.20   56.14
  -1   0   7 3914.38   60.13
  -1   0   8  365.49   23.68
  -1   0   8  335.59   18.09
  -1   0   9 2776.74   70.31
  -1   0   9 2717.79   55.57
  -1   0  10  226.29   21.52
  -1   0  11 1336.60   56.05
  -1   0  12  491.14   36.13
  -1   0  13  549.40   40.60
  -1   0  14  201.90   26.04
  -1   1 -15   49.76   12.01
  -1   1 -14    1.04    2.36
  -1   1 -13  340.26   28.83
  -1   1 -13  352.74   27.67
  -1   1 -12    2.58    2.50
  -1   1 -12   -1.67    2.63
  -1   1 -11  649.99   30.88
  -1   1 -11  659.72   36.56
  -1   1 -11  628.51   32.88
  -1   1 -10    0.71    1.54
  -1   1 -10    0.02    2.61
  -1   1  -9 1935.39   56.60
  -1   1  -9 2002.50   62.37
  -1   1  -9 1962.38   50.74
  -1   1  -9 1853.20   46.57
  -1   1  -8   41.10    8.30
  -1   1  -8   38.14    4.89
  -1   1  -8   34.66    5.91
  -1   1  -8   30.38    6.74
  -1   1  -8   34.64    8.14
  -1   1  -7 2529.61   57.18
  -1   1  -7 2631.50   40.08
  -1   1  -7 2498.58   61.35
  -1   1  -7 2576.82   48.69
  -1   1  -6  517.35   24.00
  -1   1  -6  472.66   16.65
  -1   1  -6  502.14   25.49
  -1   1  -6  481.95   19.61
  -1   1  -5 2685.22   50.54
  -1   1  -5 2893.48   39.54
  -1   1  -4 2276.25   34.03
  -1   1  -4 2265.94   42.40
  -1   1  -3 5394.92   49.17
  -1   1  -3 5476.44   59.91
  -1   1  -2 4233.12   42.02
  -1   1  -2 4149.37   40.76
  -1   1  -2 4349.19   47.16
  -1   1  -2 4150.29   27.87
  -1   1  -2 4312.99   38.66
  -1   1  -1 2882.25   26.48
  -1   1  -1 3025.05   34.00
  -1   1   0 1725.69   20.53
  -1   1   1 2239.48   29.05
  -1   1   1 2172.12   22.15
  -1   1   2 9780.86   55.62
  -1   1   2 9876.07   56.61
  -1   1   2 9999.00   67.60
  -1   1   3  675.30   18.36
  -1   1   3  701.35   20.43
  -1   1   3  709.96   16.90
  -1   1   4 4856.81   61.94
  -1   1   4 4833.27   48.24
  -1   1   4 4870.39   50.65
  -1   1   5    1.64    1.16
  -1   1   5    2.53    1.27
  -1   1   5    0.96    1.20
  -1   1   6 1487.81   34.96
  -1   1   6 1370.93   38.11
  -1   1   6 1429.90   40.44
  -1   1   6 1426.75   31.09
  -1   1   7   82.81   10.45
  -1   1   7   79.69    8.81
  -1   1   7   84.70    8.25
  -1   1   8 1297.93   44.10
  -1   1   8 1240.80   37.50
  -1   1   9    7.76    3.46
  -1   1  10  151.78   17.48
  -1   1  11  112.90   16.31
  -1   1  11   84.36   11.59
  -1   1  12  195.11   22.55
  -1   1  13   41.57   11.03
  -1   1  14   27.95   10.10
  -1   2 -15  150.65   19.47
  -1   2 -14  855.88   47.48
  -1   2 -14  850.67   43.88
  -1   2 -13  184.60   19.48
  -1   2 -13  201.09   22.04
  -1   2 -12 1139.93   50.51
  -1   2 -12 1203.89   46.76
  -1   2 -11  127.35   16.40
  -1   2 -11  133.47   14.74
  -1   2 -10 1893.59   43.30
  -1   2 -10 1795.73   57.41
  -1   2 -10 1699.12   50.94
  -1   2  -9    7.15    3.86
  -1   2  -9    8.41    3.46
  -1   2  -9   -0.18    2.29
  -1   2  -9    4.70    2.64
  -1   2  -8 1483.66   48.95
  -1   2  -8 1537.34   38.79
  -1   2  -8 1546.48   50.82
  -1   2  -8 1479.53   46.35
  -1   2  -8 1443.65   42.17
  -1   2  -7  185.55   16.14
  -1   2  -7  200.25   13.83
  -1   2  -7  214.15   16.70
  -1   2  -7  187.56   14.89
  -1   2  -6 2456.10   52.72
  -1   2  -6 2478.61   47.05
  -1   2  -6 2410.89   52.80
  -1   2  -6 2447.19   48.66
  -1   2  -5    4.96    2.39
  -1   2  -5    6.55    2.51
  -1   2  -5   10.12    3.20
  -1   2  -4 1406.60   33.02
  -1   2  -4 1417.17   33.49
  -1   2  -4 1401.20   34.37
  -1   2  -3  870.88   22.64
  -1   2  -3  870.25   25.20
  -1   2  -3  870.32   25.06
  -1   2  -3  885.46   24.09
  -1   2  -2 1020.32   25.82
  -1   2  -2 1039.46   24.64
  -1   2  -2 1006.34   20.28
  -1   2  -1 2405.23   24.05
  -1   2   1    4.09    1.65
  -1   2   2   23.25    2.76
  -1   2   2   22.67    4.19
  -1   2   3  109.35    7.34
  -1   2   3  109.89    9.70
  -1   2   4   23.48    3.96
  -1   2   4   26.21    3.41
  -1   2   4   23.47    5.06
  -1   2   5    8.58    2.75
  -1   2   5   11.63    2.50
  -1   2   5   11.25    3.92
  -1   2   5   16.00    3.92
  -1   2   6    5.44    2.04
  -1   2   6   10.99    3.44
  -1   2   7   49.86    7.94
  -1   2   7   46.95    7.40
  -1   2   7   45.37    5.40
  -1   2   8  175.66   15.99
  -1   2   8  216.43   19.55
  -1   2   9   17.12    6.02
  -1   2   9    6.46    5.16
  -1   2  10  257.36   22.52
  -1   2  10  267.85   21.06
  -1   2  10  245.17   23.31
  -1   2  11  232.80   22.93
  -1   2  11  207.47   19.55
  -1   2  12   81.72   14.87
  -1   2  13  138.41   20.25
  -1   2  14  186.02   24.84
  -1   3 -14   86.10   13.76
  -1   3 -13   77.72   12.47
  -1   3 -13   67.29   13.13
  -1   3 -12   31.46    8.50
  -1   3 -11   10.01    4.46
  -1   3 -10    8.08    4.13
  -1   3  -9   47.34    8.67
  -1   3  -9   39.86    7.94
  -1   3  -9   34.98    8.47
  -1   3  -8    2.63    2.50
  -1   3  -8    5.34    2.87
  -1   3  -7    3.90    2.67
  -1   3  -7    3.54    3.17
  -1   3  -7    2.76    1.99
  -1   3  -7    4.40    3.02
  -1   3  -6   16.86    4.79
  -1   3  -6   16.31    4.49
  -1   3  -6    9.26    3.41
  -1   3  -5  200.67   14.25
  -1   3  -5  190.89   15.04
  -1   3  -5  203.19   14.73
  -1   3  -4    7.73    3.48
  -1   3  -4    4.28    1.97
  -1   3  -4    2.23    1.24
  -1   3  -3  356.09   15.05
  -1   3  -3  357.05   19.07
  -1   3  -3  368.92   18.33
  -1   3  -3  349.65   11.23
  -1   3  -2  355.78    9.78
  -1   3  -2  346.99   12.91
  -1   3  -2  355.31   17.39
  -1   3  -2  350.10   18.01
  -1   3  -1  932.76   17.98
  -1   3  -1  906.56   16.24
  -1   3   0 1682.65   25.38
  -1   3   0 1595.01   35.77
  -1   3   0 1632.42   21.77
  -1   3   1  157.91   10.72
  -1   3   2  203.04    8.83
  -1   3   2  194.05   11.33
  -1   3   3  942.92   22.40
  -1   3   3  881.71   31.71
  -1   3   4 1802.05   35.39
  -1   3   4 1715.40   46.54
  -1   3   5   62.07    5.06
  -1   3   5   67.58    7.78
  -1   3   6 2158.13   48.02
  -1   3   6 2198.95   52.92
  -1   3   6 2268.18   31.67
  -1   3   7  739.03   36.26
  -1   3   7  739.60   30.75
  -1   3   7  749.89   19.34
  -1   3   8 1237.70   42.98
  -1   3   8 1214.43   49.15
  -1   3   9  460.16   28.19
  -1   3   9  468.40   28.61
  -1   3   9  429.69   31.17
  -1   3  10 1104.41   46.16
  -1   3  10 1130.64   47.31
  -1   3  10 1084.96   52.12
  -1   3  11  476.49   32.90
  -1   3  11  524.37   38.19
  -1   3  12  378.04   31.38
  -1   3  13  614.62   42.03
  -1   3  14  152.87   22.49
  -1   4 -13   11.73    6.01
  -1   4 -12  123.23   16.88
  -1   4 -11   11.25    5.15
  -1   4 -11    9.47    4.57
  -1   4 -10  419.84   27.51
  -1   4 -10  409.15   28.35
  -1   4  -9   10.30    4.60
  -1   4  -9    7.25    3.26
  -1   4  -8 1042.31   41.21
  -1   4  -8 1098.87   43.03
  -1   4  -7  231.52   18.70
  -1   4  -7  239.36   18.85
  -1   4  -7  261.83   19.88
  -1   4  -6 1630.73   45.54
  -1   4  -6 1542.57   45.18
  -1   4  -6 1531.81   35.47
  -1   4  -5 1142.84   34.98
  -1   4  -5 1150.82   27.81
  -1   4  -4  882.31   28.11
  -1   4  -4  870.21   21.88
  -1   4  -4  862.00   32.99
  -1   4  -3 1462.28   32.82
  -1   4  -3 1450.89   25.84
  -1   4  -3 1441.42   44.07
  -1   4  -3 1461.50   41.19
  -1   4  -2  729.32   17.70
  -1   4  -2  725.34   20.96
  -1   4  -2  697.17   27.85
  -1   4  -1 4213.55   67.10
  -1   4  -1 4176.76   44.55
  -1   4   0 1216.98   36.17
  -1   4   0 1197.40   23.73
  -1   4   0 1191.06   25.75
  -1   4   1 6330.01   78.76
  -1   4   1 6433.09   65.57
  -1   4   2   34.71    5.73
  -1   4   2   31.51    4.09
  -1   4   3 5603.41   58.84
  -1   4   3 5580.64   67.54
  -1   4   4   49.62    6.01
  -1   4   5 2930.61   52.26
  -1   4   5 2905.77   69.78
  -1   4   6   82.12    5.44
  -1   4   6   87.14   12.90
  -1   4   6   89.54   10.09
  -1   4   7 2484.93   65.02
  -1   4   7 2564.96   58.37
  -1   4   7 2523.88   72.29
  -1   4   7 2400.47   29.26
  -1   4   8    9.58    4.47
  -1   4   8   10.50    4.79
  -1   4   8   11.25    6.15
  -1   4   9 1273.79   47.33
  -1   4   9 1252.71   50.40
  -1   4   9 1248.17   56.21
  -1   4  10  219.77   21.19
  -1   4  10  248.69   26.24
  -1   4  11  353.61   28.45
  -1   4  11  355.09   33.05
  -1   4  12  136.35   18.84
  -1   4  12   97.61   18.04
  -1   4  13  228.49   26.11
  -1   4  14   20.24    8.99
  -1   5 -13  828.16   46.29
  -1   5 -12   -0.93    3.60
  -1   5 -11 1262.94   53.04
  -1   5 -10   81.35   11.38
  -1   5 -10   76.97   12.67
  -1   5  -9 1781.05   58.63
  -1   5  -9 1833.78   49.73
  -1   5  -8  141.31   17.05
  -1   5  -8  135.53   15.40
  -1   5  -8  129.54   12.32
  -1   5  -7 1497.98   48.28
  -1   5  -7 1567.24   50.51
  -1   5  -7 1439.88   53.63
  -1   5  -7 1463.48   38.14
  -1   5  -6 1007.57   36.96
  -1   5  -6  982.54   43.27
  -1   5  -6  928.68   28.07
  -1   5  -6  996.15   39.32
  -1   5  -5 2142.31   49.74
  -1   5  -5 2146.21   63.02
  -1   5  -5 2150.81   39.58
  -1   5  -4 1136.81   33.86
  -1   5  -4 1156.40   27.16
  -1   5  -4 1126.87   41.38
  -1   5  -3 2018.07   41.57
  -1   5  -3 1918.96   33.77
  -1   5  -3 1958.84   53.04
  -1   5  -2 2038.09   51.68
  -1   5  -2 2058.66   39.48
  -1   5  -2 2096.31   53.43
  -1   5  -2 2033.30   34.74
  -1   5  -1  579.42   20.30
  -1   5  -1  540.71   28.34
  -1   5  -1  595.67   28.98
  -1   5  -1  614.17   28.83
  -1   5  -1  564.59   19.19
  -1   5   0 1753.97   26.36
  -1   5   0 1645.15   33.57
  -1   5   0 1692.90   47.91
  -1   5   0 1738.40   49.91
  -1   5   0 1727.08   35.77
  -1   5   1  119.28   12.32
  -1   5   1  130.89   10.58
  -1   5   2   54.95    8.14
  -1   5   2   54.03    7.39
  -1   5   2   58.19    6.17
  -1   5   3  813.15   24.44
  -1   5   3  834.06   30.22
  -1   5   4  824.57   26.62
  -1   5   4  803.59   28.16
  -1   5   5    3.69    2.26
  -1   5   5    6.21    4.42
  -1   5   6   21.38    4.98
  -1   5   6   20.04    6.74
  -1   5   6   23.48    2.71
  -1   5   7   57.24    8.87
  -1   5   7   50.70   10.74
  -1   5   7   66.02   13.11
  -1   5   8  173.55   16.79
  -1   5   8  149.96   19.64
  -1   5   9   29.35    7.33
  -1   5   9   17.32    7.22
  -1   5  10   44.32    9.34
  -1   5  10   36.87   10.63
  -1   5  11   94.79   14.98
  -1   5  11   98.89   18.46
  -1   5  12  100.03   16.27
  -1   5  12   96.18   19.14
  -1   5  13   82.09   15.76
  -1   5  13   75.67   17.62
  -1   6 -13   31.14    9.43
  -1   6 -13   25.73   10.45
  -1   6 -12  261.79   26.03
  -1   6 -11   29.94    8.71
  -1   6 -10  435.40   31.23
  -1   6  -9    5.18    2.56
  -1   6  -9    5.89    4.12
  -1   6  -8  233.01   21.37
  -1   6  -8  243.74   16.82
  -1   6  -7    9.75    4.09
  -1   6  -7   10.99    3.42
  -1   6  -6   27.95    6.71
  -1   6  -6   14.73    3.78
  -1   6  -5    2.00    1.52
  -1   6  -5    3.36    2.08
  -1   6  -5    2.24    2.95
  -1   6  -5    4.61    3.95
  -1   6  -4   17.05    4.28
  -1   6  -4    8.63    4.12
  -1   6  -4   11.61    4.30
  -1   6  -4   15.78    5.75
  -1   6  -4   16.84    3.61
  -1   6  -3  253.56   13.82
  -1   6  -3  265.44   16.33
  -1   6  -3  261.40   20.26
  -1   6  -3  264.23   21.34
  -1   6  -2    5.55    2.03
  -1   6  -2   -0.49    1.56
  -1   6  -2    1.72    1.71
  -1   6  -2    3.32    2.00
  -1   6  -2    6.65    3.94
  -1   6  -2    4.94    3.98
  -1   6  -1  397.18   18.49
  -1   6  -1  366.47   15.86
  -1   6  -1  380.53   26.11
  -1   6  -1  385.16   25.18
  -1   6  -1  421.74   26.01
  -1   6  -1  399.84   18.25
  -1   6   0   17.06    4.00
  -1   6   0   34.01    7.42
  -1   6   0   29.02    3.76
  -1   6   0   24.38    6.88
  -1   6   0   27.30    5.07
  -1   6   1  546.44   29.42
  -1   6   1  537.61   30.73
  -1   6   1  527.14   23.53
  -1   6   2   39.34    7.66
  -1   6   2   45.36    9.32
  -1   6   2   45.73    7.45
  -1   6   2   38.88    5.60
  -1   6   3  916.76   28.41
  -1   6   3  943.41   35.92
  -1   6   3 1008.03   45.28
  -1   6   4   57.91    7.57
  -1   6   4   58.01    8.50
  -1   6   5 2176.03   49.19
  -1   6   5 2128.29   70.11
  -1   6   6    7.49    1.58
  -1   6   6    4.42    2.67
  -1   6   7  610.26   40.38
  -1   6   7  537.49   28.18
  -1   6   8  112.38   13.76
  -1   6   8   94.83   16.81
  -1   6   9  302.27   23.98
  -1   6   9  347.68   33.20
  -1   6  10  140.65   17.45
  -1   6  10  165.06   24.20
  -1   6  11  376.33   30.26
  -1   6  11  366.34   37.09
  -1   6  12  208.97   23.86
  -1   6  12  244.79   31.56
  -1   6  13   54.18   13.01
  -1   7 -12    7.67    5.65
  -1   7 -12    2.57    4.28
  -1   7 -11  280.14   29.37
  -1   7 -11  291.00   27.58
  -1   7 -10    2.79    4.52
  -1   7 -10    2.48    2.55
  -1   7  -9  516.32   34.45
  -1   7  -8   80.70    9.85
  -1   7  -8   66.94   12.28
  -1   7  -7  672.31   26.77
  -1   7  -6  121.19   10.94
  -1   7  -6  104.68   14.07
  -1   7  -6  124.06   14.09
  -1   7  -5  615.08   29.54
  -1   7  -5  588.37   23.39
  -1   7  -5  632.24   31.42
  -1   7  -4  956.49   29.43
  -1   7  -4  936.46   34.70
  -1   7  -4  936.81   41.48
  -1   7  -4  936.84   35.88
  -1   7  -3  542.52   25.10
  -1   7  -3  521.78   24.53
  -1   7  -3  518.01   31.02
  -1   7  -3  530.19   21.99
  -1   7  -2 1001.39   33.17
  -1   7  -2  939.60   45.18
  -1   7  -2  920.68   29.74
  -1   7  -2  927.90   42.12
  -1   7  -2  984.16   30.67
  -1   7  -1 1013.04   32.51
  -1   7  -1  962.77   44.51
  -1   7  -1  989.72   44.09
  -1   7  -1 1047.99   44.54
  -1   7  -1 1029.56   32.48
  -1   7  -1 1024.73   27.73
  -1   7   0 1663.56   42.39
  -1   7   0 1649.92   57.15
  -1   7   0 1719.34   58.69
  -1   7   0 1777.91   44.43
  -1   7   0 1707.87   56.62
  -1   7   0 1705.30   29.91
  -1   7   1   91.05   13.14
  -1   7   1   96.01   14.20
  -1   7   1  111.03   12.13
  -1   7   2 2063.17   60.71
  -1   7   2 1952.34   43.57
  -1   7   2 2091.30   53.81
  -1   7   3   87.34    9.42
  -1   7   3   92.53   12.50
  -1   7   3   89.78   14.79
  -1   7   4  779.79   29.30
  -1   7   4  751.95   34.41
  -1   7   4  747.43   43.32
  -1   7   5   15.91    4.57
  -1   7   5   18.62    5.68
  -1   7   5   18.88    7.17
  -1   7   6  871.57   34.55
  -1   7   6  913.09   50.71
  -1   7   6  898.92   16.61
  -1   7   7  529.84   28.77
  -1   7   7  513.05   39.46
  -1   7   8  682.12   47.78
  -1   7   8  684.74   34.89
  -1   7   9  380.45   27.50
  -1   7   9  392.15   37.42
  -1   7  10  171.25   25.66
  -1   7  10  183.76   20.20
  -1   7  11  471.91   34.19
  -1   7  11  449.02   42.99
  -1   7  12  115.13   17.98
  -1   8 -12  454.90   37.05
  -1   8 -11   -1.64    2.73
  -1   8 -11   19.88    7.31
  -1   8 -10  307.63   28.80
  -1   8 -10  357.83   32.65
  -1   8  -9   70.71   13.51
  -1   8  -9   81.74   14.87
  -1   8  -8  620.35   37.37
  -1   8  -8  650.76   39.64
  -1   8  -7  829.71   42.31
  -1   8  -7  847.83   31.13
  -1   8  -7  747.67   40.73
  -1   8  -6  828.93   39.62
  -1   8  -6  822.03   42.07
  -1   8  -6  949.19   32.15
  -1   8  -5  751.73   28.26
  -1   8  -5  717.98   33.80
  -1   8  -5  681.04   33.95
  -1   8  -5  667.71   37.58
  -1   8  -4  503.56   27.21
  -1   8  -4  521.35   27.48
  -1   8  -4  459.16   31.21
  -1   8  -4  541.48   24.02
  -1   8  -3 1117.02   37.60
  -1   8  -3 1108.53   38.65
  -1   8  -3 1136.40   49.73
  -1   8  -3 1128.13   35.21
  -1   8  -2   61.04    8.88
  -1   8  -2   60.28    8.30
  -1   8  -2   61.59    8.09
  -1   8  -2   60.81   12.13
  -1   8  -1 1322.43   40.57
  -1   8  -1 1350.68   55.15
  -1   8  -1 1409.71   41.50
  -1   8  -1 1381.29   33.83
  -1   8   0    7.56    2.96
  -1   8   0   11.84    4.02
  -1   8   0    7.74    2.14
  -1   8   0    7.76    5.66
  -1   8   1 1034.60   49.96
  -1   8   1 1022.87   38.49
  -1   8   2    6.21    3.04
  -1   8   2    1.78    3.40
  -1   8   3  829.73   30.94
  -1   8   3  837.65   40.72
  -1   8   3  858.43   48.06
  -1   8   4    2.41    1.72
  -1   8   4    0.40    1.57
  -1   8   4   -1.29    3.38
  -1   8   4    3.44    5.04
  -1   8   5  649.69   29.89
  -1   8   5  661.33   33.90
  -1   8   5  690.01   45.85
  -1   8   5  735.30   21.80
  -1   8   6  132.14   14.00
  -1   8   6  110.32   18.90
  -1   8   7  101.35   12.98
  -1   8   7   92.74   18.23
  -1   8   8   16.76    5.46
  -1   8   8   10.72    7.04
  -1   8   9   86.97   13.62
  -1   8   9   65.73   16.52
  -1   8  10    2.82    3.22
  -1   8  10    2.34    5.12
  -1   9 -11  518.49   42.37
  -1   9 -11  503.41   39.54
  -1   9 -10   72.52   14.81
  -1   9 -10   80.89   14.54
  -1   9 -10   84.47   16.22
  -1   9  -9  426.48   32.90
  -1   9  -9  468.70   36.37
  -1   9  -8  133.82   18.78
  -1   9  -8  132.30   18.24
  -1   9  -7  173.75   19.76
  -1   9  -7  178.81   20.80
  -1   9  -6   61.83   11.13
  -1   9  -6   36.37    9.68
  -1   9  -5  153.47   16.50
  -1   9  -5  177.76   17.80
  -1   9  -5  143.91   18.57
  -1   9  -5  164.69   14.20
  -1   9  -4  124.33   14.16
  -1   9  -4  133.76   18.37
  -1   9  -4  111.78   11.92
  -1   9  -4  115.85   13.73
  -1   9  -3    4.57    2.34
  -1   9  -3   14.76    4.05
  -1   9  -3    8.29    3.35
  -1   9  -3   11.23    5.81
  -1   9  -2   15.58    4.57
  -1   9  -2   13.11    4.52
  -1   9  -2   13.18    3.85
  -1   9  -2    6.92    5.24
  -1   9  -1  117.39   12.83
  -1   9  -1  117.44   17.56
  -1   9  -1  144.14   14.34
  -1   9  -1  139.35   11.10
  -1   9   0    5.59    2.96
  -1   9   0   -0.05    0.80
  -1   9   0   -1.36    4.09
  -1   9   1   23.52    5.98
  -1   9   1   13.35    4.55
  -1   9   1   18.97    7.27
  -1   9   2  243.78   17.46
  -1   9   2  246.75   26.87
  -1   9   2  236.13   17.57
  -1   9   3   -0.59    1.43
  -1   9   3    4.68    2.82
  -1   9   3    9.36    6.59
  -1   9   4  109.02   18.98
  -1   9   4  106.82   12.25
  -1   9   5  271.23   20.06
  -1   9   5  339.57   34.59
  -1   9   6  234.46   19.31
  -1   9   6  206.34   27.46
  -1   9   7  185.99   18.18
  -1   9   7  125.12   22.28
  -1   9   8  211.51   29.99
  -1  10 -11   59.11   14.41
  -1  10 -10   23.42    8.45
  -1  10 -10   16.34    7.92
  -1  10  -9  130.49   20.45
  -1  10  -9  115.87   18.29
  -1  10  -8   46.61   11.76
  -1  10  -8   48.30   11.82
  -1  10  -7   93.73   15.11
  -1  10  -7   99.02   16.77
  -1  10  -6  217.89   21.80
  -1  10  -6  199.18   23.45
  -1  10  -5  241.95   21.71
  -1  10  -5  283.45   28.11
  -1  10  -4  118.12   18.22
  -1  10  -4  112.92   13.63
  -1  10  -3  725.36   45.06
  -1  10  -3  789.09   34.08
  -1  10  -2  138.54   20.17
  -1  10  -2  167.23   13.99
  -1  10  -1  733.77   46.36
  -1  10  -1  819.25   26.91
  -1  10   0   48.34   12.44
  -1  10   1  904.23   53.53
  -1  10   2   25.00    5.82
  -1  10   2   50.64   13.19
  -1  10   3 1042.04   38.45
  -1  10   3 1107.80   61.93
  -1  10   4   48.59    8.79
  -1  10   4   53.41   14.13
  -1  10   5  624.06   49.32
  -1  10   6   98.90   20.54
  -1  10   7  496.07   46.72
  -1  11 -10   20.08   10.60
  -1  11  -9  587.73   43.20
  -1  11  -8   69.46   14.44
  -1  11  -8   84.76   16.19
  -1  11  -7  356.87   33.85
  -1  11  -7  383.56   31.58
  -1  11  -6  475.81   38.58
  -1  11  -6  483.99   33.47
  -1  11  -5  202.96   25.14
  -1  11  -5  190.23   19.80
  -1  11  -4  408.53   35.85
  -1  11  -3  101.71   18.45
  -1  11  -2  628.78   45.07
  -1  11  -1   14.00    8.22
  -1  11   0  499.90   41.80
  -1  11   1    3.78    6.30
  -1  11   2  555.68   45.71
  -1  11   3   51.27   14.33
  -1  11   4  212.43   29.84
  -1  11   5  122.46   23.63
  -1  12  -6   53.15   13.74
  -1  12  -5  136.44   22.17
  -1  12  -4   35.31   11.59
  -1  12  -3  229.41   28.70
  -1  12  -2    5.76    4.54
  -1  12  -1   26.53    9.61
  -1  12   0   -0.55    6.59
  -1  12   1   70.57   16.83
  -1  12   2    5.36    7.61
  -1  13  -5    7.11    7.72
  -1  13  -4  113.12   21.43
  -1  13  -3    9.43    9.04
  -1  13  -2  188.34   28.19
   0 -13   0  247.43   30.15
   0 -13   1  506.10   41.95
   0 -12  -3  328.73   34.00
   0 -12  -2   50.40   13.07
   0 -12  -1  205.84   25.81
   0 -12   0   57.33   13.82
   0 -12   1   49.00   12.21
   0 -12   2  103.13   17.66
   0 -12   3   43.91   11.68
   0 -11  -5    5.88    5.91
   0 -11  -4   31.70   11.14
   0 -11  -3   -0.82    2.70
   0 -11  -2   27.82    9.81
   0 -11  -1   18.86    7.69
   0 -11   0   31.98    9.13
   0 -11   1  106.78   16.91
   0 -11   2   72.73   13.67
   0 -11   3  235.56   24.52
   0 -11   4   27.56    8.63
   0 -11   5  326.79   27.78
   0 -10  -6   54.48   13.27
   0 -10  -5  310.12   30.34
   0 -10  -4  205.88   24.25
   0 -10  -3  394.94   32.36
   0 -10  -2  247.55   25.11
   0 -10  -1  154.74   19.61
   0 -10   0  837.55   44.36
   0 -10   1  188.12   21.02
   0 -10   2  996.94   47.39
   0 -10   3   -7.30    4.39
   0 -10   4 1159.86   49.78
   0 -10   5   12.28    4.96
   0  -9  -8  552.69   42.27
   0  -9  -7  164.43   22.21
   0  -9  -6  679.35   43.59
   0  -9  -5  355.46   30.66
   0  -9  -4  656.70   40.09
   0  -9  -3  864.47   45.06
   0  -9  -2  394.00   29.63
   0  -9  -1 1034.02   46.54
   0  -9  -1  971.32   41.59
   0  -9   0  396.22   28.26
   0  -9   0  429.89   28.62
   0  -9   1  877.40   41.71
   0  -9   1  870.64   41.36
   0  -9   2  163.87   17.72
   0  -9   2  171.58   18.82
   0  -9   3  610.10   34.21
   0  -9   3  648.70   37.37
   0  -9   4   69.20   11.66
   0  -9   4   63.45   11.98
   0  -9   5  308.04   23.80
   0  -8  -9  393.29   35.19
   0  -8  -8    0.23    2.51
   0  -8  -7  349.26   30.39
   0  -8  -6   38.61    9.94
   0  -8  -5  248.47   24.08
   0  -8  -4   28.32    7.99
   0  -8  -3  285.21   23.99
   0  -8  -2  253.61   21.96
   0  -8  -2  248.71   19.34
   0  -8  -1   -0.29    2.27
   0  -8  -1    0.08    1.74
   0  -8   0   79.59   11.65
   0  -8   0   90.79   12.46
   0  -8   1   11.82    4.70
   0  -8   1    4.61    2.64
   0  -8   2  373.18   24.68
   0  -8   2  357.08   25.44
   0  -8   3   -0.03    1.73
   0  -8   3    4.41    3.07
   0  -8   4  684.33   33.22
   0  -8   4  681.31   36.59
   0  -8   5    1.01    2.05
   0  -8   5    0.69    3.64
   0  -8   9   33.51   10.18
   0  -8  10  638.23   46.11
   0  -8  11  121.05   21.09
   0  -8  12  363.72   37.78
   0  -7 -10  153.87   21.66
   0  -7  -9   32.41    9.68
   0  -7  -8  203.50   22.82
   0  -7  -7  268.87   25.17
   0  -7  -6  456.00   31.44
   0  -7  -5  529.56   32.57
   0  -7  -4 1140.72   45.94
   0  -7  -3  684.97   34.30
   0  -7  -3  646.43   27.65
   0  -7  -2  943.02   34.63
   0  -7  -2 1066.00   41.58
   0  -7  -1 1258.94   43.90
   0  -7  -1 1263.17   52.89
   0  -7  -1 1219.23   40.34
   0  -7   0  452.47   25.59
   0  -7   0  471.47   31.31
   0  -7   0  418.45   24.22
   0  -7   1 1635.06   47.97
   0  -7   1 1671.92   49.65
   0  -7   2    0.15    1.13
   0  -7   2  242.93   19.44
   0  -7   3 1899.20   55.77
   0  -7   4    3.77    3.46
   0  -7   5 1905.87   58.59
   0  -7   6    3.04    3.35
   0  -7   7  798.74   42.70
   0  -7   7  759.34   44.24
   0  -7   8  290.74   26.85
   0  -7   8  350.13   30.98
   0  -7   9  837.94   48.24
   0  -7   9  840.31   49.59
   0  -7  10  487.67   38.33
   0  -7  10  461.07   37.97
   0  -7  11  262.34   29.64
   0  -7  11  263.74   29.72
   0  -7  12  283.51   32.21
   0  -7  12  293.20   32.14
   0  -7  13   29.61   11.88
   0  -7  13   37.75   11.91
   0  -6 -11  700.36   45.55
   0  -6 -10   -1.25    4.49
   0  -6  -9 1141.49   34.24
   0  -6  -9 1014.13   50.17
   0  -6  -8  125.55   16.99
   0  -6  -7 1327.20   31.32
   0  -6  -7 1230.36   50.43
   0  -6  -6  296.81   12.56
   0  -6  -6  275.60   22.82
   0  -6  -5 1315.09   21.06
   0  -6  -5 1380.78   49.12
   0  -6  -4  593.89   22.92
   0  -6  -4  599.26   30.76
   0  -6  -3  526.41   27.87
   0  -6  -3  553.86   34.90
   0  -6  -3  504.03   22.23
   0  -6  -2 1482.35   44.91
   0  -6  -2 1618.46   56.98
   0  -6  -2 1489.28   39.35
   0  -6  -1  182.24   18.45
   0  -6  -1  169.11   13.76
   0  -6   0 1741.66   55.75
   0  -6   0 1750.47   45.58
   0  -6   1  289.28   19.12
   0  -6   2 1735.06   47.83
   0  -6   3  216.52   17.30
   0  -6   4 1006.17   38.47
   0  -6   5  153.42   16.19
   0  -6   5  159.09   17.80
   0  -6   5  171.27   16.24
   0  -6   6  867.65   40.25
   0  -6   6  968.07   44.93
   0  -6   6  914.93   38.59
   0  -6   7  215.33   21.12
   0  -6   7  234.53   22.98
   0  -6   8  197.22   21.08
   0  -6   8  202.36   22.21
   0  -6   9   44.18   10.50
   0  -6   9   29.39    8.45
   0  -6  10  139.28   20.13
   0  -6  10  149.25   20.60
   0  -6  11   46.22   12.01
   0  -6  11   44.13   12.22
   0  -6  12   17.43    8.85
   0  -6  12    8.56    5.95
   0  -6  13   41.87   12.46
   0  -6  13   33.64   10.60
   0  -6  14    0.62    4.86
   0  -5 -12  421.61   34.95
   0  -5 -11    8.25    5.32
   0  -5 -11   18.50    5.87
   0  -5 -10  523.04   35.83
   0  -5  -9  128.68   17.16
   0  -5  -8  594.59   25.47
   0  -5  -8  580.37   34.17
   0  -5  -7  207.50   13.65
   0  -5  -7  226.56   20.56
   0  -5  -6  255.39   13.48
   0  -5  -6  243.72   20.13
   0  -5  -5  187.76   10.08
   0  -5  -5  181.03   16.58
   0  -5  -4  215.62   21.15
   0  -5  -4  201.01    8.68
   0  -5  -4  188.17   11.28
   0  -5  -4  206.95   16.85
   0  -5  -3 1217.31   47.53
   0  -5  -3 1161.73   30.00
   0  -5  -3 1158.09   16.48
   0  -5  -3 1207.34   38.55
   0  -5  -2   68.96    3.99
   0  -5  -2   66.02    7.55
   0  -5  -1  136.52   14.51
   0  -5  -1  152.73   11.79
   0  -5   0   20.33    4.50
   0  -5   0   25.63    6.35
   0  -5   0   25.49    5.11
   0  -5   1  121.53   10.70
   0  -5   1  120.37   12.82
   0  -5   1  121.88   11.24
   0  -5   2   71.54    8.16
   0  -5   3   29.20    5.40
   0  -5   4   21.12    5.26
   0  -5   4    0.43    0.99
   0  -5   5   95.31   11.92
   0  -5   5   97.91   12.98
   0  -5   5   83.74   10.65
   0  -5   6  141.82   15.37
   0  -5   6  156.68   16.89
   0  -5   6  138.84   14.02
   0  -5   7  317.83   24.22
   0  -5   7  281.36   23.64
   0  -5   8  235.43   21.89
   0  -5   8  238.43   22.52
   0  -5   9  290.63   25.80
   0  -5   9  265.57   24.69
   0  -5  10  224.47   23.87
   0  -5  10  211.95   22.99
   0  -5  11  246.75   26.89
   0  -5  11  227.71   24.66
   0  -5  12  670.54   46.93
   0  -5  12  685.90   44.63
   0  -5  13   82.07   17.49
   0  -5  13   75.88   15.35
   0  -5  14  716.51   48.84
   0  -5  15    1.20    5.73
   0  -4 -13   28.89    9.60
   0  -4 -12   10.01    5.41
   0  -4 -12    3.51    3.83
   0  -4 -11   81.30   14.07
   0  -4 -10   48.04   10.47
   0  -4  -9   18.60    6.55
   0  -4  -8    4.25    3.04
   0  -4  -7   52.00    9.40
   0  -4  -6   77.70   10.45
   0  -4  -6   67.99    7.49
   0  -4  -6   84.49   13.51
   0  -4  -5    8.90    2.37
   0  -4  -5   -0.32    1.23
   0  -4  -5    9.15    3.69
   0  -4  -4  827.87   37.89
   0  -4  -4  861.48   19.95
   0  -4  -4  812.77   19.82
   0  -4  -3  615.02   31.11
   0  -4  -3  589.80   13.81
   0  -4  -3  586.93   18.16
   0  -4  -2 2470.61   39.84
   0  -4  -2 2524.04   23.98
   0  -4  -2 2519.93   48.28
   0  -4  -1   24.14    2.61
   0  -4  -1   27.50    6.31
   0  -4  -1   21.94    4.56
   0  -4  -1   26.96    4.58
   0  -4   0 2703.88   55.24
   0  -4   0 2671.23   45.07
   0  -4   0 2610.44   44.69
   0  -4   1    8.44    3.06
   0  -4   1   14.09    4.48
   0  -4   1    6.57    3.38
   0  -4   2 3286.48   49.29
   0  -4   3  242.19   15.67
   0  -4   3  254.07   13.97
   0  -4   4 3856.77   66.67
   0  -4   5  612.05   28.14
   0  -4   5  579.07   28.81
   0  -4   6 2440.81   59.78
   0  -4   6 2499.31   62.66
   0  -4   7  465.63   27.67
   0  -4   7  477.32   28.80
   0  -4   8 1838.85   58.86
   0  -4   8 1882.92   59.77
   0  -4   9  798.29   41.24
   0  -4   9  754.18   39.69
   0  -4  10  643.51   39.30
   0  -4  10  640.82   38.04
   0  -4  11  588.50   39.80
   0  -4  11  626.90   39.26
   0  -4  12  289.81   29.69
   0  -4  12  322.95   29.07
   0  -4  13  423.26   38.15
   0  -4  13  438.45   35.34
   0  -4  14  133.35   22.77
   0  -4  14  133.60   20.26
   0  -3 -14  373.86   31.86
   0  -3 -14  332.36   31.68
   0  -3 -13    3.85    4.08
   0  -3 -13    5.21    4.15
   0  -3 -12  673.17   41.32
   0  -3 -11   24.19    7.25
   0  -3 -10  760.48   39.06
   0  -3  -9  315.20   23.97
   0  -3  -8 1824.46   54.28
   0  -3  -7 1007.42   39.81
   0  -3  -7 1044.44   46.80
   0  -3  -7 1090.47   39.64
   0  -3  -6 1941.58   59.52
   0  -3  -6 1891.04   49.19
   0  -3  -5 2580.67   64.37
   0  -3  -4 1369.41   43.82
   0  -3  -4 1182.88   18.79
   0  -3  -3 1276.83   40.08
   0  -3  -3 1255.60   21.15
   0  -3  -3 1297.45   21.81
   0  -3  -2 1696.97   42.89
   0  -3  -2 1648.21   19.90
   0  -3  -2 1630.23   27.07
   0  -3  -2 1681.75   34.80
   0  -3  -1 5958.60   75.46
   0  -3  -1 5897.55   55.72
   0  -3  -1 5773.62   60.37
   0  -3   0  439.12   15.69
   0  -3   0  455.65   19.36
   0  -3   0  426.24   15.69
   0  -3   1 3658.63   43.84
   0  -3   1 3637.46   47.91
   0  -3   2  320.35   15.20
   0  -3   2  323.80   13.40
   0  -3   3 3318.61   56.99
   0  -3   3 3214.42   50.42
   0  -3   4  487.75   21.64
   0  -3   4  470.99   22.62
   0  -3   4  444.17   19.36
   0  -3   5 1422.88   39.93
   0  -3   5 1472.14   42.52
   0  -3   5 1400.90   35.27
   0  -3   6  205.97   16.30
   0  -3   6  226.47   17.67
   0  -3   7  723.60   33.00
   0  -3   7  752.33   33.79
   0  -3   8  524.64   29.87
   0  -3   8  519.30   29.83
   0  -3   9  210.74   20.54
   0  -3   9  223.05   20.37
   0  -3  10  217.81   22.11
   0  -3  10  215.05   21.02
   0  -3  11   84.66   14.64
   0  -3  11   62.90   11.78
   0  -3  12  237.08   26.06
   0  -3  12  246.64   24.44
   0  -3  13    4.92    2.80
   0  -3  13    8.09    4.16
   0  -3  14   36.71   11.50
   0  -3  14   31.16   10.02
   0  -2 -15  459.24   38.14
   0  -2 -14    8.74    5.10
   0  -2 -14    5.19    3.13
   0  -2 -13  840.92   46.29
   0  -2 -12    4.74    4.05
   0  -2 -11  857.77   42.17
   0  -2 -10  107.21   14.40
   0  -2  -9 1074.11   42.11
   0  -2  -8  207.82   18.74
   0  -2  -8  213.32   20.74
   0  -2  -8  217.79   17.94
   0  -2  -7  598.71   29.46
   0  -2  -7  651.54   34.05
   0  -2  -7  594.30   27.72
   0  -2  -6  488.40   27.76
   0  -2  -6  460.68   22.77
   0  -2  -5  256.01   16.31
   0  -2  -5  279.24   19.55
   0  -2  -4 1607.43   36.90
   0  -2  -4 1678.74   44.23
   0  -2  -3  697.29   21.57
   0  -2  -3  729.30   26.68
   0  -2  -2 3796.10   55.55
   0  -2  -2 3881.97   30.87
   0  -2  -2 3909.81   31.30
   0  -2  -1 1016.51   25.93
   0  -2  -1  989.67   17.83
   0  -2  -1 1026.70   21.33
   0  -2   0   17.54    3.17
   0  -2   0   18.82    2.01
   0  -2   0   19.35    2.73
   0  -2   0   17.78    2.60
   0  -2   1  159.16    7.53
   0  -2   2 1807.41   27.13
   0  -2   2 1749.45   30.66
   0  -2   3  114.09    8.79
   0  -2   3  117.54    9.44
   0  -2   3  108.49    7.98
   0  -2   4  427.45   18.79
   0  -2   4  448.83   20.11
   0  -2   4  435.04   16.80
   0  -2   5  241.87   15.54
   0  -2   5  233.46   12.82
   0  -2   6    0.77    1.37
   0  -2   7   45.45    8.05
   0  -2   8   14.01    5.16
   0  -2   9  134.24   15.69
   0  -2  10   30.58    8.23
   0  -2  10   24.10    7.35
   0  -2  11  397.79   31.10
   0  -2  11  387.59   28.05
   0  -2  12   26.34    8.75
   0  -2  12   24.52    7.42
   0  -2  13  253.74   28.06
   0  -2  13  256.94   24.77
   0  -2  14   -3.73    4.86
   0  -2  14  -11.21    5.85
   0  -1 -15   -4.10    3.68
   0  -1 -15   10.10    6.23
   0  -1 -14  176.65   23.38
   0  -1 -14  141.69   19.73
   0  -1 -13    1.83    2.65
   0  -1 -12   87.47   13.87
   0  -1 -11    3.82    2.45
   0  -1 -11    3.55    2.56
   0  -1 -10    3.78    2.93
   0  -1 -10    2.84    2.47
   0  -1  -9  119.88   10.51
   0  -1  -9  129.78   16.35
   0  -1  -9  133.44   14.31
   0  -1  -8   68.09    9.58
   0  -1  -8   81.74   11.25
   0  -1  -8   85.94   12.82
   0  -1  -8   69.23    7.40
   0  -1  -7  121.74    8.97
   0  -1  -7  128.99   13.38
   0  -1  -7  125.38   13.90
   0  -1  -6   41.08    4.81
   0  -1  -6   43.98    7.75
   0  -1  -5   12.22    2.52
   0  -1  -5   12.56    3.72
   0  -1  -5    6.46    3.16
   0  -1  -4   73.06    5.00
   0  -1  -4   77.79    7.62
   0  -1  -4   93.08    9.40
   0  -1  -3 1052.34   14.66
   0  -1  -3 1077.65   24.95
   0  -1  -3 1122.29   29.05
   0  -1  -2  136.64    7.40
   0  -1  -2  144.02    8.96
   0  -1  -1   85.80    5.95
   0  -1   0    0.03    0.42
   0  -1   1   -0.03    0.34
   0  -1   1  646.30   11.44
   0  -1   2 1223.33   22.12
   0  -1   2 1261.26   19.91
   0  -1   3 5271.77   54.60
   0  -1   3 5461.94   44.74
   0  -1   4 1140.22   28.99
   0  -1   4 1179.57   25.81
   0  -1   5 4153.32   62.29
   0  -1   5 3998.93   53.36
   0  -1   6 2029.00   42.53
   0  -1   6 1946.09   46.51
   0  -1   7 1056.45   37.37
   0  -1   7 1099.64   33.68
   0  -1   8 1731.39   51.72
   0  -1   8 1698.60   45.08
   0  -1   9 1082.50   44.12
   0  -1  10 1466.71   54.94
   0  -1  10 1010.86   39.31
   0  -1  11  336.21   28.03
   0  -1  12 1095.06   53.85
   0  -1  13  118.51   19.22
   0  -1  13  119.97   16.30
   0  -1  14 1115.65   61.57
   0   0 -15   32.66    9.78
   0   0 -15   36.91   11.81
   0   0 -14    3.01    3.79
   0   0 -14    0.66    4.15
   0   0 -13   87.23   14.35
   0   0 -12   54.19   10.55
   0   0 -11  239.88   20.77
   0   0 -11  267.45   19.24
   0   0 -10  278.69   18.64
   0   0 -10  324.05   22.95
   0   0 -10  332.68   26.13
   0   0  -9  527.59   24.07
   0   0  -9  493.68   26.81
   0   0  -9  514.06   13.48
   0   0  -9  536.24   31.30
   0   0  -8  902.71   29.65
   0   0  -8  926.44   34.07
   0   0  -8  935.67   19.34
   0   0  -8  915.48   38.26
   0   0  -8  943.50   38.02
   0   0  -7  557.13   21.60
   0   0  -7  557.32   24.50
   0   0  -7  567.42   15.26
   0   0  -7  599.30   28.87
   0   0  -6 3655.57   58.19
   0   0  -6 3678.73   66.44
   0   0  -6 3524.85   50.29
   0   0  -5  491.58   13.28
   0   0  -5  443.07   20.59
   0   0  -5  467.52   20.60
   0   0  -5  467.29   12.19
   0   0  -5  437.87   18.38
   0   0  -5  453.80   16.36
   0   0  -4 3969.59   55.10
   0   0  -4 3895.94   31.94
   0   0  -4 3898.60   42.78
   0   0  -3  150.67    8.31
   0   0  -3  142.06    9.02
   0   0  -3  138.65    5.21
   0   0  -3  136.02    6.95
   0   0  -2 4176.81   35.84
   0   0  -2 4204.82   40.48
   0   0  -2 4178.78   30.79
   0   0   2 4275.37   36.36
   0   0   2 4199.93   40.15
   0   0   2 4263.63   31.06
   0   0   3  124.07    7.60
   0   0   3  135.61    8.46
   0   0   3  141.19    8.95
   0   0   4 4109.54   53.11
   0   0   4 4067.19   50.53
   0   0   5  481.56   20.66
   0   0   5  463.08   19.00
   0   0   6 3812.49   63.99
   0   0   6 3725.86   59.78
   0   0   7  569.06   26.97
   0   0   7  602.29   26.20
   0   0   8  984.12   38.47
   0   0   9  558.88   31.04
   0   0  10  295.32   24.43
   0   0  10  336.30   23.37
   0   0  11  267.90   24.68
   0   0  11  302.18   23.34
   0   0  12   53.77   12.13
   0   0  13   98.47   17.06
   0   0  14    2.22    3.53
   0   1 -16  517.69   39.84
   0   1 -15   -3.12    5.45
   0   1 -15    4.05    6.00
   0   1 -14 1023.91   50.36
   0   1 -14 1086.65   60.21
   0   1 -13  114.35   16.08
   0   1 -12 1074.14   45.22
   0   1 -11  306.05   22.99
   0   1 -11  326.26   15.28
   0   1 -11  289.75   21.39
   0   1 -10 1421.97   44.73
   0   1 -10 1532.81   48.36
   0   1 -10 1521.46   34.34
   0   1 -10 1531.87   54.00
   0   1  -9 1039.78   36.29
   0   1  -9 1143.87   30.07
   0   1  -9 1022.18   37.70
   0   1  -9 1095.04   42.94
   0   1  -8 1661.01   50.34
   0   1  -8 1644.76   44.60
   0   1  -8 1746.99   36.97
   0   1  -8 1641.00   48.74
   0   1  -8 1576.26   42.41
   0   1  -7 1055.10   32.80
   0   1  -7 1087.16   28.75
   0   1  -7 1038.53   36.32
   0   1  -7 1006.23   31.78
   0   1  -6 2005.37   42.06
   0   1  -6 1927.37   37.70
   0   1  -6 1991.52   45.64
   0   1  -6 1966.94   33.83
   0   1  -6 1919.32   41.09
   0   1  -5 3946.03   57.58
   0   1  -5 3867.12   52.74
   0   1  -5 3839.65   44.97
   0   1  -4 1109.67   25.19
   0   1  -4 1149.36   22.79
   0   1  -4 1160.07   27.03
   0   1  -3 5300.06   47.88
   0   1  -3 5170.73   44.73
   0   1  -3 5268.99   51.49
   0   1  -2 1279.75   20.17
   0   1  -1  620.36   12.66
   0   1  -1  617.19   11.24
   0   1  -1  633.43   12.68
   0   1   0   14.52    1.65
   0   1   0    0.03    0.16
   0   1   1   86.24    4.67
   0   1   1   83.90    4.04
   0   1   1   79.73    4.70
   0   1   2  145.49    8.36
   0   1   2  140.80    7.45
   0   1   3 1104.00   26.17
   0   1   3 1078.56   24.44
   0   1   3 1108.44   29.15
   0   1   3 1049.90   14.72
   0   1   4   90.45    8.15
   0   1   4   99.97    9.77
   0   1   4   88.66    9.06
   0   1   5   12.90    3.58
   0   1   5   11.92    3.58
   0   1   5   14.97    4.25
   0   1   6   49.46    7.39
   0   1   6   54.20    7.74
   0   1   7  148.00   13.76
   0   1   7  143.81   13.56
   0   1   8   82.00   11.02
   0   1   9  113.90   13.49
   0   1   9  138.53   15.40
   0   1  10    6.86    3.40
   0   1  10    4.89    2.76
   0   1  11    7.90    4.43
   0   1  11    6.27    3.89
   0   1  12   82.35   15.04
   0   1  13    2.31    3.39
   0   1  14  135.68   21.14
   0   2 -15  243.71   25.28
   0   2 -14    3.00    3.38
   0   2 -14   -2.00    4.20
   0   2 -13  282.51   23.88
   0   2 -12   38.36    8.85
   0   2 -11  379.74   25.44
   0   2 -11  391.42   21.50
   0   2 -11  362.70   27.16
   0   2 -10   30.17    6.95
   0   2 -10   29.35    5.91
   0   2 -10   29.40    6.51
   0   2 -10   34.88    8.01
   0   2  -9  104.22   12.02
   0   2  -9  124.17   12.15
   0   2  -9  110.79   13.32
   0   2  -9  123.33   13.60
   0   2  -8   14.37    4.66
   0   2  -8   21.46    5.84
   0   2  -8   11.08    3.58
   0   2  -8   18.57    4.90
   0   2  -8    9.23    3.44
   0   2  -7   40.82    6.54
   0   2  -7   41.38    6.76
   0   2  -7   42.70    7.06
   0   2  -7   35.50    6.53
   0   2  -6    4.37    2.76
   0   2  -6    8.50    3.58
   0   2  -6    7.49    3.01
   0   2  -6    4.06    1.77
   0   2  -5  253.61   15.57
   0   2  -5  244.65   13.24
   0   2  -5  239.56   14.84
   0   2  -4  417.65   18.18
   0   2  -4  466.93   17.29
   0   2  -4  439.32   16.91
   0   2  -4  446.70   18.74
   0   2  -3  120.58    8.76
   0   2  -3  115.42    8.18
   0   2  -2 1754.02   30.07
   0   2  -2 1727.29   26.56
   0   2  -2 1793.51   33.96
   0   2  -2 1729.91   29.91
   0   2  -1  155.88    8.22
   0   2  -1  159.04    7.63
   0   2  -1  149.49    8.39
   0   2  -1  164.61    7.48
   0   2  -1  162.95    9.52
   0   2  -1  156.18    8.33
   0   2   0   18.80    3.25
   0   2   0   19.14    2.71
   0   2   0   15.31    2.37
   0   2   0   16.22    1.87
   0   2   1  991.50   21.91
   0   2   1 1020.51   21.09
   0   2   2 3981.42   38.45
   0   2   2 3926.94   46.81
   0   2   3  701.07   20.82
   0   2   3  680.83   13.88
   0   2   3  689.87   25.59
   0   2   4 1552.71   34.60
   0   2   4 1548.57   39.19
   0   2   4 1625.93   43.06
   0   2   5  273.31   16.03
   0   2   5  238.24   16.43
   0   2   6  460.20   22.73
   0   2   6  475.40   24.86
   0   2   7  636.43   29.12
   0   2   7  666.88   33.94
   0   2   8  198.73   17.48
   0   2   8  198.02   18.02
   0   2   8  222.52   20.86
   0   2   9 1130.62   45.49
   0   2   9 1119.94   44.33
   0   2   9 1181.21   50.56
   0   2  10  129.39   16.20
   0   2  10  128.30   16.02
   0   2  11  896.19   45.48
   0   2  12   10.23    5.92
   0   2  13  931.18   52.09
   0   2  14   17.93    8.12
   0   3 -15    0.88    2.86
   0   3 -14   38.18   11.76
   0   3 -13   -3.90    3.40
   0   3 -13    7.70    3.95
   0   3 -12  239.60   21.35
   0   3 -11   91.18   12.22
   0   3 -11   85.66   12.30
   0   3 -11   62.49   11.13
   0   3 -10  223.07   18.66
   0   3 -10  241.53   20.54
   0   3  -9  206.39   17.15
   0   3  -9  221.97   18.57
   0   3  -8  479.46   24.81
   0   3  -8  504.50   27.63
   0   3  -7  742.28   28.93
   0   3  -7  710.60   31.76
   0   3  -7  739.38   31.67
   0   3  -6  222.65   17.44
   0   3  -6  201.48   14.15
   0   3  -6  213.33   14.55
   0   3  -6  202.78   15.76
   0   3  -6  192.57   15.59
   0   3  -5 1351.80   33.75
   0   3  -5 1413.20   38.48
   0   3  -5 1455.11   36.48
   0   3  -5 1442.82   40.32
   0   3  -4  482.42   20.14
   0   3  -4  470.22   20.55
   0   3  -4  441.27   17.83
   0   3  -3 3353.64   50.71
   0   3  -3 3303.15   44.89
   0   3  -3 3294.98   50.54
   0   3  -2  337.54   15.08
   0   3  -2  319.04   13.05
   0   3  -2  338.30   15.34
   0   3  -2  322.61   16.93
   0   3  -2  322.09   14.98
   0   3  -1 3765.76   48.32
   0   3  -1 3659.57   42.87
   0   3  -1 3621.72   40.99
   0   3  -1 3622.53   53.74
   0   3  -1 3668.80   48.05
   0   3   0  418.31   18.84
   0   3   0  435.74   18.99
   0   3   0  408.02   17.54
   0   3   0  431.34   15.34
   0   3   0  448.61   11.87
   0   3   1 5637.79   72.82
   0   3   1 5616.32   65.04
   0   3   1 5653.75   34.83
   0   3   1 5764.17   59.36
   0   3   2 1671.86   33.01
   0   3   2 1674.46   34.58
   0   3   2 1593.56   32.14
   0   3   3 1238.34   30.23
   0   3   3 1254.28   26.58
   0   3   3 1277.16   33.05
   0   3   4 1256.97   33.10
   0   3   4 1250.75   23.40
   0   3   5 2431.52   49.30
   0   3   6 1898.75   47.53
   0   3   6 1936.53   58.15
   0   3   7 1060.43   38.26
   0   3   7 1036.02   42.03
   0   3   7 1127.76   46.91
   0   3   8 1793.14   53.44
   0   3   8 1834.83   58.42
   0   3   8 1956.41   65.30
   0   3   9  328.80   24.49
   0   3   9  326.74   25.86
   0   3   9  333.02   28.40
   0   3  10  862.00   42.00
   0   3  10  856.60   47.87
   0   3  11   31.59    8.82
   0   3  12  646.84   41.11
   0   3  13    9.08    5.76
   0   4 -14  164.86   24.83
   0   4 -13  427.59   37.87
   0   4 -12  332.22   31.84
   0   4 -12  338.83   25.92
   0   4 -11  622.14   33.68
   0   4 -11  623.18   34.48
   0   4 -11  693.40   37.42
   0   4 -10  670.38   36.20
   0   4 -10  650.71   33.17
   0   4 -10  627.01   32.78
   0   4  -9  853.34   40.05
   0   4  -9  781.96   34.64
   0   4  -8 1817.32   50.17
   0   4  -8 1879.95   58.69
   0   4  -8 1809.62   50.50
   0   4  -7  436.06   27.57
   0   4  -7  486.53   24.91
   0   4  -7  482.48   26.89
   0   4  -7  486.68   27.82
   0   4  -7  455.62   23.52
   0   4  -6 2547.04   58.31
   0   4  -6 2427.60   50.35
   0   4  -6 2436.90   59.60
   0   4  -5  581.70   26.20
   0   4  -5  556.98   22.63
   0   4  -5  585.46   25.43
   0   4  -4 4030.87   64.32
   0   4  -4 3935.12   56.31
   0   4  -4 3870.91   63.71
   0   4  -3  242.91   14.88
   0   4  -3  232.35   14.61
   0   4  -3  230.36   12.93
   0   4  -3  248.29   15.09
   0   4  -3  236.34   16.99
   0   4  -3  244.96   15.53
   0   4  -2 3409.21   53.75
   0   4  -2 3459.59   50.50
   0   4  -2 3232.59   47.07
   0   4  -2 3277.34   55.35
   0   4  -2 3380.80   62.61
   0   4  -2 3400.49   54.87
   0   4  -2 3296.92   55.21
   0   4  -1    7.70    3.14
   0   4  -1   14.89    5.55
   0   4  -1   11.20    3.09
   0   4  -1   12.78    4.98
   0   4  -1    7.86    2.68
   0   4   0 2602.45   53.72
   0   4   0 2629.16   51.59
   0   4   0 2624.25   54.21
   0   4   0 2518.83   42.36
   0   4   0 2620.76   33.54
   0   4   1   19.61    2.41
   0   4   1   25.84    5.18
   0   4   1   25.94    4.62
   0   4   2 2582.73   49.30
   0   4   2 2617.09   48.23
   0   4   3  584.54   22.44
   0   4   3  595.04   22.19
   0   4   3  610.88   24.98
   0   4   4  860.83   29.14
   0   4   4  797.55   23.97
   0   4   5   10.62    3.45
   0   4   5   10.29    2.54
   0   4   5    9.12    4.04
   0   4   5    3.35    3.57
   0   4   6   75.06   11.73
   0   4   6   74.52    9.81
   0   4   6   80.29   12.72
   0   4   7   51.29    8.58
   0   4   7   38.77    8.69
   0   4   7   58.74   11.41
   0   4   8   15.24    4.92
   0   4   8   15.42    6.99
   0   4   9   32.09    7.75
   0   4   9   34.53   10.31
   0   4  10   52.50   10.36
   0   4  10   55.29   13.16
   0   4  11   87.74   14.36
   0   4  11   97.13   17.95
   0   4  12   10.99    6.34
   0   4  13   24.02    8.75
   0   5 -13   58.92   14.69
   0   5 -12  709.88   38.52
   0   5 -12  656.46   45.64
   0   5 -11  274.13   28.26
   0   5 -11  237.24   21.71
   0   5 -10  236.90   24.53
   0   5 -10  227.58   20.58
   0   5 -10  220.37   20.18
   0   5  -9  266.24   21.25
   0   5  -9  244.28   23.98
   0   5  -9  262.87   20.39
   0   5  -8  258.69   23.74
   0   5  -8  229.29   22.03
   0   5  -8  218.07   18.50
   0   5  -8  215.50   17.39
   0   5  -7  293.03   21.90
   0   5  -7  296.73   23.75
   0   5  -7  344.77   26.79
   0   5  -7  309.48   19.80
   0   5  -6  148.77   14.80
   0   5  -6  133.79   16.45
   0   5  -6  134.58   12.26
   0   5  -6  138.76   15.17
   0   5  -6  135.52   15.01
   0   5  -5   85.57   10.65
   0   5  -5   90.02   11.30
   0   5  -5   90.53   13.21
   0   5  -5  100.94   10.07
   0   5  -4   31.97    6.16
   0   5  -4   -0.84    1.28
   0   5  -4   25.19    5.56
   0   5  -4   30.56    6.16
   0   5  -4   32.15    5.42
   0   5  -4   -0.81    2.42
   0   5  -3   11.44    3.65
   0   5  -3   23.26    4.46
   0   5  -3   26.06    5.57
   0   5  -3   28.23    5.41
   0   5  -3   19.22    5.47
   0   5  -2   65.60    7.44
   0   5  -2   68.37    8.40
   0   5  -2   58.41    7.11
   0   5  -2   55.63    8.53
   0   5  -2   73.05   10.20
   0   5  -1  129.30   11.41
   0   5  -1  121.51   12.61
   0   5  -1  136.32   14.49
   0   5  -1  126.06   12.99
   0   5  -1  133.07   11.45
   0   5  -1  123.65    9.14
   0   5  -1  140.27   10.89
   0   5   0   18.72    4.07
   0   5   0   27.31    6.42
   0   5   0   29.22    3.96
   0   5   0   27.18    4.96
   0   5   0   27.97    6.77
   0   5   0   19.55    5.15
   0   5   1  151.74   14.13
   0   5   1  183.31   16.73
   0   5   1  155.79    7.60
   0   5   1  152.48   13.82
   0   5   1  163.87   12.66
   0   5   2   69.62    9.22
   0   5   2   71.80   10.91
   0   5   2   76.38    9.15
   0   5   2   69.60    6.48
   0   5   3 1149.50   34.08
   0   5   3 1173.73   36.09
   0   5   3 1190.24   37.92
   0   5   3 1246.72   23.93
   0   5   4  182.16   13.50
   0   5   4  216.60   20.43
   0   5   4  200.58   14.87
   0   5   4  211.57    7.80
   0   5   5  200.26   15.75
   0   5   5  186.43   12.62
   0   5   5  190.03   19.95
   0   5   6  255.51   18.86
   0   5   6  232.41   23.05
   0   5   7  205.61   17.83
   0   5   7  238.26   24.39
   0   5   8  544.21   30.78
   0   5   8  538.64   38.38
   0   5   9  136.09   16.42
   0   5   9  115.26   18.37
   0   5  10  538.37   42.15
   0   5  10  536.82   34.45
   0   5  11   10.49    5.34
   0   5  11    1.00    5.41
   0   5  12  390.64   32.82
   0   5  12  404.14   39.43
   0   5  13    4.89    2.99
   0   6 -13   29.25   10.29
   0   6 -12   21.37    9.11
   0   6 -12   19.90    8.91
   0   6 -11   49.70   10.57
   0   6 -11   30.47    9.95
   0   6 -10  154.56   20.56
   0   6 -10  138.06   16.65
   0   6  -9   51.79    9.13
   0   6  -9   61.54   10.94
   0   6  -9   44.95   10.67
   0   6  -8  203.92   21.40
   0   6  -8  193.50   16.89
   0   6  -7  199.15   19.84
   0   6  -7  198.00   16.15
   0   6  -6  944.07   39.07
   0   6  -6  824.13   37.97
   0   6  -6  842.42   34.97
   0   6  -6  892.70   32.69
   0   6  -5  166.45   15.82
   0   6  -5  153.58   15.38
   0   6  -5  146.09   12.88
   0   6  -5  185.76   20.36
   0   6  -5  150.55   14.72
   0   6  -4  989.95   36.79
   0   6  -4  953.41   35.84
   0   6  -4  963.41   37.05
   0   6  -4  969.54   45.41
   0   6  -4  938.74   31.65
   0   6  -4 1023.98   40.18
   0   6  -3  188.59   14.57
   0   6  -3  174.71   13.44
   0   6  -3  207.23   20.51
   0   6  -3  182.76   15.25
   0   6  -3  180.53   16.37
   0   6  -3  223.34   20.09
   0   6  -3  184.29   16.27
   0   6  -2 1665.07   45.16
   0   6  -2 1615.12   55.58
   0   6  -2 1556.34   48.95
   0   6  -2 1627.50   40.50
   0   6  -2 1628.45   52.72
   0   6  -2 1597.10   39.08
   0   6  -1  282.91   18.72
   0   6  -1  275.02   22.25
   0   6  -1  279.60   21.47
   0   6  -1  268.44   20.90
   0   6  -1  301.35   17.70
   0   6  -1  299.59   15.37
   0   6   0 1593.05   52.03
   0   6   0 1718.59   53.56
   0   6   0 1602.57   50.31
   0   6   0 1722.85   43.41
   0   6   0 1641.46   32.02
   0   6   0 1724.81   42.47
   0   6   1  160.50   15.94
   0   6   1  165.52   17.36
   0   6   1  155.86    8.20
   0   6   1  145.62   14.98
   0   6   1  153.07   13.49
   0   6   1  160.50   12.01
   0   6   2 1368.55   45.01
   0   6   2 1504.41   54.04
   0   6   2 1476.86   43.45
   0   6   2 1352.17   45.14
   0   6   2 1518.01   33.98
   0   6   3  493.72   24.14
   0   6   3  503.67   26.63
   0   6   3  527.12   33.29
   0   6   3  551.43   27.96
   0   6   3  520.53   17.89
   0   6   4  586.07   27.53
   0   6   4  622.44   28.07
   0   6   4  608.41   36.72
   0   6   4  660.36   16.92
   0   6   5 1367.61   43.14
   0   6   5 1314.12   38.74
   0   6   5 1337.60   56.96
   0   6   6  265.93   20.04
   0   6   6  269.94   16.29
   0   6   6  242.28   25.45
   0   6   7 1177.45   44.34
   0   6   7 1168.59   57.62
   0   6   8  127.99   15.48
   0   6   8  127.64   19.89
   0   6   9 1081.82   47.48
   0   6   9 1021.80   58.69
   0   6  10    1.51    3.85
   0   6  10   17.16    8.82
   0   6  11  730.69   43.23
   0   6  11  691.89   52.30
   0   6  12   39.24   10.09
   0   6  12   34.09   12.04
   0   7 -12  302.30   32.35
   0   7 -12  314.12   27.84
   0   7 -11  233.67   27.45
   0   7 -11  266.74   25.16
   0   7 -10  453.54   36.64
   0   7 -10  449.16   31.68
   0   7  -9  816.00   46.21
   0   7  -9  792.33   41.12
   0   7  -8  344.78   28.50
   0   7  -8  315.73   23.72
   0   7  -8  348.12   22.80
   0   7  -7  720.64   38.91
   0   7  -7  748.99   32.52
   0   7  -7  737.27   35.84
   0   7  -6    3.42    2.35
   0   7  -6    2.28    3.19
   0   7  -6    1.31    2.51
   0   7  -5 1846.16   55.14
   0   7  -5 1864.99   55.25
   0   7  -5 1914.60   48.96
   0   7  -5 1745.00   54.21
   0   7  -4   -0.26    2.38
   0   7  -4    4.61    3.36
   0   7  -4    0.45    2.27
   0   7  -4    1.85    1.75
   0   7  -3 1864.27   47.08
   0   7  -3 1850.00   52.12
   0   7  -3 1834.85   57.39
   0   7  -3 1877.24   55.65
   0   7  -3 1783.35   47.52
   0   7  -2  227.32   17.89
   0   7  -2  244.34   20.96
   0   7  -2  237.25   16.80
   0   7  -2  237.84   18.98
   0   7  -2  255.48   16.55
   0   7  -1 1557.35   47.04
   0   7  -1 1609.28   58.46
   0   7  -1 1588.09   55.23
   0   7  -1 1612.24   55.78
   0   7  -1 1635.39   44.92
   0   7  -1 1563.68   37.58
   0   7  -1 1581.84   46.95
   0   7   0  432.07   29.08
   0   7   0  385.81   27.82
   0   7   0  380.81   26.62
   0   7   0  412.16   23.11
   0   7   0  399.82   16.62
   0   7   1 1227.61   48.15
   0   7   1 1166.13   49.84
   0   7   1 1179.08   23.50
   0   7   1 1160.70   46.11
   0   7   1 1229.38   41.30
   0   7   2 1004.76   42.21
   0   7   2  913.88   45.43
   0   7   2  963.75   41.41
   0   7   2 1018.39   30.91
   0   7   3  641.20   29.36
   0   7   3  634.74   32.77
   0   7   3  687.96   40.61
   0   7   3  661.45   34.19
   0   7   3  718.26   23.66
   0   7   4 1178.82   40.80
   0   7   4 1170.07   54.74
   0   7   4 1172.60   42.95
   0   7   4 1249.40   26.83
   0   7   5  441.27    9.78
   0   7   5  539.74   28.50
   0   7   5  508.75   27.05
   0   7   5  529.57   38.30
   0   7   6  430.65   26.61
   0   7   6  432.64   23.58
   0   7   6  409.14   34.96
   0   7   7  218.80   19.89
   0   7   7  266.99   29.85
   0   7   8  221.16   20.81
   0   7   8  190.24   25.88
   0   7   9   26.88    7.97
   0   7   9   36.14   11.99
   0   7  10  107.64   21.30
   0   7  10  189.33   21.54
   0   7  11   59.06   12.73
   0   7  12    1.10    3.29
   0   8 -11  101.45   16.81
   0   8 -11   95.94   18.45
   0   8 -10  534.73   40.44
   0   8 -10  550.93   37.09
   0   8 -10  557.99   34.40
   0   8  -9   58.77   12.87
   0   8  -9   50.46   10.32
   0   8  -8  580.90   37.87
   0   8  -8  585.12   34.20
   0   8  -7  106.34   15.28
   0   8  -7   93.74   13.77
   0   8  -7  118.88   13.40
   0   8  -6  668.14   36.50
   0   8  -6  741.97   32.57
   0   8  -6  658.78   35.91
   0   8  -5   -5.59    3.29
   0   8  -5   -1.89    3.38
   0   8  -5    2.15    1.41
   0   8  -4  687.57   30.69
   0   8  -4  700.98   34.62
   0   8  -4  600.04   34.83
   0   8  -4  710.34   33.39
   0   8  -3   -5.75    3.31
   0   8  -3    1.83    1.94
   0   8  -3   -3.01    3.25
   0   8  -3    3.07    2.71
   0   8  -2  340.14   23.40
   0   8  -2  313.66   26.00
   0   8  -2  346.73   22.01
   0   8  -2  375.98   21.15
   0   8  -1   11.13    4.57
   0   8  -1   13.31    5.08
   0   8  -1    9.09    2.89
   0   8  -1    8.55    3.55
   0   8  -1    9.79    5.03
   0   8   0   85.10   11.22
   0   8   0   74.03   11.05
   0   8   0   68.49   13.14
   0   8   0   79.42    7.74
   0   8   1   -0.58    2.00
   0   8   1    2.82    1.27
   0   8   1    0.98    3.09
   0   8   2  270.01   26.50
   0   8   3  273.64   20.38
   0   8   3  305.89   24.72
   0   8   3  348.62   30.89
   0   8   3  312.32   17.23
   0   8   4   29.24    6.86
   0   8   4   30.30    7.70
   0   8   4   30.96    4.74
   0   8   4   25.07    8.80
   0   8   5  243.02   20.06
   0   8   5  247.15   20.61
   0   8   5  227.42   26.65
   0   8   6   29.62    7.25
   0   8   6   44.65   13.66
   0   8   7  332.19   25.31
   0   8   7  361.42   36.57
   0   8   8    5.39    3.44
   0   8   8    3.51    4.91
   0   8   9  419.27   31.11
   0   8   9  406.61   41.47
   0   8  10    2.92    3.54
   0   8  11  403.20   33.48
   0   9 -11    9.16    5.51
   0   9 -11   -0.46    5.07
   0   9 -10   13.86    6.98
   0   9 -10    7.10    5.38
   0   9  -9   11.29    6.19
   0   9  -9   17.35    6.81
   0   9  -8   -0.73    2.84
   0   9  -8   -0.27    3.12
   0   9  -7  108.55   16.07
   0   9  -7  105.57   15.70
   0   9  -6    1.40    2.07
   0   9  -6    8.99    5.82
   0   9  -5  270.20   25.16
   0   9  -5  264.07   22.42
   0   9  -4   80.59   11.62
   0   9  -4   53.58   11.38
   0   9  -3  672.41   35.14
   0   9  -3  595.33   38.14
   0   9  -3  645.81   31.00
   0   9  -2  153.49   16.67
   0   9  -2  129.61   18.12
   0   9  -2  143.59   13.66
   0   9  -1  881.87   40.09
   0   9  -1  834.53   46.26
   0   9  -1  926.73   31.35
   0   9   0  358.17   26.35
   0   9   0  406.12   33.17
   0   9   0  427.86   17.99
   0   9   0  440.84   26.78
   0   9   1  961.18   52.27
   0   9   1  915.08   18.47
   0   9   1 1040.34   38.93
   0   9   2  352.94   32.53
   0   9   2  415.65   23.18
   0   9   3  912.86   39.15
   0   9   3  941.16   54.11
   0   9   4  619.66   32.71
   0   9   4  646.09   46.53
   0   9   5  370.13   25.73
   0   9   5  360.69   36.05
   0   9   6  613.19   34.41
   0   9   6  641.24   49.59
   0   9   7  129.06   16.43
   0   9   7  121.94   22.80
   0   9   8  625.96   37.37
   0   9   8  630.60   52.14
   0  10 -10  358.54   35.03
   0  10 -10  381.30   34.81
   0  10  -9   96.40   17.52
   0  10  -8  750.24   43.75
   0  10  -8  774.57   46.58
   0  10  -7   20.85    7.49
   0  10  -7   14.04    6.09
   0  10  -6  908.44   48.27
   0  10  -6  923.91   45.81
   0  10  -5   16.57    5.75
   0  10  -5    7.21    4.39
   0  10  -4 1092.81   53.91
   0  10  -4 1096.11   44.79
   0  10  -3    8.46    4.32
   0  10  -3   21.08    8.58
   0  10  -2  921.34   50.97
   0  10  -2  964.65   36.35
   0  10  -1  159.47   21.89
   0  10   0  827.47   50.63
   0  10   1  127.90   20.32
   0  10   2  261.94   29.96
   0  10   3  390.53   26.79
   0  10   3  362.40   36.14
   0  10   4  189.17   18.66
   0  10   4  170.34   25.45
   0  10   5  272.54   22.92
   0  10   5  286.28   33.92
   0  10   6   22.77   10.78
   0  11  -9  284.09   30.55
   0  11  -8    4.96    3.39
   0  11  -7  384.98   32.22
   0  11  -6   -3.27    4.16
   0  11  -6    5.78    3.90
   0  11  -5  270.86   28.43
   0  11  -5  289.07   25.15
   0  11  -4   22.86    8.62
   0  11  -3  177.49   23.84
   0  11  -2   75.50   16.64
   0  11  -1   87.30   17.21
   0  11   0   36.02   11.82
   0  11   1   11.05    6.72
   0  11   2   32.60   11.05
   0  11   3   -2.67    3.84
   0  11   4   38.72   12.99
   0  12  -5    4.70    5.00
   0  12  -4   14.00    8.50
   0  12  -3   33.25   12.14
   0  12  -2  104.72   19.63
   0  12  -1   20.62    9.22
   0  12   0   42.19   13.60
   0  12   1  185.77   27.75
   0  12   2   93.07   20.24
   0  13  -3  490.13   43.74
   0  13  -2  125.29   22.91
   1 -13  -2  351.25   34.92
   1 -13  -1   57.55   13.72
   1 -13   0  348.26   33.31
   1 -12  -4   13.71    6.84
   1 -12  -3   -1.70    2.92
   1 -12  -2    0.03    2.77
   1 -12  -1   52.26   12.53
   1 -12   0    7.01    6.66
   1 -12   1   50.78   12.00
   1 -12   2    0.05    3.89
   1 -11  -6  153.02   22.62
   1 -11  -5  103.32   17.86
   1 -11  -4  215.23   25.26
   1 -11  -3   38.86   11.13
   1 -11  -2  579.27   39.46
   1 -11  -2  638.35   37.17
   1 -11  -1   -1.55    3.51
   1 -11  -1    0.20    2.79
   1 -11   0  541.87   36.19
   1 -11   0  536.68   35.64
   1 -11   1    4.74    3.56
   1 -11   1   -0.29    3.82
   1 -11   2  795.03   42.52
   1 -11   2  693.83   41.87
   1 -11   3  134.38   17.03
   1 -11   3  125.22   18.13
   1 -11   4  440.47   30.52
   1 -11   4  428.28   34.45
   1 -11   5  214.30   24.69
   1 -10  -7  580.16   43.03
   1 -10  -6   44.44   11.25
   1 -10  -5  664.28   42.71
   1 -10  -4   46.58   11.35
   1 -10  -4   47.64    9.11
   1 -10  -3 1081.34   51.35
   1 -10  -3  992.07   42.68
   1 -10  -2   32.54    8.61
   1 -10  -2   27.10    7.68
   1 -10  -1  974.17   46.27
   1 -10  -1  979.00   43.97
   1 -10   0   62.18   11.40
   1 -10   0   58.93   11.27
   1 -10   1  824.20   40.50
   1 -10   1  830.35   42.13
   1 -10   2  168.90   18.13
   1 -10   2  164.91   19.24
   1 -10   3  842.90   39.68
   1 -10   3  881.53   45.07
   1 -10   4  123.85   14.92
   1 -10   4  120.67   17.19
   1 -10   5  273.78   26.06
   1 -10   6  206.88   23.40
   1 -10   7  118.55   17.94
   1  -9  -8  259.93   28.35
   1  -9  -7  164.75   21.56
   1  -9  -6  260.64   26.00
   1  -9  -5  278.68   26.05
   1  -9  -5  292.07   20.44
   1  -9  -4  103.47   15.24
   1  -9  -4  101.86   12.42
   1  -9  -3    1.85    3.08
   1  -9  -3    1.82    2.25
   1  -9  -2  228.62   21.19
   1  -9  -2  243.76   20.12
   1  -9  -1   14.26    5.55
   1  -9  -1    6.68    3.31
   1  -9   0    3.37    3.06
   1  -9   0   12.93    5.58
   1  -9   1  125.24   14.66
   1  -9   1  125.12   15.30
   1  -9   2    7.64    4.06
   1  -9   2   11.92    5.40
   1  -9   3   16.67    5.48
   1  -9   3    8.56    4.35
   1  -9   4  113.17   13.44
   1  -9   4  139.90   17.00
   1  -9   5  172.76   19.49
   1  -9   6   42.87   10.06
   1  -9   7  165.50   20.09
   1  -9   8  140.22   18.89
   1  -9  10   87.63   17.72
   1  -9  11  559.79   45.38
   1  -9  12   68.68   17.02
   1  -8 -10   -2.37    4.04
   1  -8  -9   83.24   15.72
   1  -8  -8    2.51    3.00
   1  -8  -7   95.38   15.58
   1  -8  -6  155.12   13.11
   1  -8  -6  146.09   18.28
   1  -8  -5  677.48   28.57
   1  -8  -5  659.45   37.12
   1  -8  -4    5.32    3.34
   1  -8  -4    4.16    2.57
   1  -8  -3  830.67   38.77
   1  -8  -3  792.58   32.80
   1  -8  -2    4.79    3.13
   1  -8  -2    7.81    3.69
   1  -8  -1 1110.16   42.12
   1  -8  -1 1029.10   39.38
   1  -8   0   10.07    4.16
   1  -8   0    8.51    2.98
   1  -8   1 1454.50   45.41
   1  -8   1 1326.24   46.66
   1  -8   2    1.20    1.20
   1  -8   2   70.11   11.00
   1  -8   3 1178.51   45.38
   1  -8   4  499.30   30.45
   1  -8   5  744.57   37.82
   1  -8   6  912.58   43.07
   1  -8   7  746.38   41.27
   1  -8   7  827.64   41.92
   1  -8   8  708.68   42.31
   1  -8   8  715.19   39.86
   1  -8   9   72.57   14.20
   1  -8  10  346.98   32.86
   1  -8  11   13.37    7.39
   1  -8  12  445.33   41.27
   1  -7 -11  454.90   37.78
   1  -7 -10  144.21   20.40
   1  -7  -9  382.80   31.80
   1  -7  -8  688.61   40.56
   1  -7  -7  450.48   31.37
   1  -7  -6  871.10   27.74
   1  -7  -6  928.29   43.08
   1  -7  -5   11.06    4.90
   1  -7  -5   14.36    3.88
   1  -7  -4  826.83   29.61
   1  -7  -4  777.13   36.10
   1  -7  -3   96.34   10.54
   1  -7  -3  100.22   12.49
   1  -7  -2 2144.23   55.09
   1  -7  -2 2065.96   49.95
   1  -7  -1  105.81   11.94
   1  -7  -1   93.85   14.34
   1  -7  -1   94.61   11.14
   1  -7   0 1745.96   48.52
   1  -7   1 1017.31   37.43
   1  -7   2  988.77   37.78
   1  -7   3  556.62   25.02
   1  -7   3  551.25   28.94
   1  -7   4  978.20   39.26
   1  -7   4 1025.29   33.54
   1  -7   5  591.11   31.26
   1  -7   6  111.03   14.43
   1  -7   6  108.82   13.86
   1  -7   7  622.73   35.98
   1  -7   7  693.75   35.75
   1  -7   8   76.31   13.33
   1  -7   8   62.35   11.16
   1  -7   9  535.65   36.85
   1  -7   9  459.14   30.82
   1  -7  10   -2.60    2.45
   1  -7  11  276.68   29.76
   1  -7  12   -1.90    5.37
   1  -7  13   41.34   13.60
   1  -6 -11  403.16   33.71
   1  -6 -10  184.11   21.71
   1  -6  -9  361.47   18.25
   1  -6  -9  337.92   28.31
   1  -6  -8  103.59   14.93
   1  -6  -8  111.79    9.09
   1  -6  -8   97.26    8.29
   1  -6  -7  600.54   17.39
   1  -6  -7  586.16   33.59
   1  -6  -7  582.96   18.40
   1  -6  -7  590.45   16.65
   1  -6  -6   12.17    5.14
   1  -6  -6    6.38    2.13
   1  -6  -5 2044.52   40.72
   1  -6  -5 2127.33   58.12
   1  -6  -4   67.11    9.97
   1  -6  -4   66.80    7.56
   1  -6  -3  990.41   45.89
   1  -6  -3 1001.81   30.93
   1  -6  -3 1024.23   36.38
   1  -6  -2   38.19    8.72
   1  -6  -2   43.99    6.70
   1  -6  -1  566.95   32.43
   1  -6  -1  545.22   24.15
   1  -6   0   31.69    6.10
   1  -6   0   31.76    5.74
   1  -6   1  369.64   18.80
   1  -6   1  410.91   21.89
   1  -6   2    5.27    1.91
   1  -6   2    5.10    2.97
   1  -6   3  273.55   15.45
   1  -6   3  140.61   13.61
   1  -6   4   16.84    4.65
   1  -6   4   14.86    3.69
   1  -6   4   15.10    4.81
   1  -6   5    3.41    2.88
   1  -6   5    8.62    3.64
   1  -6   6   11.04    4.36
   1  -6   6   41.96    8.44
   1  -6   7   12.32    5.17
   1  -6   7   10.51    4.07
   1  -6   8  267.75   23.76
   1  -6   8  245.15   20.46
   1  -6   9    0.95    1.79
   1  -6   9    0.05    3.97
   1  -6   9    0.87    1.77
   1  -6  10  474.50   35.56
   1  -6  10  403.50   33.26
   1  -6  11   25.92    8.75
   1  -6  11   28.29    9.18
   1  -6  12  279.59   30.39
   1  -6  13   29.58   11.44
   1  -5 -12   78.17   14.94
   1  -5 -11  104.53   13.01
   1  -5 -11  103.66   16.36
   1  -5 -10   40.70    9.87
   1  -5 -10   45.75    7.97
   1  -5  -9   39.43    9.20
   1  -5  -9   29.09    5.94
   1  -5  -8  169.63   12.83
   1  -5  -8  177.22   18.63
   1  -5  -7   54.33    6.34
   1  -5  -7   54.39    9.94
   1  -5  -7   57.35    4.89
   1  -5  -6   19.97    3.36
   1  -5  -6   21.98    6.09
   1  -5  -6   24.06    3.63
   1  -5  -6   22.41    3.44
   1  -5  -5    4.90    1.31
   1  -5  -5    4.05    2.47
   1  -5  -5    5.07    1.31
   1  -5  -5    1.57    2.57
   1  -5  -5    6.84    2.18
   1  -5  -4  860.69   41.34
   1  -5  -4  819.50   31.77
   1  -5  -4  832.88   24.09
   1  -5  -3  874.05   40.02
   1  -5  -3  801.41   24.56
   1  -5  -2   64.61   10.48
   1  -5  -2   65.79    7.26
   1  -5  -1  117.31   13.63
   1  -5  -1  130.91   10.68
   1  -5  -1  120.24   10.11
   1  -5   0 1721.54   36.43
   1  -5   0 1705.77   39.70
   1  -5   1  615.75   21.05
   1  -5   1  627.80   24.66
   1  -5   2 2059.02   37.70
   1  -5   3 1933.20   43.89
   1  -5   3 2054.79   37.46
   1  -5   4 1159.64   36.32
   1  -5   4   31.98    6.36
   1  -5   5 2159.06   52.88
   1  -5   5 2220.34   52.42
   1  -5   6  937.18   37.10
   1  -5   6  968.05   41.68
   1  -5   6  988.85   35.75
   1  -5   7 1510.36   50.27
   1  -5   7 1528.18   53.53
   1  -5   7 1579.89   47.04
   1  -5   8  159.24   17.39
   1  -5   8  125.62   16.27
   1  -5   8  142.85   14.49
   1  -5   9 1899.82   63.87
   1  -5   9 1850.40   63.95
   1  -5   9 1813.40   52.92
   1  -5  10   81.28   14.28
   1  -5  10   84.63   14.40
   1  -5  11 1366.77   61.39
   1  -5  11 1157.83   54.77
   1  -5  12    8.66    5.44
   1  -5  12    4.42    4.16
   1  -5  13  830.16   53.44
   1  -5  13  811.67   49.11
   1  -5  14   32.22   10.63
   1  -4 -13  250.34   26.87
   1  -4 -12  133.35   16.53
   1  -4 -12   89.11   15.37
   1  -4 -11  386.15   26.23
   1  -4 -11  361.25   29.42
   1  -4 -10  238.28   19.33
   1  -4 -10  231.12   22.27
   1  -4  -9 1278.26   41.34
   1  -4  -9 1218.60   48.44
   1  -4  -8   14.21    5.50
   1  -4  -8    9.93    4.53
   1  -4  -8    3.54    1.96
   1  -4  -7 2509.21   61.13
   1  -4  -7 2504.07   62.67
   1  -4  -7 2424.86   26.03
   1  -4  -6   85.69    7.83
   1  -4  -6   88.66   13.34
   1  -4  -6   97.19   11.54
   1  -4  -6   90.75    5.91
   1  -4  -5 3019.80   38.94
   1  -4  -5 3110.49   74.87
   1  -4  -4   44.99    3.64
   1  -4  -4   51.15    6.40
   1  -4  -3 6023.69   72.53
   1  -4  -3 5999.79   94.15
   1  -4  -2   29.60    5.47
   1  -4  -2   40.34    5.70
   1  -4  -2   27.55    6.33
   1  -4  -1 6772.24   82.80
   1  -4  -1 6694.35   90.79
   1  -4  -1 6621.89   66.53
   1  -4   0 1230.24   26.64
   1  -4   0 1239.89   36.55
   1  -4   1 4428.34   47.32
   1  -4   1 4330.21   57.98
   1  -4   2  751.99   23.02
   1  -4   2  758.03   19.18
   1  -4   3 1419.95   33.93
   1  -4   3 1494.42   36.63
   1  -4   4  938.82   29.95
   1  -4   5 1150.57   35.95
   1  -4   5 1197.13   40.65
   1  -4   6 1646.62   46.67
   1  -4   6 1566.10   48.40
   1  -4   7  254.91   19.73
   1  -4   7  269.80   20.94
   1  -4   7  249.16   17.06
   1  -4   8 1103.51   44.10
   1  -4   8 1030.24   42.96
   1  -4   8 1067.62   36.38
   1  -4   9   10.42    4.80
   1  -4   9   15.65    5.75
   1  -4  10  404.19   30.34
   1  -4  10  397.00   29.06
   1  -4  11    5.59    2.69
   1  -4  11    5.33    3.81
   1  -4  12  118.49   18.53
   1  -4  12  105.81   16.17
   1  -4  13   22.50    9.07
   1  -4  13   26.85    9.10
   1  -4  14   41.88   12.73
   1  -4  14   44.11   11.30
   1  -3 -14  163.28   21.11
   1  -3 -14  190.41   23.75
   1  -3 -13  551.31   36.83
   1  -3 -13  604.55   40.55
   1  -3 -12  382.73   29.13
   1  -3 -12  409.98   31.55
   1  -3 -11  528.51   32.24
   1  -3 -11  508.58   33.63
   1  -3 -10 1116.58   43.84
   1  -3 -10 1073.79   46.07
   1  -3  -9  481.99   26.81
   1  -3  -9  488.50   29.29
   1  -3  -8 1234.25   44.64
   1  -3  -8 1233.62   51.37
   1  -3  -8 1245.73   44.23
   1  -3  -8 1306.56   41.18
   1  -3  -7  765.11   32.71
   1  -3  -7  815.70   39.67
   1  -3  -7  813.52   33.61
   1  -3  -6 2219.79   30.91
   1  -3  -6 2263.13   62.06
   1  -3  -5   71.33    6.82
   1  -3  -5   60.86    7.69
   1  -3  -5   70.52    5.93
   1  -3  -5   61.10    9.66
   1  -3  -4 1865.92   28.85
   1  -3  -4 1766.65   36.88
   1  -3  -4 1882.37   32.22
   1  -3  -4 1764.35   48.74
   1  -3  -3  884.40   15.11
   1  -3  -3  928.18   23.41
   1  -3  -3  947.17   24.10
   1  -3  -3  935.33   33.16
   1  -3  -3  950.05   26.85
   1  -3  -2  197.55   11.42
   1  -3  -2  223.61   15.41
   1  -3  -2  203.65   11.23
   1  -3  -1  166.95   10.94
   1  -3  -1  169.67   12.60
   1  -3  -1  181.59    9.48
   1  -3   0 1682.41   35.84
   1  -3   0 1700.66   25.62
   1  -3   1  938.78   19.28
   1  -3   1  910.20   16.99
   1  -3   1  934.48   28.24
   1  -3   2  343.92   18.00
   1  -3   2  374.95   10.61
   1  -3   2  364.00   13.72
   1  -3   3  351.65   15.32
   1  -3   3  358.38   16.05
   1  -3   4    2.13    2.30
   1  -3   4    0.57    1.46
   1  -3   4    4.50    2.50
   1  -3   5  183.14   13.81
   1  -3   5  230.91   16.13
   1  -3   5  216.29   13.51
   1  -3   6   11.52    3.96
   1  -3   6   17.33    4.87
   1  -3   6   24.69    4.83
   1  -3   7    0.71    1.82
   1  -3   7    4.31    2.52
   1  -3   8    4.80    3.35
   1  -3   8    6.20    3.61
   1  -3   9   22.31    6.71
   1  -3   9   47.28    9.12
   1  -3  10    2.35    3.24
   1  -3  10    5.78    2.04
   1  -3  11   16.23    6.34
   1  -3  11   10.83    5.39
   1  -3  12   26.71    9.64
   1  -3  12   16.66    5.82
   1  -3  13   59.20   13.34
   1  -3  13   57.18   11.93
   1  -3  14   94.80   18.27
   1  -2 -15   -1.22    4.24
   1  -2 -14  175.78   22.61
   1  -2 -14  152.96   20.86
   1  -2 -13  138.23   19.13
   1  -2 -13  132.16   18.84
   1  -2 -12   70.50   13.00
   1  -2 -12   63.86   12.35
   1  -2 -11  214.47   21.30
   1  -2 -11  176.54   19.10
   1  -2 -10  290.14   23.32
   1  -2 -10  268.07   22.23
   1  -2  -9   17.76    6.51
   1  -2  -8  196.37   17.30
   1  -2  -8  208.96   19.88
   1  -2  -8  193.38    6.99
   1  -2  -7   38.69    7.26
   1  -2  -7   39.53    3.29
   1  -2  -7   42.48    8.46
   1  -2  -6    8.69    1.78
   1  -2  -6   11.85    4.58
   1  -2  -5    6.32    2.34
   1  -2  -5   12.52    2.21
   1  -2  -5    8.70    3.32
   1  -2  -4   33.79    4.77
   1  -2  -4   26.32    3.26
   1  -2  -4   25.24    3.87
   1  -2  -4   21.00    4.84
   1  -2  -3  105.16    7.26
   1  -2  -3  108.34    6.68
   1  -2  -3  110.71    6.46
   1  -2  -3  112.08    9.94
   1  -2  -2   20.84    2.62
   1  -2  -2   23.72    3.25
   1  -2  -2   26.09    4.64
   1  -2  -2   24.14    2.30
   1  -2  -1    2.30    0.85
   1  -2  -1    4.34    1.95
   1  -2   0   54.05    5.36
   1  -2   0   52.57    3.40
   1  -2   1 2434.41   24.75
   1  -2   1 2534.05   38.38
   1  -2   2 1046.71   25.95
   1  -2   2  996.85   20.20
   1  -2   3  874.67   22.61
   1  -2   3  919.97   25.05
   1  -2   3  840.36   24.99
   1  -2   4 1421.81   32.83
   1  -2   4 1420.14   33.31
   1  -2   4 1466.52   29.30
   1  -2   5   10.30    3.28
   1  -2   5    6.83    2.85
   1  -2   5    7.83    2.21
   1  -2   6 2545.73   53.77
   1  -2   6 2438.34   49.92
   1  -2   6 2499.51   41.89
   1  -2   7  220.74   17.32
   1  -2   7  190.56   15.15
   1  -2   7  191.67   12.00
   1  -2   8 1572.03   49.85
   1  -2   8 1582.66   46.24
   1  -2   9   17.68    5.69
   1  -2   9    0.18    1.92
   1  -2  10 1903.82   63.31
   1  -2  10 1763.28   54.38
   1  -2  11  152.68   19.11
   1  -2  11  122.02   15.09
   1  -2  12 1271.90   58.65
   1  -2  12 1175.30   48.22
   1  -2  13  198.77   24.86
   1  -2  13  203.08   20.66
   1  -2  14  805.62   52.72
   1  -1 -15    3.28    3.86
   1  -1 -15    9.12    7.04
   1  -1 -14   16.81    6.89
   1  -1 -14   14.10    7.34
   1  -1 -13   24.21    8.17
   1  -1 -13   24.71    8.44
   1  -1 -12  201.99   22.50
   1  -1 -11  107.58   15.34
   1  -1 -10  186.97   19.27
   1  -1 -10  158.17   17.94
   1  -1  -9   12.56    3.77
   1  -1  -9   11.22    2.14
   1  -1  -9    8.57    4.22
   1  -1  -9   13.35    2.49
   1  -1  -8 1261.05   42.75
   1  -1  -8 1219.16   34.50
   1  -1  -8 1263.32   44.87
   1  -1  -8 1211.21   23.41
   1  -1  -7   86.21    8.63
   1  -1  -7   97.72   11.89
   1  -1  -7   77.54    9.83
   1  -1  -7   81.95    5.82
   1  -1  -6 1316.03   31.21
   1  -1  -6 1407.58   40.47
   1  -1  -5    1.87    1.22
   1  -1  -5    3.36    1.91
   1  -1  -5    1.87    1.55
   1  -1  -4 4948.21   58.28
   1  -1  -4 4927.83   56.82
   1  -1  -4 4878.03   62.41
   1  -1  -3  668.46   17.81
   1  -1  -3  719.42   21.01
   1  -1  -3  701.93   18.69
   1  -1  -2 9784.23   54.03
   1  -1  -2 9602.69   68.26
   1  -1  -2 9587.84   56.75
   1  -1  -1 2156.32   28.50
   1  -1  -1 2115.51   22.14
   1  -1   0  411.53    9.93
   1  -1   1 2941.93   26.10
   1  -1   1 2878.72   32.15
   1  -1   2 4229.92   41.18
   1  -1   2 4347.05   41.71
   1  -1   2 4190.75   46.58
   1  -1   3 5263.13   55.63
   1  -1   3 5375.49   59.60
   1  -1   3 5358.67   48.40
   1  -1   4 2343.03   41.91
   1  -1   4 2360.37   36.47
   1  -1   4 2390.50   31.03
   1  -1   4 2352.45   44.05
   1  -1   5 2846.39   51.57
   1  -1   5 2857.44   53.02
   1  -1   5 2918.90   45.55
   1  -1   5 2929.16   36.51
   1  -1   6  506.37   23.81
   1  -1   6  536.60   24.79
   1  -1   6  498.03   20.43
   1  -1   6  508.53   15.76
   1  -1   7 2749.39   60.22
   1  -1   7 2649.69   51.44
   1  -1   8   33.84    7.06
   1  -1   8   42.69    7.18
   1  -1   9 1965.79   58.98
   1  -1   9 1925.55   56.99
   1  -1   9 1989.85   50.50
   1  -1  10    1.76    1.75
   1  -1  10   -1.15    1.85
   1  -1  10    0.85    2.46
   1  -1  11  656.94   39.46
   1  -1  11  670.86   32.84
   1  -1  12   -4.82    4.05
   1  -1  12    0.97    2.05
   1  -1  13  397.48   34.58
   1  -1  14    4.99    4.39
   1   0 -15  292.17   32.20
   1   0 -15  279.72   28.25
   1   0 -14  198.52   25.24
   1   0 -14  226.66   24.36
   1   0 -13  543.53   39.87
   1   0 -12  488.08   35.91
   1   0 -11 1420.99   29.79
   1   0 -11 1314.37   51.78
   1   0 -11 1393.85   57.51
   1   0 -10  218.82   21.55
   1   0 -10  234.65   13.05
   1   0 -10  201.83   16.79
   1   0 -10  217.79   19.83
   1   0  -9 2477.54   55.92
   1   0  -9 2548.79   63.57
   1   0  -8  281.90   17.88
   1   0  -8  335.37   22.04
   1   0  -8  326.66   17.86
   1   0  -8  322.64   21.10
   1   0  -8  316.30   14.01
   1   0  -7 3647.77   60.56
   1   0  -7 3815.57   68.91
   1   0  -7 3643.70   55.17
   1   0  -7 3739.80   65.89
   1   0  -7 3741.51   46.21
   1   0  -6    9.46    2.91
   1   0  -6    6.67    2.76
   1   0  -6    9.09    3.35
   1   0  -6    8.14    2.03
   1   0  -5 3697.68   56.59
   1   0  -5 3769.64   43.63
   1   0  -5 3816.01   53.72
   1   0  -4  270.33   13.01
   1   0  -4  250.38   13.05
   1   0  -4  280.08   14.92
   1   0  -4  275.46    9.86
   1   0  -4  263.77   12.25
   1   0  -3 4231.63   46.38
   1   0  -3 4220.81   50.42
   1   0  -3 4152.46   47.00
   1   0  -3 4201.61   29.29
   1   0  -3 4358.23   40.26
   1   0  -2  241.18   10.41
   1   0  -2  251.31   10.00
   1   0  -2  238.19    9.92
   1   0  -2  237.48    7.06
   1   0  -1 1549.86   22.71
   1   0   0   -0.04    0.49
   1   0   0    0.07    0.39
   1   0   1 1379.08   22.14
   1   0   1 1344.44   21.83
   1   0   1 1385.11   17.95
   1   0   2 2106.79   31.67
   1   0   2 2080.05   25.83
   1   0   3  326.19   14.32
   1   0   3  324.73   15.34
   1   0   3  334.38    9.02
   1   0   4  288.31    8.90
   1   0   4  290.59   15.16
   1   0   4  303.63   16.50
   1   0   5   28.28    5.39
   1   0   5   27.02    5.33
   1   0   5   31.46    2.81
   1   0   6  344.16   19.78
   1   0   6  343.48   20.63
   1   0   7    8.93    3.41
   1   0   8   35.54    7.62
   1   0   8   27.59    7.02
   1   0   9    4.73    3.19
   1   0   9    0.35    2.08
   1   0  10   25.70    7.61
   1   0  10   45.93   10.08
   1   0  11    4.44    3.28
   1   0  11   -0.63    2.14
   1   0  12  117.58   17.72
   1   0  12   92.15   11.99
   1   0  13   -1.35    3.33
   1   0  14   44.13   12.95
   1   1 -15  366.30   36.89
   1   1 -14  169.51   23.99
   1   1 -13  398.60   34.91
   1   1 -12  326.73   30.22
   1   1 -11  132.70   13.57
   1   1 -11  140.25   12.40
   1   1 -11  117.85   14.97
   1   1 -11  132.02   17.99
   1   1 -10  214.21   18.42
   1   1 -10  227.34   16.73
   1   1 -10  215.49   22.03
   1   1 -10  249.28   16.77
   1   1 -10  223.78   18.99
   1   1 -10  219.50   14.44
   1   1  -9   72.62   10.13
   1   1  -9   67.53    8.51
   1   1  -9   69.43   11.98
   1   1  -9   74.28   10.28
   1   1  -9   71.06    7.97
   1   1  -8  247.52   17.69
   1   1  -8  259.77   19.77
   1   1  -8  244.86   15.04
   1   1  -8  235.96   16.95
   1   1  -8  247.39   14.13
   1   1  -7   66.19    8.77
   1   1  -7   68.34    7.50
   1   1  -7   51.64    8.64
   1   1  -7   74.43    8.64
   1   1  -6   80.69    9.12
   1   1  -6   75.15    6.82
   1   1  -6   84.01    8.26
   1   1  -6   85.04    7.66
   1   1  -5  171.45   12.52
   1   1  -5  181.96   14.25
   1   1  -5  181.39   10.51
   1   1  -5  169.46    8.93
   1   1  -5  163.74   10.06
   1   1  -4   -0.48    1.50
   1   1  -4    3.18    1.25
   1   1  -4    2.72    1.93
   1   1  -4    2.07    0.94
   1   1  -3  732.99   21.78
   1   1  -3  764.04   23.31
   1   1  -3  719.00   13.00
   1   1  -2  517.11   16.68
   1   1  -2  548.78   17.53
   1   1  -1  285.43   11.30
   1   1  -1  266.81   10.90
   1   1   0  455.01   11.65
   1   1   0  444.13   13.35
   1   1   0  483.31   13.14
   1   1   0  476.24   13.25
   1   1   1   21.63    2.91
   1   1   1   21.03    3.00
   1   1   1   21.22    3.52
   1   1   2   71.18    6.64
   1   1   2   81.34    6.34
   1   1   3  133.41    9.81
   1   1   3  130.57    8.90
   1   1   3  128.32   10.56
   1   1   4  239.15   14.40
   1   1   4  205.99   14.59
   1   1   4  230.57   16.20
   1   1   5  825.21   28.94
   1   1   5  790.92   30.84
   1   1   6   13.45    4.17
   1   1   7 1102.73   39.22
   1   1   7   -0.92    2.49
   1   1   8    0.98    1.57
   1   1   8   -1.77    2.85
   1   1   9  653.74   34.40
   1   1   9  688.91   36.51
   1   1  10   52.24   10.56
   1   1  11  821.75   43.85
   1   1  12  220.65   24.22
   1   1  13  247.09   27.11
   1   2 -16    0.72    4.14
   1   2 -14   25.21    9.54
   1   2 -13   20.20    8.14
   1   2 -12    4.61    3.39
   1   2 -12    8.14    5.40
   1   2 -11   81.00   10.66
   1   2 -11   95.39   15.80
   1   2 -11   89.42   12.35
   1   2 -10  124.63   13.41
   1   2 -10  121.40   16.71
   1   2 -10  107.01   11.36
   1   2 -10  128.40   12.16
   1   2  -9  137.49   14.88
   1   2  -9  150.01   17.80
   1   2  -9  127.46   11.76
   1   2  -9  146.08   13.77
   1   2  -9  129.86   11.93
   1   2  -8   78.98   10.76
   1   2  -8   81.63   11.52
   1   2  -8   59.31    7.49
   1   2  -8   81.11   12.34
   1   2  -8   59.23    8.00
   1   2  -8   76.66    8.89
   1   2  -7  655.19   29.29
   1   2  -7  652.03   32.49
   1   2  -7  678.05   23.24
   1   2  -7  639.28   24.16
   1   2  -7  635.10   24.55
   1   2  -6    1.29    1.23
   1   2  -6    1.73    2.16
   1   2  -6    1.56    1.73
   1   2  -6    2.47    1.53
   1   2  -6    1.21    1.00
   1   2  -5 1546.05   43.15
   1   2  -5 1535.55   29.48
   1   2  -5 1500.24   34.42
   1   2  -5 1453.72   39.13
   1   2  -4   46.87    6.59
   1   2  -4   56.56    7.53
   1   2  -4   46.11    5.73
   1   2  -3  511.00   20.46
   1   2  -3  499.85   20.28
   1   2  -3  482.29   17.75
   1   2  -3  494.89   19.14
   1   2  -2 1643.13   34.98
   1   2  -2 1599.20   24.03
   1   2  -2 1576.18   32.25
   1   2  -2 1622.16   30.85
   1   2  -2 1657.74   33.38
   1   2  -1  404.86   14.75
   1   2  -1  420.97   15.77
   1   2  -1  370.58   12.83
   1   2  -1  403.74   14.56
   1   2  -1  409.92   14.93
   1   2   0 5590.66   48.42
   1   2   0 5712.24   56.53
   1   2   0 5680.85   57.03
   1   2   0 5621.19   54.38
   1   2   0 5676.24   51.28
   1   2   0 5547.52   50.45
   1   2   1 2329.77   26.44
   1   2   1 2304.06   41.62
   1   2   1 2288.61   31.91
   1   2   1 2267.77   31.88
   1   2   1 2256.85   29.59
   1   2   1 2316.86   36.88
   1   2   2 2497.25   34.60
   1   2   2 2479.22   31.48
   1   2   2 2508.78   40.98
   1   2   2 2513.21   27.98
   1   2   3  291.25   15.66
   1   2   3  308.60   17.90
   1   2   3  293.95   14.93
   1   2   3  310.54    8.55
   1   2   4 4811.40   68.07
   1   2   4 4744.76   75.73
   1   2   4 4798.06   65.66
   1   2   5   28.04    5.78
   1   2   6 3734.47   68.72
   1   2   6 3656.87   79.41
   1   2   7    7.52    3.68
   1   2   7    5.74    3.81
   1   2   7    3.66    2.56
   1   2   8 2223.40   65.71
   1   2   8 2164.98   59.85
   1   2   9  146.65   16.57
   1   2  10 1967.24   64.53
   1   2  11  196.68   21.57
   1   2  12  519.43   37.27
   1   2  13  172.56   22.90
   1   3 -14  167.58   24.98
   1   3 -13  121.71   20.35
   1   3 -12  443.74   36.69
   1   3 -12  469.34   26.87
   1   3 -11  103.08   12.12
   1   3 -11   96.10   13.76
   1   3 -11  104.52   12.91
   1   3 -10 1256.55   54.96
   1   3 -10 1253.55   47.82
   1   3 -10 1297.42   42.32
   1   3 -10 1278.60   40.64
   1   3 -10 1291.02   42.20
   1   3  -9   33.44    6.32
   1   3  -9   16.33    6.10
   1   3  -9   42.89    7.27
   1   3  -9   26.26    5.79
   1   3  -8 2264.69   61.23
   1   3  -8 2440.06   69.40
   1   3  -8 2325.91   48.75
   1   3  -8 2265.15   48.21
   1   3  -8 2366.09   53.78
   1   3  -7   60.16    9.44
   1   3  -7   52.79    9.07
   1   3  -7   56.37    7.33
   1   3  -7   46.01    9.07
   1   3  -7   54.15    7.88
   1   3  -6 1789.93   46.81
   1   3  -6 1896.06   50.33
   1   3  -6 1774.85   51.88
   1   3  -6 1890.70   39.25
   1   3  -6 1744.11   43.31
   1   3  -6 1822.34   50.10
   1   3  -5 1738.42   47.52
   1   3  -5 1761.89   41.66
   1   3  -5 1780.77   43.78
   1   3  -4 3245.92   59.68
   1   3  -4 3252.00   55.59
   1   3  -4 3284.16   54.66
   1   3  -3 2281.98   45.82
   1   3  -3 2244.72   47.20
   1   3  -3 2207.57   35.33
   1   3  -3 2243.88   43.83
   1   3  -3 2272.72   43.74
   1   3  -2 5731.19   73.23
   1   3  -2 5703.16   67.23
   1   3  -2 5493.21   58.93
   1   3  -2 5722.50   65.98
   1   3  -2 5429.52   67.68
   1   3  -1 3351.97   49.88
   1   3  -1 3260.71   47.48
   1   3  -1 3229.97   46.11
   1   3  -1 3158.39   47.36
   1   3   0 1467.48   33.01
   1   3   0 1456.82   35.46
   1   3   0 1481.27   34.22
   1   3   0 1525.97   29.27
   1   3   0 1466.29   30.11
   1   3   0 1531.80   29.38
   1   3   1 3063.78   36.47
   1   3   1 2964.77   54.48
   1   3   1 3114.88   40.21
   1   3   1 2962.40   45.73
   1   3   1 3188.41   41.63
   1   3   1 3049.33   48.44
   1   3   2 1265.33   19.47
   1   3   2 1249.17   38.15
   1   3   2 1217.11   25.07
   1   3   2 1240.20   28.55
   1   3   2 1261.44   32.82
   1   3   2 1301.13   24.80
   1   3   3 2293.04   47.35
   1   3   3 2234.39   45.93
   1   3   3 2256.19   29.82
   1   3   4  651.70   26.66
   1   3   4  661.24   26.65
   1   3   4  640.03   18.63
   1   3   5 1683.77   45.39
   1   3   5 1480.36   23.85
   1   3   6   41.46    7.69
   1   3   6   70.66   11.60
   1   3   6   48.88    9.84
   1   3   7  530.07   28.42
   1   3   7  544.33   32.75
   1   3   7  568.02   35.27
   1   3   8   99.80   13.15
   1   3   8   86.75   14.46
   1   3   9   17.87    6.10
   1   3   9   25.47    8.12
   1   3  10   -1.35    2.24
   1   3  11   94.03   15.30
   1   3  12   28.47    9.00
   1   3  13   -6.62    4.80
   1   4 -14  124.84   22.17
   1   4 -13  706.63   49.39
   1   4 -12   61.46   10.14
   1   4 -12   44.30   12.32
   1   4 -11 1263.22   59.91
   1   4 -11 1288.81   44.37
   1   4 -10   76.39   10.63
   1   4 -10   79.07   14.11
   1   4 -10   60.46    8.99
   1   4  -9  975.50   42.27
   1   4  -9 1035.70   48.88
   1   4  -9  991.46   36.14
   1   4  -9  965.29   34.10
   1   4  -8    4.85    3.36
   1   4  -8    4.87    2.86
   1   4  -8   -1.80    2.68
   1   4  -8    1.92    2.27
   1   4  -7 1272.87   47.98
   1   4  -7 1412.48   47.73
   1   4  -7 1367.01   42.86
   1   4  -7 1343.36   44.19
   1   4  -7 1319.34   47.80
   1   4  -6  101.13   12.72
   1   4  -6  108.91   12.78
   1   4  -6   86.71   10.56
   1   4  -6   96.74   11.10
   1   4  -6  104.88   12.80
   1   4  -5 1521.99   46.24
   1   4  -5 1630.09   46.64
   1   4  -5 1462.61   34.37
   1   4  -5 1470.70   41.80
   1   4  -5 1547.78   43.02
   1   4  -4   -0.01    1.63
   1   4  -4    0.42    2.05
   1   4  -4    2.07    1.22
   1   4  -4    3.31    2.25
   1   4  -4    0.96    1.50
   1   4  -3  512.59   23.19
   1   4  -3  533.03   25.08
   1   4  -3  549.10   23.30
   1   4  -3  525.05   21.07
   1   4  -3  553.64   23.88
   1   4  -2    3.84    1.91
   1   4  -2    2.57    2.45
   1   4  -2    2.20    1.87
   1   4  -2    3.15    1.84
   1   4  -2    1.85    2.24
   1   4  -2    4.57    2.56
   1   4  -1   66.44    7.80
   1   4  -1   57.63    7.89
   1   4  -1   63.59    8.68
   1   4  -1   71.08    7.94
   1   4  -1   45.57    6.02
   1   4  -1   71.49    8.03
   1   4   0   78.47    8.51
   1   4   0   79.02    9.61
   1   4   0   82.68    9.41
   1   4   0   82.76    7.41
   1   4   0   78.12    7.89
   1   4   0   85.40    8.05
   1   4   1   35.38    4.70
   1   4   1   39.14    6.17
   1   4   1   33.92    6.69
   1   4   1   39.92    4.90
   1   4   1   36.00    5.92
   1   4   1   44.28    5.79
   1   4   2  113.95    7.25
   1   4   2  120.97   13.11
   1   4   2  118.02    8.06
   1   4   2  107.74   10.01
   1   4   2  116.74   11.06
   1   4   2  120.87    8.94
   1   4   3    2.34    0.88
   1   4   3    1.30    1.57
   1   4   3    1.07    1.97
   1   4   3    0.54    1.68
   1   4   3    4.64    2.30
   1   4   4  774.54   30.88
   1   4   4  726.20   35.23
   1   4   4  711.53   23.92
   1   4   4  771.57   31.27
   1   4   5  114.33   14.55
   1   4   5  109.18   12.12
   1   4   5  115.88    8.86
   1   4   5  117.86   15.24
   1   4   5  114.26   12.64
   1   4   6  614.06   30.12
   1   4   6  630.61   35.71
   1   4   6  552.19   15.87
   1   4   6  622.23   37.20
   1   4   7    7.53    3.87
   1   4   7    5.18    4.38
   1   4   8  515.79   30.72
   1   4   8  515.53   37.28
   1   4   9   53.32   10.66
   1   4   9   42.52   11.45
   1   4  10  384.20   29.56
   1   4  10  424.04   36.83
   1   4  11   34.08    9.34
   1   4  12  621.60   41.93
   1   4  13  217.73   26.08
   1   5 -13   42.01   12.86
   1   5 -12    9.71    7.41
   1   5 -11    7.72    3.43
   1   5 -11   30.59    9.76
   1   5 -10   18.93    5.82
   1   5 -10   16.04    6.56
   1   5 -10   21.53    5.69
   1   5  -9    3.19    2.51
   1   5  -9    3.15    2.09
   1   5  -9    5.01    4.15
   1   5  -8  159.41   18.71
   1   5  -8  153.46   14.83
   1   5  -8  170.45   16.91
   1   5  -7   48.67    8.64
   1   5  -7   40.68    8.86
   1   5  -6  613.43   32.85
   1   5  -6  636.85   32.35
   1   5  -6  593.44   25.12
   1   5  -6  597.72   28.92
   1   5  -6  691.61   32.02
   1   5  -5  371.22   23.82
   1   5  -5  447.32   26.03
   1   5  -5  373.59   19.82
   1   5  -5  381.40   22.18
   1   5  -5  437.95   24.62
   1   5  -5  416.69   26.22
   1   5  -4 1285.53   41.87
   1   5  -4 1280.79   42.99
   1   5  -4 1340.63   39.97
   1   5  -4 1267.07   37.24
   1   5  -4 1288.13   41.15
   1   5  -4 1235.40   43.57
   1   5  -3  362.40   22.48
   1   5  -3  371.64   20.62
   1   5  -3  348.29   19.81
   1   5  -3  402.83   22.38
   1   5  -3  375.83   21.13
   1   5  -2 1443.60   44.04
   1   5  -2 1462.07   40.15
   1   5  -2 1434.32   41.75
   1   5  -2 1443.23   38.23
   1   5  -1  533.38   24.22
   1   5  -1  493.76   25.48
   1   5  -1  509.23   26.92
   1   5  -1  576.65   24.96
   1   5  -1  494.74   21.01
   1   5  -1  544.00   24.09
   1   5   0  865.54   35.13
   1   5   0  907.63   34.82
   1   5   0  898.72   26.27
   1   5   0  925.49   30.48
   1   5   0  936.79   32.23
   1   5   0  905.30   29.01
   1   5   1 1786.44   53.77
   1   5   1 1894.16   35.43
   1   5   1 1858.21   48.21
   1   5   1 2012.78   42.95
   1   5   1 1938.40   47.25
   1   5   1 2070.48   39.81
   1   5   2  637.75   19.77
   1   5   2  620.75   32.57
   1   5   2  621.19   19.38
   1   5   2  579.13   26.36
   1   5   2  627.82   27.87
   1   5   3 1569.33   26.06
   1   5   3 1499.94   42.46
   1   5   3 1518.15   53.70
   1   5   3 1616.39   46.37
   1   5   3 1527.17   42.02
   1   5   4   19.44    5.31
   1   5   4   24.81    5.26
   1   5   4   28.28    6.44
   1   5   4   28.95    7.96
   1   5   4   30.85    5.98
   1   5   5 1575.18   48.42
   1   5   5 1531.59   37.67
   1   5   6   26.14    6.61
   1   5   6   14.95    3.55
   1   5   6   15.89    6.71
   1   5   7 1484.51   51.35
   1   5   7 1576.26   65.94
   1   5   8  113.27   14.92
   1   5   8  108.89   17.88
   1   5   9  908.52   44.39
   1   5   9 1078.37   59.12
   1   5  10  168.54   20.03
   1   5  10  158.51   23.88
   1   5  11  448.15   34.49
   1   5  11  407.28   39.81
   1   5  12  244.55   27.03
   1   6 -13  342.34   36.23
   1   6 -12   67.67   15.57
   1   6 -11  574.33   42.88
   1   6 -11  610.30   34.05
   1   6 -10   15.37    5.42
   1   6 -10   18.35    7.81
   1   6  -9 1004.87   51.10
   1   6  -9 1018.04   41.79
   1   6  -9 1046.69   37.86
   1   6  -8   79.37   11.82
   1   6  -8   81.93   13.72
   1   6  -8   70.75    9.68
   1   6  -7 1937.50   63.64
   1   6  -7 1861.83   49.62
   1   6  -7 1968.68   56.27
   1   6  -6   23.36    6.50
   1   6  -6   22.03    5.83
   1   6  -6   24.26    5.81
   1   6  -5 1128.92   43.15
   1   6  -5 1146.28   40.28
   1   6  -5 1128.28   38.59
   1   6  -4  588.30   31.21
   1   6  -4  608.11   28.77
   1   6  -4  519.23   26.68
   1   6  -4  596.40   32.00
   1   6  -4  600.29   30.08
   1   6  -3 1261.60   44.59
   1   6  -3 1327.01   41.64
   1   6  -3 1241.31   41.68
   1   6  -3 1289.43   43.22
   1   6  -3 1191.14   39.32
   1   6  -3 1231.85   44.13
   1   6  -2 1850.67   53.56
   1   6  -2 1812.77   48.28
   1   6  -2 1760.64   51.21
   1   6  -2 1895.28   50.91
   1   6  -2 1749.49   44.71
   1   6  -2 1905.00   51.99
   1   6  -1  859.72   33.32
   1   6  -1  828.37   36.58
   1   6  -1  940.38   40.13
   1   6  -1  954.91   34.94
   1   6  -1  855.54   29.42
   1   6   0 1694.35   54.07
   1   6   0 1669.18   52.31
   1   6   0 1675.96   37.87
   1   6   0 1841.32   46.71
   1   6   0 1749.56   47.91
   1   6   1  200.67   18.44
   1   6   1  186.15   18.75
   1   6   1  196.83   12.08
   1   6   1  160.04   15.88
   1   6   1  193.21   16.16
   1   6   1  197.34   13.70
   1   6   2 1940.46   39.14
   1   6   2 1881.34   54.90
   1   6   2 1720.54   59.75
   1   6   2 1844.42   34.04
   1   6   2 1748.54   51.12
   1   6   2 2066.52   54.30
   1   6   3   89.42    7.29
   1   6   3   93.54   11.94
   1   6   3   94.22   14.40
   1   6   3   90.46   11.43
   1   6   4 1673.61   47.54
   1   6   4 1793.28   65.42
   1   6   4 1582.73   47.38
   1   6   4 1733.14   51.78
   1   6   5    9.39    4.65
   1   6   5    1.59    1.98
   1   6   5    3.87    4.56
   1   6   5    0.89    2.47
   1   6   6  840.41   38.40
   1   6   6  911.44   30.61
   1   6   6  841.41   48.74
   1   6   6  850.80   34.27
   1   6   7  111.90   14.51
   1   6   7  129.86   10.05
   1   6   7  135.51   20.41
   1   6   8  496.41   32.00
   1   6   8  482.18   40.02
   1   6   9   20.73    7.10
   1   6   9    2.87    3.70
   1   6  10  189.23   21.74
   1   6  10  141.64   23.94
   1   6  11    4.94    3.97
   1   6  11   10.15    5.85
   1   6  12  162.65   22.29
   1   7 -12  421.34   39.26
   1   7 -11   10.17    5.81
   1   7 -11    3.01    3.89
   1   7 -10  743.02   47.47
   1   7 -10  756.33   39.25
   1   7  -9   16.41    7.43
   1   7  -9   13.10    4.75
   1   7  -8  793.17   44.17
   1   7  -8  739.56   33.64
   1   7  -7  221.71   22.08
   1   7  -7  240.17   20.58
   1   7  -7  239.65   19.05
   1   7  -6  908.20   42.47
   1   7  -6  857.79   37.41
   1   7  -6  824.81   35.72
   1   7  -5  374.63   24.23
   1   7  -5  344.41   23.44
   1   7  -5  378.75   26.06
   1   7  -4  535.77   28.42
   1   7  -4  548.84   31.76
   1   7  -4  507.72   28.77
   1   7  -4  526.83   29.06
   1   7  -3  303.40   23.30
   1   7  -3  291.52   20.87
   1   7  -3  297.36   22.56
   1   7  -3  282.42   20.10
   1   7  -2  373.14   23.45
   1   7  -2  368.08   25.60
   1   7  -2  375.10   26.03
   1   7  -2  383.13   22.00
   1   7  -2  390.67   25.20
   1   7  -1  251.58   21.20
   1   7  -1  258.28   22.35
   1   7  -1  273.52   17.38
   1   7  -1  278.16   20.35
   1   7  -1  262.19   19.56
   1   7   0  104.62   14.73
   1   7   0  104.09   14.86
   1   7   0   92.94   13.52
   1   7   0   92.14    9.35
   1   7   0   91.14   11.94
   1   7   1  102.55   14.34
   1   7   1  114.23   15.90
   1   7   1  118.81    9.77
   1   7   1  125.33   15.30
   1   7   2   60.39    7.74
   1   7   2   54.53   10.21
   1   7   2   64.11    6.43
   1   7   2   60.58   11.97
   1   7   2   53.97   10.05
   1   7   3    4.58    2.22
   1   7   3    1.37    2.38
   1   7   3    5.71    6.37
   1   7   3    3.21    3.46
   1   7   4    6.57    3.63
   1   7   4    7.62    4.40
   1   7   4    8.43    5.02
   1   7   4    4.47    4.06
   1   7   5   31.02    7.70
   1   7   5   20.56    5.24
   1   7   5   29.65    9.70
   1   7   5   27.53    6.91
   1   7   6   75.83   12.08
   1   7   6   83.83   10.64
   1   7   6   85.72   17.19
   1   7   6   71.97   11.25
   1   7   7   66.54   11.91
   1   7   7   62.38   14.30
   1   7   8   40.38    9.49
   1   7   8   45.88   13.31
   1   7   9  151.07   19.30
   1   7   9  145.21   24.47
   1   7  10   94.59   16.00
   1   7  10   53.90   15.70
   1   7  11   93.23   16.81
   1   8 -11   55.46   13.91
   1   8 -10    4.72    5.18
   1   8 -10   19.41    7.49
   1   8  -9   47.90   12.16
   1   8  -8   -0.73    4.72
   1   8  -8    3.48    2.94
   1   8  -7    0.77    2.35
   1   8  -7   -1.10    2.68
   1   8  -6   96.06   14.22
   1   8  -6   90.04   12.88
   1   8  -5  175.26   18.21
   1   8  -5  159.56   17.53
   1   8  -4  162.49   17.87
   1   8  -4  165.67   17.21
   1   8  -3  131.49   16.28
   1   8  -3  116.68   13.63
   1   8  -2  268.41   23.28
   1   8  -2  258.51   23.55
   1   8  -2  256.86   18.95
   1   8  -1  160.03   17.94
   1   8  -1  150.82   18.63
   1   8  -1  130.08   12.44
   1   8  -1  138.01   15.20
   1   8   0 1042.57   49.80
   1   8   0 1127.01   33.60
   1   8   0 1107.40   40.71
   1   8   1  130.80   18.24
   1   8   1  147.07   10.93
   1   8   2 1069.55   53.79
   1   8   2 1071.89   25.60
   1   8   3  110.45   10.26
   1   8   3  102.38   13.82
   1   8   3  115.21   18.54
   1   8   4  881.40   40.92
   1   8   4  854.83   40.43
   1   8   4  892.37   52.46
   1   8   5    4.21    2.54
   1   8   5   -3.29    5.11
   1   8   6  980.31   45.32
   1   8   6  966.60   59.16
   1   8   7    6.39    3.95
   1   8   7   -4.76    5.17
   1   8   8  676.82   40.18
   1   8   8  640.46   52.19
   1   8   9  222.44   24.23
   1   8   9  207.34   30.68
   1   8  10  351.81   31.28
   1   9 -10  434.30   38.37
   1   9  -9   19.94    8.61
   1   9  -8  843.97   48.07
   1   9  -7   50.43   11.40
   1   9  -7   39.94    9.49
   1   9  -6  773.95   40.40
   1   9  -6  766.65   42.11
   1   9  -5  321.08   26.58
   1   9  -5  385.81   28.41
   1   9  -4  728.27   40.93
   1   9  -4  740.72   37.42
   1   9  -3  515.10   35.19
   1   9  -3  532.43   30.24
   1   9  -2  642.06   40.23
   1   9  -2  650.13   31.20
   1   9  -1  620.88   40.82
   1   9  -1  667.90   29.08
   1   9   0  304.95   29.73
   1   9   0  302.25   17.81
   1   9   1  797.30   34.65
   1   9   1  715.23   45.64
   1   9   1  750.35   24.20
   1   9   2   18.96    8.48
   1   9   3  608.65   35.16
   1   9   3  616.89   45.22
   1   9   4   38.51    8.82
   1   9   4   39.27   12.33
   1   9   5  775.59   40.90
   1   9   5  705.21   51.70
   1   9   6   56.83   11.59
   1   9   6   48.97   14.67
   1   9   7  325.00   27.60
   1   9   7  302.57   36.16
   1   9   8   84.71   14.52
   1   9   9  133.34   19.17
   1  10 -10    3.35    3.67
   1  10  -9  398.07   36.04
   1  10  -8   29.41    9.05
   1  10  -7  339.72   30.22
   1  10  -6  165.41   19.81
   1  10  -6  159.87   19.95
   1  10  -5  194.18   22.23
   1  10  -5  235.12   23.05
   1  10  -4  294.76   27.93
   1  10  -4  336.00   26.00
   1  10  -3   68.70   11.08
   1  10  -3   53.39   11.84
   1  10  -2  280.82   28.56
   1  10  -2  264.09   20.21
   1  10  -1    1.07    4.56
   1  10   0  406.22   35.82
   1  10   1   40.77   12.06
   1  10   2  348.62   34.92
   1  10   3   45.51   10.26
   1  10   3   42.64   12.58
   1  10   4   39.68    9.57
   1  10   4   37.90   13.41
   1  10   5   24.12    8.00
   1  10   5   36.27   13.01
   1  10   6   41.64   10.02
   1  11  -9   24.62    9.01
   1  11  -8   33.73   11.08
   1  11  -7   61.15   13.50
   1  11  -6   14.80    6.19
   1  11  -5   13.09    6.39
   1  11  -4   19.48    7.99
   1  11  -3   -2.90    3.58
   1  11  -2   11.83    6.06
   1  11  -1   15.25    8.09
   1  11   0   23.71   10.04
   1  11   1  167.58   25.29
   1  11   2   -2.24    6.78
   1  11   3  250.79   32.53
   1  12  -4  398.29   36.55
   1  12  -3   56.10   14.58
   1  12  -2  533.34   44.23
   1  12  -1   97.89   19.47
   1  12   0  874.94   59.14
   1  12   1   41.20   14.33
   2 -13  -3    4.45    4.42
   2 -13  -2    1.68    4.70
   2 -13  -2    2.96    6.42
   2 -13  -1   25.28    8.78
   2 -13   0   19.86    7.99
   2 -12  -5    9.75    6.84
   2 -12  -4  119.28   19.53
   2 -12  -3   30.72    9.54
   2 -12  -3   24.47    7.57
   2 -12  -2  192.23   23.02
   2 -12  -2  204.77   22.39
   2 -12  -1   41.20   10.84
   2 -12  -1   22.23    7.44
   2 -12   0  375.82   30.57
   2 -12   0  378.17   31.23
   2 -12   1  233.44   23.28
   2 -12   1  202.77   23.64
   2 -12   2  209.98   24.06
   2 -12   3  242.42   26.33
   2 -12   4  114.26   18.37
   2 -11  -6   -1.15    3.59
   2 -11  -5  552.05   40.35
   2 -11  -4  118.84   15.45
   2 -11  -4  120.24   18.24
   2 -11  -3  717.94   42.93
   2 -11  -3  608.77   35.60
   2 -11  -2  281.74   25.90
   2 -11  -2  283.89   24.84
   2 -11  -1  544.86   34.76
   2 -11  -1  551.22   35.43
   2 -11   0  589.62   35.58
   2 -11   0  602.29   37.41
   2 -11   1  300.75   24.84
   2 -11   1  289.00   26.50
   2 -11   2  512.91   31.54
   2 -11   2  487.99   34.34
   2 -11   3   86.72   12.46
   2 -11   3   84.25   15.43
   2 -11   4  766.94   44.97
   2 -11   5   59.64   13.11
   2 -11   6  379.67   32.82
   2 -11   7    4.48    3.31
   2 -10  -8  443.96   37.81
   2 -10  -7   -0.03    2.44
   2 -10  -6 1030.32   53.28
   2 -10  -5  103.49   16.54
   2 -10  -5   98.74   12.58
   2 -10  -4  349.66   28.70
   2 -10  -4  415.11   26.84
   2 -10  -3   -2.36    3.71
   2 -10  -3   -0.45    1.96
   2 -10  -2  151.96   17.80
   2 -10  -2  155.95   17.15
   2 -10  -1   14.61    5.54
   2 -10  -1   30.03    7.58
   2 -10   0  178.23   18.13
   2 -10   0  190.89   19.62
   2 -10   1   45.10    8.93
   2 -10   1   48.81    9.96
   2 -10   2   63.60   10.09
   2 -10   2   85.47   13.54
   2 -10   3    3.44    1.77
   2 -10   3    2.42    2.16
   2 -10   4   15.51    6.56
   2 -10   4    0.72    2.25
   2 -10   5   70.09   12.93
   2 -10   6    7.92    4.93
   2 -10   7  167.00   20.89
   2 -10   8   20.29    7.24
   2 -10   9  264.78   27.58
   2 -10  11  144.38   23.44
   2  -9  -9  -10.54    6.07
   2  -9  -8   63.92   13.46
   2  -9  -7  109.63   17.04
   2  -9  -6   95.92   15.24
   2  -9  -6  110.73   12.13
   2  -9  -5  157.17   15.05
   2  -9  -5  177.71   20.04
   2  -9  -4   67.17   11.89
   2  -9  -4   76.02   10.75
   2  -9  -3   84.06   12.68
   2  -9  -3   85.14   11.56
   2  -9  -2  317.89   23.76
   2  -9  -2  315.49   22.84
   2  -9  -1  412.36   26.21
   2  -9  -1  480.17   28.63
   2  -9   0  423.01   25.78
   2  -9   0  403.76   26.94
   2  -9   1  520.04   27.59
   2  -9   1  509.86   30.36
   2  -9   2    0.50    0.84
   2  -9   2 1180.01   47.10
   2  -9   3  260.91   22.58
   2  -9   4 1028.84   45.67
   2  -9   5   79.85   13.22
   2  -9   6  999.83   47.04
   2  -9   7   17.45    6.67
   2  -9   8  710.33   42.46
   2  -9   8  692.21   40.97
   2  -9   9   11.72    5.71
   2  -9   9   13.40    5.92
   2  -9  10  669.17   45.87
   2  -9  10  675.33   42.50
   2  -9  11  114.60   20.23
   2  -9  12  228.92   29.86
   2  -8 -10  702.79   46.51
   2  -8  -9   -0.25    3.23
   2  -8  -8  700.77   42.48
   2  -8  -7   20.49    7.17
   2  -8  -7   28.12    5.77
   2  -8  -6  698.68   28.58
   2  -8  -6  740.62   39.75
   2  -8  -5   18.71    6.45
   2  -8  -5    9.65    3.34
   2  -8  -4 1823.90   48.94
   2  -8  -4 2017.95   60.09
   2  -8  -3  705.31   30.91
   2  -8  -3  740.50   34.75
   2  -8  -2 1234.30   43.03
   2  -8  -2 1155.03   40.64
   2  -8  -1  677.18   30.78
   2  -8  -1  610.31   30.16
   2  -8   0    2.65    2.54
   2  -8   0  533.41   28.40
   2  -8   1 1068.84   41.17
   2  -8   2  285.66   21.68
   2  -8   3 1180.44   35.18
   2  -8   3 1208.40   45.47
   2  -8   4   80.99   12.05
   2  -8   4   73.69    8.46
   2  -8   5 1188.46   46.91
   2  -8   6    1.74    2.80
   2  -8   6   -0.91    2.59
   2  -8   7  746.07   39.58
   2  -8   7  712.29   38.34
   2  -8   8  160.51   19.54
   2  -8   8  168.82   19.10
   2  -8   9  512.15   36.63
   2  -8   9  511.22   33.89
   2  -8  10  122.80   19.29
   2  -8  10  107.11   15.96
   2  -8  11  194.34   25.18
   2  -8  12  119.72   21.17
   2  -7 -11  392.52   34.47
   2  -7 -10   36.77   10.17
   2  -7  -9  663.98   41.05
   2  -7  -8   22.14    7.51
   2  -7  -8   33.43    4.99
   2  -7  -7 1065.86   46.97
   2  -7  -7 1136.56   31.84
   2  -7  -6  144.13   11.91
   2  -7  -6  152.04   16.91
   2  -7  -5 1029.02   32.78
   2  -7  -5  999.52   41.35
   2  -7  -4  284.34   17.72
   2  -7  -4  241.57   19.36
   2  -7  -3   87.22   10.22
   2  -7  -3  104.90   12.12
   2  -7  -2  655.91   28.17
   2  -7  -2  653.03   28.57
   2  -7  -1  609.06   27.77
   2  -7   0  459.99   24.44
   2  -7   1  246.04   15.50
   2  -7   1  242.08   18.24
   2  -7   2  411.05   19.28
   2  -7   2  437.92   24.99
   2  -7   3    1.94    1.33
   2  -7   3    2.67    1.96
   2  -7   4  157.21   14.46
   2  -7   4  181.48   16.84
   2  -7   5    1.50    2.93
   2  -7   5    0.84    1.88
   2  -7   6   17.22    5.62
   2  -7   6   23.20    6.32
   2  -7   7   27.42    7.80
   2  -7   7   20.26    6.00
   2  -7   8   39.94    9.25
   2  -7   8   20.21    6.51
   2  -7   9  111.71   16.44
   2  -7   9   99.64   14.11
   2  -7  10   29.89    9.17
   2  -7  10   39.36    9.03
   2  -7  11  141.48   20.81
   2  -7  12  110.18   19.32
   2  -7  13  225.96   29.39
   2  -6 -12  115.70   18.77
   2  -6 -11   11.00    5.54
   2  -6 -10  364.67   30.05
   2  -6  -9    2.58    4.21
   2  -6  -9    1.96    2.12
   2  -6  -8   39.56    5.22
   2  -6  -8   48.56    5.77
   2  -6  -8   44.99    5.27
   2  -6  -7   21.98    6.33
   2  -6  -7   12.70    2.38
   2  -6  -7   18.71    3.66
   2  -6  -6    6.48    3.61
   2  -6  -5   70.32    9.58
   2  -6  -5   81.19   11.01
   2  -6  -4   63.98    9.51
   2  -6  -4   67.75    9.45
   2  -6  -3   28.04    6.49
   2  -6  -3   42.12    7.10
   2  -6  -3   35.54    8.55
   2  -6  -2  111.78   13.03
   2  -6  -2  141.53   16.90
   2  -6  -1  712.33   33.51
   2  -6  -1  689.00   25.16
   2  -6   0  151.20   11.35
   2  -6   0  164.54   16.36
   2  -6   1  895.10   25.66
   2  -6   1  936.04   39.68
   2  -6   2  117.41    8.80
   2  -6   2   33.89    6.50
   2  -6   3 1288.58   35.66
   2  -6   3 1374.04   28.45
   2  -6   4    9.83    3.57
   2  -6   4    5.09    3.28
   2  -6   5 1394.10   42.91
   2  -6   5 1425.40   44.89
   2  -6   6  265.01   19.99
   2  -6   6  297.75   21.07
   2  -6   7 2778.32   68.82
   2  -6   7 2753.15   65.45
   2  -6   8   16.28    5.41
   2  -6   8   28.75    6.96
   2  -6   9 1441.41   56.77
   2  -6   9 1514.43   51.10
   2  -6  10  280.61   26.69
   2  -6  10  303.52   23.54
   2  -6  11  815.40   48.09
   2  -6  12  327.84   32.38
   2  -6  13  508.78   42.30
   2  -5 -12   13.18    6.56
   2  -5 -11  380.35   30.76
   2  -5 -11  436.80   26.62
   2  -5 -10   91.22   14.37
   2  -5 -10   86.12   11.03
   2  -5  -9  781.93   40.49
   2  -5  -9  770.76   16.81
   2  -5  -9  781.47   30.36
   2  -5  -8  120.61   14.13
   2  -5  -8  147.27   16.81
   2  -5  -8  120.47   10.79
   2  -5  -7 1597.36   38.62
   2  -5  -7 1571.83   51.50
   2  -5  -7 1555.54   34.09
   2  -5  -6  276.28   16.74
   2  -5  -6  234.12   18.82
   2  -5  -6  261.77   11.95
   2  -5  -5 1679.77   42.34
   2  -5  -5 1546.52   56.84
   2  -5  -5 1599.57   45.93
   2  -5  -5 1533.56   23.30
   2  -5  -4  854.81   30.78
   2  -5  -4  886.46   41.36
   2  -5  -4  847.37   31.37
   2  -5  -3 3125.98   60.92
   2  -5  -3 3129.76   75.56
   2  -5  -2 2477.36   55.10
   2  -5  -2 2522.94   65.01
   2  -5  -2 2435.15   45.87
   2  -5  -1 1354.11   41.50
   2  -5  -1 1317.20   31.12
   2  -5   0 1837.63   49.08
   2  -5   0 1779.36   33.17
   2  -5   1  351.63   22.04
   2  -5   1  336.80   13.23
   2  -5   2 4108.21   77.40
   2  -5   2 3967.64   41.87
   2  -5   3  475.25   27.03
   2  -5   3  495.06   20.08
   2  -5   4 3677.32   60.08
   2  -5   4 3746.08   65.18
   2  -5   5   82.38    9.73
   2  -5   5   85.66   10.29
   2  -5   6 1826.77   49.89
   2  -5   6 1839.19   48.33
   2  -5   7   33.60    7.65
   2  -5   7   23.19    5.54
   2  -5   8  893.74   40.51
   2  -5   8  858.46   35.03
   2  -5   9   94.49   14.05
   2  -5   9   92.14   11.80
   2  -5  10  595.11   37.44
   2  -5  10  515.13   28.47
   2  -5  11  176.54   21.83
   2  -5  12  109.99   18.55
   2  -5  13   65.69   14.97
   2  -4 -13  139.75   20.04
   2  -4 -12 1076.62   47.19
   2  -4 -12 1035.93   51.91
   2  -4 -11   31.26    8.72
   2  -4 -11   36.33    8.28
   2  -4 -10 1485.20   48.82
   2  -4 -10 1496.55   56.31
   2  -4  -9   89.94   11.11
   2  -4  -9   73.08    6.13
   2  -4  -9   73.49   11.93
   2  -4  -8 1743.57   45.36
   2  -4  -8 1797.54   52.76
   2  -4  -8 1847.55   34.97
   2  -4  -8 1793.75   55.25
   2  -4  -7  218.13   12.84
   2  -4  -7  211.99   21.37
   2  -4  -7  207.04   17.67
   2  -4  -7  219.28   14.40
   2  -4  -6 1173.81   30.94
   2  -4  -6 1175.87   47.91
   2  -4  -6 1151.88   39.55
   2  -4  -6 1102.22   28.93
   2  -4  -5  558.30   22.31
   2  -4  -5  555.57   21.87
   2  -4  -5  576.80   31.78
   2  -4  -5  558.98   25.77
   2  -4  -5  549.42   17.64
   2  -4  -4 1835.37   35.62
   2  -4  -4 1872.03   41.06
   2  -4  -4 1822.69   54.03
   2  -4  -4 1780.21   27.09
   2  -4  -3  358.44   18.35
   2  -4  -3  352.87   22.74
   2  -4  -3  364.62   17.71
   2  -4  -3  312.97    9.34
   2  -4  -2  349.97   18.46
   2  -4  -2  338.71   21.84
   2  -4  -2  335.82   15.53
   2  -4  -1 1958.48   44.53
   2  -4  -1 2014.41   33.95
   2  -4   0  231.20   15.59
   2  -4   0  244.03   10.42
   2  -4   1  939.01   18.52
   2  -4   1  939.57   17.68
   2  -4   1  903.67   31.66
   2  -4   2   14.56    2.70
   2  -4   2   18.56    4.81
   2  -4   2   14.80    1.95
   2  -4   3  857.49   24.25
   2  -4   3  906.13   33.66
   2  -4   4   15.40    4.77
   2  -4   4    4.56    2.09
   2  -4   5  125.85   11.61
   2  -4   6  141.40   13.41
   2  -4   7   55.37    9.10
   2  -4   7   62.75    8.51
   2  -4   8    5.37    2.89
   2  -4   8   12.28    4.03
   2  -4   9    3.83    3.16
   2  -4   9    7.83    3.46
   2  -4  10    2.25    2.60
   2  -4  10    5.92    2.83
   2  -4  11   62.95   12.88
   2  -4  12    5.45    5.20
   2  -4  13    6.26    5.15
   2  -3 -14   53.48   13.22
   2  -3 -14   58.67   12.85
   2  -3 -13  226.65   23.87
   2  -3 -13  245.98   25.92
   2  -3 -12   33.58    9.35
   2  -3 -12   21.92    7.20
   2  -3 -11  104.83   15.34
   2  -3 -11  101.75   14.49
   2  -3 -10   70.38   11.47
   2  -3 -10   69.56    5.05
   2  -3  -9  264.27   20.05
   2  -3  -9  239.90   10.90
   2  -3  -8   93.62   11.15
   2  -3  -8   84.27   11.11
   2  -3  -8   87.32    7.23
   2  -3  -8   76.01   12.34
   2  -3  -7  151.53   12.84
   2  -3  -7  158.55   10.13
   2  -3  -7  138.03   16.32
   2  -3  -6   76.72    8.35
   2  -3  -6   80.93    9.19
   2  -3  -6   66.66    6.93
   2  -3  -6   69.15   10.86
   2  -3  -5    3.99    1.84
   2  -3  -5    7.32    2.59
   2  -3  -5    3.01    1.36
   2  -3  -5    6.61    3.66
   2  -3  -4  400.07   15.75
   2  -3  -4  386.29   17.02
   2  -3  -4  390.32   22.57
   2  -3  -4  397.12   14.93
   2  -3  -3   24.89    3.35
   2  -3  -3   26.75    3.45
   2  -3  -3   20.60    3.92
   2  -3  -3   30.49    6.16
   2  -3  -2  241.47    7.73
   2  -3  -2  252.06   13.98
   2  -3  -2  230.27   15.73
   2  -3  -2  239.05    9.34
   2  -3  -1   14.71    2.48
   2  -3  -1   20.98    4.17
   2  -3   0  121.43   10.17
   2  -3   0  129.58    6.26
   2  -3   1   40.30    3.29
   2  -3   1   47.29    6.59
   2  -3   1   41.85    2.59
   2  -3   2  359.02   12.73
   2  -3   2  384.18   18.94
   2  -3   3   22.48    3.79
   2  -3   3   20.61    4.66
   2  -3   4  808.32   25.45
   2  -3   4  800.55   29.19
   2  -3   5    1.45    1.65
   2  -3   5    5.49    2.59
   2  -3   6  944.55   33.83
   2  -3   7  457.20   25.62
   2  -3   8  652.92   32.87
   2  -3   8  664.78   31.21
   2  -3   9  460.16   29.60
   2  -3   9  448.88   26.80
   2  -3  10  532.58   34.29
   2  -3  10  458.45   28.37
   2  -3  11  786.42   43.89
   2  -3  11  729.31   37.30
   2  -3  12  395.15   33.01
   2  -3  13  919.77   53.91
   2  -2 -15   23.33    9.90
   2  -2 -14    3.36    4.07
   2  -2 -14   -3.99    5.40
   2  -2 -13    1.38    4.45
   2  -2 -13    4.00    2.40
   2  -2 -12    6.17    3.86
   2  -2 -11    5.13    4.13
   2  -2 -10  103.65   14.38
   2  -2 -10   88.70   14.04
   2  -2 -10   87.19    6.92
   2  -2  -9    3.88    3.35
   2  -2  -9    1.20    2.48
   2  -2  -8  120.39   13.25
   2  -2  -8  121.35   13.00
   2  -2  -8  120.43   14.30
   2  -2  -7  255.86   17.87
   2  -2  -7  229.62   18.73
   2  -2  -6  688.27   26.64
   2  -2  -6  704.89   30.32
   2  -2  -5 1040.83   28.54
   2  -2  -5 1002.69   34.10
   2  -2  -5 1090.56   30.49
   2  -2  -4  107.65    8.12
   2  -2  -4   97.45    9.94
   2  -2  -4   94.68    8.14
   2  -2  -3 2924.30   35.68
   2  -2  -3 2917.99   50.41
   2  -2  -3 2893.20   39.73
   2  -2  -2 1156.19   17.82
   2  -2  -2 1193.78   30.21
   2  -2  -2 1199.65   23.62
   2  -2  -1 5923.13   31.14
   2  -2  -1 5907.33   51.63
   2  -2   0  286.52    7.19
   2  -2   0  276.60   11.61
   2  -2   1 7072.42   46.23
   2  -2   1 6884.05   69.50
   2  -2   2   20.11    3.20
   2  -2   2   20.33    3.88
   2  -2   3 4514.02   53.56
   2  -2   3 4808.74   60.76
   2  -2   4  144.56   10.91
   2  -2   4  148.79   11.03
   2  -2   5 4789.52   69.32
   2  -2   5 4732.42   64.50
   2  -2   6  323.24   19.75
   2  -2   6  311.01   17.16
   2  -2   6  330.90   15.24
   2  -2   7 3106.50   65.77
   2  -2   7 3276.35   71.79
   2  -2   7 3059.64   56.55
   2  -2   7 3269.37   49.48
   2  -2   8  586.97   30.74
   2  -2   8  574.60   31.90
   2  -2   8  553.71   25.78
   2  -2   8  564.38   21.32
   2  -2   9 1490.46   52.47
   2  -2   9 1523.39   54.86
   2  -2   9 1468.88   44.34
   2  -2   9 1505.82   35.06
   2  -2  10  546.66   34.10
   2  -2  10  489.68   26.66
   2  -2  11  835.97   44.73
   2  -2  11  753.72   34.59
   2  -2  12  317.21   29.51
   2  -2  12  311.77   23.36
   2  -2  13  103.74   17.93
   2  -1 -15  354.74   34.75
   2  -1 -14   19.72    8.53
   2  -1 -13  480.96   37.09
   2  -1 -12   27.44    9.12
   2  -1 -11 1279.30   54.51
   2  -1 -11 1291.28   51.70
   2  -1 -10  358.55   27.56
   2  -1 -10  352.81   25.68
   2  -1 -10  365.35   16.47
   2  -1  -9 1767.45   53.88
   2  -1  -9 1727.14   35.09
   2  -1  -8  930.34   38.62
   2  -1  -8  903.64   35.89
   2  -1  -8  912.44   36.11
   2  -1  -7 2873.34   63.06
   2  -1  -7 2718.70   57.43
   2  -1  -6 1771.95   45.64
   2  -1  -6 1692.89   42.04
   2  -1  -5 3110.89   55.03
   2  -1  -5 3085.12   50.42
   2  -1  -5 3119.99   51.75
   2  -1  -4 2711.52   42.55
   2  -1  -4 2576.31   43.04
   2  -1  -4 2641.25   46.14
   2  -1  -3 2354.31   35.22
   2  -1  -3 2290.12   36.19
   2  -1  -3 2299.95   39.20
   2  -1  -2 4658.10   44.51
   2  -1  -2 4611.01   50.97
   2  -1  -1  593.23   17.62
   2  -1   0 5573.96   54.85
   2  -1   0 5365.17   44.27
   2  -1   1  778.74   18.62
   2  -1   1  824.49   14.79
   2  -1   1  796.23   22.04
   2  -1   1  826.05   22.20
   2  -1   2 2866.75   40.17
   2  -1   2 2938.60   28.44
   2  -1   3   11.28    2.11
   2  -1   3    5.52    2.09
   2  -1   3    5.49    1.88
   2  -1   4 1857.94   39.84
   2  -1   4 1800.33   33.32
   2  -1   4 1840.90   44.59
   2  -1   5    3.08    1.61
   2  -1   5   -0.14    2.08
   2  -1   6  535.65   25.69
   2  -1   6  562.98   19.49
   2  -1   6  539.03   19.08
   2  -1   7  151.36   14.68
   2  -1   7  128.34   14.61
   2  -1   7  124.97   10.02
   2  -1   7  126.12    8.39
   2  -1   8   34.35    7.64
   2  -1   8   36.79    8.12
   2  -1   8   26.45    4.87
   2  -1   8   27.04    3.91
   2  -1   9   23.56    6.70
   2  -1   9   24.64    5.22
   2  -1  10    6.90    4.26
   2  -1  10    6.15    3.25
   2  -1  11   38.66    9.69
   2  -1  11   25.36    5.97
   2  -1  12    4.36    3.93
   2  -1  13   -0.84    2.00
   2   0 -15   50.22   13.77
   2   0 -14  671.86   47.27
   2   0 -13    6.36    5.30
   2   0 -12  963.75   51.35
   2   0 -11    6.52    4.37
   2   0 -11   -1.67    3.22
   2   0 -11    3.42    2.38
   2   0 -10 1266.24   44.68
   2   0 -10 1314.34   45.78
   2   0 -10 1292.11   34.70
   2   0  -9   12.05    4.35
   2   0  -9    6.75    4.18
   2   0  -9    7.51    3.53
   2   0  -9   13.00    3.52
   2   0  -8  628.34   32.88
   2   0  -8  614.73   28.39
   2   0  -8  645.32   30.91
   2   0  -8  605.84   26.77
   2   0  -7  324.06   22.37
   2   0  -7  271.92   18.50
   2   0  -7  288.01   19.12
   2   0  -7  261.66   16.27
   2   0  -6  489.98   25.43
   2   0  -6  505.91   23.32
   2   0  -6  499.01   19.52
   2   0  -5  192.36   14.59
   2   0  -5  165.95   12.65
   2   0  -5  180.19   12.93
   2   0  -5  187.04   10.48
   2   0  -4   77.48    7.86
   2   0  -4   81.69    8.30
   2   0  -4   87.61    6.13
   2   0  -4   73.75    8.33
   2   0  -3   39.72    5.27
   2   0  -3   41.17    5.66
   2   0  -2  220.73   11.81
   2   0  -2  214.62   12.15
   2   0  -1  138.54    6.85
   2   0  -1  151.12    9.64
   2   0  -1  144.72    9.06
   2   0   0    6.80    2.19
   2   0   0    5.74    1.84
   2   0   0    8.46    2.21
   2   0   1  488.97   14.58
   2   0   1  494.37   18.13
   2   0   1  540.57   18.56
   2   0   2  472.52   18.18
   2   0   2  468.07   14.76
   2   0   3  438.73   18.92
   2   0   3  482.88   16.05
   2   0   4    3.96    1.59
   2   0   4    4.74    2.54
   2   0   4    9.21    3.94
   2   0   5  300.59   18.27
   2   0   5  300.81   11.63
   2   0   6  156.59   14.16
   2   0   6  160.49    8.39
   2   0   6  152.32    8.07
   2   0   7  783.69   33.58
   2   0   7  769.15   36.35
   2   0   7  760.69   20.49
   2   0   7  785.24   16.18
   2   0   8   89.57   12.43
   2   0   8   73.69   12.02
   2   0   8   58.89    6.38
   2   0   9  293.64   23.53
   2   0   9  260.38   14.55
   2   0  10  138.87   17.33
   2   0  10  144.45   11.53
   2   0  11  170.25   20.34
   2   0  11  152.45   12.44
   2   0  12  507.05   37.23
   2   0  13   23.19    8.80
   2   1 -15   46.42   14.35
   2   1 -14   19.30    8.77
   2   1 -13   -0.32    3.49
   2   1 -12   11.58    6.58
   2   1 -11   31.36    9.29
   2   1 -11   33.01    7.34
   2   1 -11   37.04    6.77
   2   1 -10   10.29    5.58
   2   1 -10   10.05    3.54
   2   1 -10   12.44    3.63
   2   1  -9  140.61   17.38
   2   1  -9  124.56   14.32
   2   1  -9  141.90    9.96
   2   1  -9  145.04   12.86
   2   1  -9  126.91   11.57
   2   1  -8   40.75    7.85
   2   1  -8   41.77    4.88
   2   1  -8   35.59    7.58
   2   1  -8   38.74    8.29
   2   1  -8   43.52    6.50
   2   1  -8   39.07    6.10
   2   1  -7  372.41   24.48
   2   1  -7  351.77   21.74
   2   1  -7  402.47   23.33
   2   1  -7  390.74   13.17
   2   1  -7  371.64   16.56
   2   1  -6  231.95   18.11
   2   1  -6  211.63   16.10
   2   1  -6  222.57    8.50
   2   1  -6  241.11   11.32
   2   1  -5  268.13   18.14
   2   1  -5  250.92   16.55
   2   1  -5  210.12   15.00
   2   1  -5  225.38    7.13
   2   1  -5  245.41    9.06
   2   1  -4  798.64   27.62
   2   1  -4  811.85   27.79
   2   1  -4  844.06   29.82
   2   1  -3  372.46   17.86
   2   1  -3  346.90   17.47
   2   1  -3  334.72   17.31
   2   1  -2 3462.87   35.37
   2   1  -2 3515.03   52.02
   2   1  -1 1971.43   31.42
   2   1  -1 1982.11   37.15
   2   1  -1 2029.52   37.73
   2   1   0 1174.10   27.51
   2   1   0 1223.25   27.60
   2   1   0 1239.75   28.75
   2   1   1  875.02   23.13
   2   1   1  873.06   26.47
   2   1   1  846.39   24.11
   2   1   2 6014.69   66.89
   2   1   2 5597.89   60.38
   2   1   3  235.09   14.93
   2   1   3  237.21   13.10
   2   1   4 3352.12   59.87
   2   1   4 3350.69   65.69
   2   1   4 3352.28   52.36
   2   1   5  205.61   15.67
   2   1   6 2016.14   52.02
   2   1   6 2013.77   57.65
   2   1   6 1714.75   21.43
   2   1   6 1648.74   19.49
   2   1   7  930.42   37.51
   2   1   7  889.01   40.50
   2   1   7  828.45   17.30
   2   1   8 1418.60   53.97
   2   1   8 1371.78   48.78
   2   1   8 1320.53   25.29
   2   1   9 1884.51   60.89
   2   1   9 1724.73   32.34
   2   1  10  170.89   19.48
   2   1  10  169.02   10.89
   2   1  11  967.01   49.03
   2   1  12  308.96   29.31
   2   1  13  822.36   50.27
   2   2 -14  233.11   29.32
   2   2 -13    1.68    3.51
   2   2 -12  647.85   44.04
   2   2 -11  115.41   10.35
   2   2 -11  125.01   13.18
   2   2 -11  143.22   19.92
   2   2 -11  114.90   12.55
   2   2 -10  728.46   42.66
   2   2 -10  777.98   25.45
   2   2 -10  760.28   29.59
   2   2 -10  765.01   31.70
   2   2  -9  511.75   33.56
   2   2  -9  483.54   18.70
   2   2  -9  483.83   21.45
   2   2  -9  479.18   24.25
   2   2  -8  892.22   38.46
   2   2  -8 1007.96   44.34
   2   2  -8  937.17   24.39
   2   2  -8  909.89   26.22
   2   2  -8  948.09   33.07
   2   2  -7 1263.23   43.71
   2   2  -7 1284.86   47.34
   2   2  -7 1321.66   44.52
   2   2  -7 1288.33   26.36
   2   2  -7 1289.99   26.82
   2   2  -7 1278.34   37.43
   2   2  -6 1687.53   50.32
   2   2  -6 1578.89   46.48
   2   2  -6 1592.24   27.23
   2   2  -6 1616.13   24.86
   2   2  -6 1587.76   40.08
   2   2  -5 3159.74   64.58
   2   2  -5 3076.24   61.31
   2   2  -4  804.07   29.82
   2   2  -4  847.91   31.58
   2   2  -3 4991.57   70.14
   2   2  -3 5014.15   71.16
   2   2  -2  395.99   18.07
   2   2  -2  400.81   12.00
   2   2  -2  426.82   19.56
   2   2  -2  391.79   18.69
   2   2  -1 6217.27   66.24
   2   2  -1 6290.25   72.13
   2   2  -1 6144.80   57.78
   2   2  -1 6166.49   70.77
   2   2   0  192.45   13.02
   2   2   0  200.14   12.64
   2   2   0  217.97   12.70
   2   2   0  209.64   12.53
   2   2   1 5139.24   63.62
   2   2   1 5069.14   70.78
   2   2   1 5050.05   68.34
   2   2   1 5079.72   61.71
   2   2   2    9.13    2.91
   2   2   2    7.91    2.60
   2   2   2    7.15    2.87
   2   2   3 3638.72   63.06
   2   2   3 3756.40   58.10
   2   2   4  325.76   19.93
   2   2   4  302.37   17.30
   2   2   5 1297.23   41.34
   2   2   5 1263.24   45.56
   2   2   5 1341.87   38.82
   2   2   5 1243.18   17.38
   2   2   6  443.27   25.33
   2   2   6  380.18   26.88
   2   2   7  812.31   36.17
   2   2   7  795.01   40.39
   2   2   8  344.59   24.98
   2   2   9  536.56   33.36
   2   2   9  525.11   15.09
   2   2  10    8.09    4.77
   2   2  11  172.49   20.96
   2   2  12   61.37   13.80
   2   2  13   -7.33    5.22
   2   3 -14   11.53    6.91
   2   3 -13 1021.84   59.51
   2   3 -12   95.67   17.60
   2   3 -11 1032.12   54.30
   2   3 -11  990.52   31.50
   2   3 -10  292.20   27.75
   2   3 -10  303.04   16.87
   2   3 -10  285.62   16.71
   2   3  -9 1453.25   57.74
   2   3  -9 1376.66   34.53
   2   3  -9 1358.86   33.28
   2   3  -9 1374.95   44.17
   2   3  -8  546.77   33.74
   2   3  -8  557.64   31.71
   2   3  -8  610.16   22.12
   2   3  -8  572.77   19.44
   2   3  -8  652.80   29.64
   2   3  -7 1157.03   43.58
   2   3  -7 1138.53   43.73
   2   3  -7 1207.04   46.90
   2   3  -7 1236.08   44.90
   2   3  -7 1226.26   30.10
   2   3  -7 1121.92   24.11
   2   3  -7 1247.56   39.74
   2   3  -6 1064.44   41.74
   2   3  -6 1047.99   40.12
   2   3  -6  998.62   38.62
   2   3  -6  970.92   19.85
   2   3  -6 1002.74   34.65
   2   3  -6 1010.53   38.54
   2   3  -5  960.58   18.64
   2   3  -5  996.41   36.37
   2   3  -5 1053.44   34.19
   2   3  -5 1001.80   38.16
   2   3  -4  128.91    7.12
   2   3  -4  129.43   12.57
   2   3  -4  115.74   11.03
   2   3  -4  127.85   12.74
   2   3  -3  268.20   17.20
   2   3  -3  269.99   18.57
   2   3  -3  270.05   11.54
   2   3  -3  260.73   17.07
   2   3  -3  278.79   16.43
   2   3  -3  267.19   17.37
   2   3  -2  816.72   28.10
   2   3  -2  771.50   28.48
   2   3  -2  733.53   21.41
   2   3  -2  790.57   28.16
   2   3  -1  102.14    9.41
   2   3  -1  107.58   10.36
   2   3  -1  111.76    9.45
   2   3  -1  116.74   10.38
   2   3   0   45.53    5.83
   2   3   0   38.01    5.75
   2   3   0   48.08    6.77
   2   3   0   33.55    5.86
   2   3   1   -2.55    1.65
   2   3   1   -0.34    2.16
   2   3   1    1.07    1.64
   2   3   2    7.85    2.71
   2   3   2   11.50    3.65
   2   3   2    5.31    3.26
   2   3   2   10.44    2.68
   2   3   3   20.94    4.26
   2   3   3   18.98    4.53
   2   3   3   20.77    6.16
   2   3   3   18.82    3.25
   2   3   3   19.31    3.27
   2   3   4   47.18    7.58
   2   3   4   48.64    8.24
   2   3   4   -1.39    1.31
   2   3   4   -0.62    2.37
   2   3   4   41.30    4.54
   2   3   4   51.50    4.76
   2   3   5  261.96   19.60
   2   3   5  259.73   22.30
   2   3   5  296.02   24.06
   2   3   5  260.34   18.40
   2   3   5  250.92   10.50
   2   3   5  259.25    9.28
   2   3   6   63.36   10.28
   2   3   6   63.74    5.26
   2   3   6   63.34   12.89
   2   3   6   74.14   13.68
   2   3   6   62.43    5.09
   2   3   7  132.85   15.18
   2   3   7  138.76    7.40
   2   3   8  272.72   22.92
   2   3   9  121.56   16.09
   2   3  10  340.86   28.44
   2   3  11  486.78   35.90
   2   3  12   42.30   11.14
   2   4 -13   13.68    6.90
   2   4 -12   95.85   17.83
   2   4 -11   17.88    4.60
   2   4 -11   19.88    7.65
   2   4 -10   -1.14    1.70
   2   4 -10   -0.71    4.09
   2   4 -10   -2.39    2.12
   2   4  -9   46.62    7.11
   2   4  -9   51.80    6.49
   2   4  -9   48.51   11.30
   2   4  -8    4.36    3.88
   2   4  -8    4.12    3.49
   2   4  -8    1.64    1.88
   2   4  -8    4.55    1.88
   2   4  -7  257.12   22.33
   2   4  -7  224.84   11.69
   2   4  -7  259.58   20.93
   2   4  -7  277.00   20.25
   2   4  -6  277.81   22.03
   2   4  -6  310.82   23.27
   2   4  -6  278.84   21.65
   2   4  -6  280.84   12.82
   2   4  -6  270.67   20.70
   2   4  -6  310.58   20.66
   2   4  -5  369.43   24.11
   2   4  -5  334.32   14.28
   2   4  -5  341.03   22.16
   2   4  -5  364.92   21.74
   2   4  -5  365.90   24.03
   2   4  -4  679.04   32.10
   2   4  -4  553.33   19.32
   2   4  -4  641.26   29.41
   2   4  -4  626.18   27.61
   2   4  -4  601.15   29.04
   2   4  -3  639.56   30.73
   2   4  -3  612.07   27.67
   2   4  -3  572.54   21.38
   2   4  -3  612.99   26.42
   2   4  -3  652.84   28.52
   2   4  -2   39.81    6.95
   2   4  -2   56.08    7.43
   2   4  -2   63.92    8.85
   2   4  -2   43.53    7.04
   2   4  -1 1761.74   42.21
   2   4  -1 1711.74   44.99
   2   4  -1 1629.92   41.52
   2   4  -1 1661.93   41.52
   2   4  -1 1739.02   41.83
   2   4   0  231.77   14.43
   2   4   0  195.78   15.13
   2   4   0  219.76   16.45
   2   4   0  187.79   13.46
   2   4   0  233.14   14.78
   2   4   1 1578.10   34.01
   2   4   1 1604.10   47.13
   2   4   1 1620.25   38.27
   2   4   1 1644.27   37.35
   2   4   1 1621.86   43.58
   2   4   2   25.39    4.88
   2   4   2   20.67    5.21
   2   4   2   25.91    6.34
   2   4   2   21.87    4.75
   2   4   2   20.11    3.97
   2   4   3 1567.13   52.42
   2   4   3 1576.87   37.65
   2   4   3 1478.30   35.57
   2   4   3 1591.94   44.96
   2   4   3 1601.51   33.29
   2   4   4  131.04   14.13
   2   4   4  110.02   14.45
   2   4   4  101.36   14.05
   2   4   4   97.69    8.83
   2   4   4  135.06   13.72
   2   4   4  132.28    8.92
   2   4   5 1403.33   47.51
   2   4   5 1348.17   54.06
   2   4   5 1267.80   30.23
   2   4   6  422.51   27.05
   2   4   6  450.96   17.09
   2   4   6  451.07   33.01
   2   4   6  441.55   17.11
   2   4   7  907.92   41.37
   2   4   7  799.25   16.66
   2   4   7  937.83   49.88
   2   4   7  902.10   23.54
   2   4   8  612.65   35.57
   2   4   8  615.74   42.27
   2   4   8  586.28   17.98
   2   4   9  208.23   21.69
   2   4   9  240.02   27.53
   2   4  10  846.26   45.90
   2   4  11   41.09   11.25
   2   4  12  264.56   28.46
   2   5 -13  344.56   36.12
   2   5 -12    7.04    5.23
   2   5 -11  673.22   46.22
   2   5 -10  152.90   21.13
   2   5 -10  129.03   13.08
   2   5 -10  128.62   10.68
   2   5  -9  862.30   46.85
   2   5  -9  852.01   33.00
   2   5  -9  783.72   25.48
   2   5  -9  795.55   25.41
   2   5  -8  353.75   28.57
   2   5  -8  323.33   15.95
   2   5  -7  826.45   42.01
   2   5  -7  858.29   26.14
   2   5  -7  866.47   39.50
   2   5  -6  508.82   20.45
   2   5  -6  528.97   29.57
   2   5  -6  506.85   31.31
   2   5  -5  295.10   23.40
   2   5  -5  324.13   24.07
   2   5  -5  287.49   16.01
   2   5  -5  320.06   22.39
   2   5  -5  320.28   23.43
   2   5  -4 1721.26   53.76
   2   5  -4 1916.22   57.47
   2   5  -4 1853.12   52.14
   2   5  -4 1715.77   40.90
   2   5  -4 1910.77   52.21
   2   5  -4 1808.34   52.61
   2   5  -3  108.63   12.81
   2   5  -3  136.77   15.30
   2   5  -3  116.39   12.92
   2   5  -3  116.99   11.35
   2   5  -3  116.85   12.57
   2   5  -3  118.05   12.89
   2   5  -2 1514.64   50.25
   2   5  -2 1576.27   46.45
   2   5  -2 1471.43   42.47
   2   5  -2 1624.21   45.15
   2   5  -2 1533.24   43.74
   2   5  -1    8.19    3.15
   2   5  -1    7.64    3.85
   2   5  -1    7.26    3.66
   2   5  -1    9.32    3.87
   2   5   0 2721.70   60.31
   2   5   0 2643.99   52.06
   2   5   0 2590.54   62.59
   2   5   0 2695.77   53.22
   2   5   0 2772.87   54.78
   2   5   1  422.14   19.27
   2   5   1  421.04   26.83
   2   5   1  412.67   20.13
   2   5   1  450.91   21.41
   2   5   1  472.72   25.48
   2   5   2 2013.88   38.15
   2   5   2 2052.09   61.68
   2   5   2 2001.86   43.39
   2   5   2 2017.32   49.94
   2   5   2 2148.59   44.96
   2   5   2 2054.75   53.78
   2   5   3  390.12   28.53
   2   5   3  458.95   30.65
   2   5   3  418.38   19.68
   2   5   3  444.36   22.57
   2   5   3  451.80   19.70
   2   5   4 1267.43   46.25
   2   5   4 1264.53   53.30
   2   5   4 1161.88   35.93
   2   5   4 1299.84   31.42
   2   5   5 1089.28   44.05
   2   5   5 1146.74   35.25
   2   5   5 1106.46   52.32
   2   5   5 1036.95   32.41
   2   5   6  537.74   31.86
   2   5   6  523.41   21.68
   2   5   6  566.53   39.20
   2   5   6  503.50   21.80
   2   5   7  436.27   29.65
   2   5   7  444.36   16.71
   2   5   7  434.26   35.63
   2   5   7  419.06   19.04
   2   5   8  325.45   26.63
   2   5   8  344.58   33.23
   2   5   9  409.95   31.25
   2   5   9  349.55   34.86
   2   5  10   44.25   11.10
   2   5  11  494.54   37.87
   2   5  12    8.42    6.04
   2   6 -12  438.56   40.07
   2   6 -11  299.25   31.84
   2   6 -10  530.81   39.82
   2   6 -10  525.48   28.79
   2   6  -9  431.12   34.47
   2   6  -9  377.39   19.14
   2   6  -8  154.86   12.41
   2   6  -8  159.82   20.09
   2   6  -7  664.00   26.26
   2   6  -7  678.11   39.12
   2   6  -6  116.57   11.28
   2   6  -6  117.08   15.66
   2   6  -5 2002.56   58.65
   2   6  -5 1923.64   47.19
   2   6  -5 1928.84   59.77
   2   6  -4   36.21    8.82
   2   6  -4   36.29    7.58
   2   6  -4   43.45    8.73
   2   6  -4   38.10    7.38
   2   6  -3 1393.17   49.04
   2   6  -3 1492.00   53.36
   2   6  -3 1416.00   47.36
   2   6  -3 1334.03   43.43
   2   6  -3 1415.43   46.61
   2   6  -2   42.70    8.14
   2   6  -2   50.22    9.46
   2   6  -2   56.84    8.89
   2   6  -2   35.93    7.59
   2   6  -2   46.13    8.44
   2   6  -2   38.02    7.66
   2   6  -1 1301.91   44.54
   2   6  -1 1252.29   45.93
   2   6  -1 1260.79   39.76
   2   6  -1 1347.19   42.87
   2   6   0    0.84    1.19
   2   6   0    3.65    2.69
   2   6   0   -0.81    3.03
   2   6   0    7.24    3.44
   2   6   1  640.72   26.06
   2   6   1  562.38   33.48
   2   6   1  593.85   24.94
   2   6   1  634.64   27.79
   2   6   2   26.80    5.10
   2   6   2   27.22    5.44
   2   6   2   16.66    5.91
   2   6   2   24.90    6.71
   2   6   2   30.60    5.90
   2   6   3  372.95   30.19
   2   6   3  384.08   19.02
   2   6   3  344.63   22.45
   2   6   3  366.41   19.36
   2   6   4    2.52    2.90
   2   6   4   -4.08    2.78
   2   6   4    1.36    2.71
   2   6   4   -0.97    1.87
   2   6   5   28.61    7.21
   2   6   5   40.07    7.56
   2   6   5   27.31    8.74
   2   6   5   23.99    5.42
   2   6   6   -1.38    2.72
   2   6   6    1.57    1.19
   2   6   6    1.04    2.95
   2   6   6    2.84    2.08
   2   6   7   37.99    9.50
   2   6   7   28.94   10.91
   2   6   8    6.93    4.34
   2   6   8   19.93    9.83
   2   6   9    2.73    2.86
   2   6   9   -4.88    6.50
   2   6  10  132.08   18.88
   2   6  10  125.99   23.14
   2   6  11   -4.49    4.92
   2   7 -12   32.45   12.59
   2   7 -11  131.88   21.51
   2   7 -10  130.32   15.81
   2   7 -10  156.79   22.29
   2   7  -9   39.81   11.25
   2   7  -8  137.29   12.90
   2   7  -8  126.36   18.45
   2   7  -7   73.59   13.11
   2   7  -7   71.91    9.65
   2   7  -6   32.78    8.65
   2   7  -6   25.76    6.07
   2   7  -5   29.69    7.62
   2   7  -5   21.94    5.91
   2   7  -4   96.15   13.30
   2   7  -4  107.08   13.04
   2   7  -3   35.57    7.81
   2   7  -3   52.54    9.65
   2   7  -2  269.74   21.86
   2   7  -2  286.05   23.20
   2   7  -2  296.90   21.19
   2   7  -1   34.72    7.67
   2   7  -1   44.26    7.87
   2   7  -1   40.74    9.07
   2   7   0  217.78   17.64
   2   7   0  215.15   21.62
   2   7   0  205.56   15.93
   2   7   1   35.98    6.59
   2   7   1   40.41   10.20
   2   7   1   40.96    7.63
   2   7   2  852.95   29.83
   2   7   2  865.01   46.61
   2   7   2  818.55   28.90
   2   7   2  838.53   39.46
   2   7   3  420.67   28.44
   2   7   3  356.96   31.15
   2   7   3  364.10   25.42
   2   7   4  608.85   35.31
   2   7   4  607.11   32.91
   2   7   4  636.26   43.07
   2   7   4  614.95   32.18
   2   7   5  400.45   29.40
   2   7   5  398.21   25.59
   2   7   5  385.43   35.10
   2   7   5  401.56   25.44
   2   7   6  547.07   35.28
   2   7   6  596.34   45.60
   2   7   7  697.54   40.86
   2   7   7  743.99   52.14
   2   7   8  221.70   23.69
   2   7   8  179.26   26.85
   2   7   9  530.82   37.93
   2   7   9  550.31   48.32
   2   7  10   74.66   14.92
   2   8 -11   19.51    9.52
   2   8 -10  103.72   19.00
   2   8  -9  374.05   34.03
   2   8  -8   92.38   16.05
   2   8  -7 1194.59   43.12
   2   8  -7 1193.63   55.30
   2   8  -6  208.60   18.71
   2   8  -6  201.56   22.08
   2   8  -5  493.08   29.84
   2   8  -5  494.08   32.68
   2   8  -4  105.37   14.19
   2   8  -4  127.16   15.95
   2   8  -3 1635.95   57.80
   2   8  -3 1612.21   54.56
   2   8  -2    8.07    3.60
   2   8  -2   15.09    6.07
   2   8  -1 1840.00   65.59
   2   8  -1 1796.80   51.60
   2   8   0   51.73    9.42
   2   8   0   43.55    7.81
   2   8   0   50.51   11.97
   2   8   1 1400.50   44.45
   2   8   1 1387.07   61.03
   2   8   1 1402.55   40.36
   2   8   2  279.91   28.33
   2   8   2  270.62   16.54
   2   8   3  939.22   53.82
   2   8   4  176.22   20.05
   2   8   4  180.51   24.78
   2   8   5  493.15   34.10
   2   8   5  455.11   40.43
   2   8   6  437.04   32.57
   2   8   6  432.61   40.71
   2   8   7  138.10   18.85
   2   8   7   97.44   20.51
   2   8   8  329.80   29.91
   2   8   8  413.19   42.75
   2   8   9  149.37   20.96
   2   9 -10  222.92   27.91
   2   9  -9  327.87   32.77
   2   9  -8  324.43   31.21
   2   9  -7  106.51   17.32
   2   9  -6  624.05   35.30
   2   9  -6  653.74   40.74
   2   9  -5  100.24   14.56
   2   9  -5  138.76   18.07
   2   9  -4  962.96   46.39
   2   9  -4 1030.86   47.11
   2   9  -3   41.21    9.13
   2   9  -3   40.69   10.72
   2   9  -2  404.71   31.99
   2   9  -2  470.56   28.76
   2   9  -1   35.20    7.49
   2   9  -1   38.29   10.61
   2   9   0  396.79   34.05
   2   9   0  417.90   23.69
   2   9   1   13.95    4.15
   2   9   1   12.67    6.50
   2   9   2  205.63   25.96
   2   9   3  337.91   34.46
   2   9   4  125.55   17.60
   2   9   4  135.03   22.82
   2   9   5   57.55   12.18
   2   9   5   74.31   17.50
   2   9   6   51.62   11.57
   2   9   6   28.60   10.69
   2   9   7   24.78    8.29
   2   9   8    1.85    3.55
   2  10  -9  150.78   23.10
   2  10  -8   -5.30    6.28
   2  10  -7  143.85   20.84
   2  10  -6   -1.40    3.32
   2  10  -5    3.86    4.20
   2  10  -5   12.19    6.19
   2  10  -4    8.92    5.08
   2  10  -4    7.50    5.67
   2  10  -3   35.18    8.60
   2  10  -3   26.28    8.26
   2  10  -2    3.09    2.17
   2  10  -2   -3.48    4.49
   2  10  -1   -3.90    5.11
   2  10   0   10.21    6.30
   2  10   1   30.25   10.72
   2  10   2   95.46   19.29
   2  10   3  126.96   18.27
   2  10   3  104.69   20.42
   2  10   4  233.26   25.09
   2  10   4  192.53   28.24
   2  10   5   45.47   11.68
   2  10   5   47.12   15.21
   2  10   6  243.10   26.26
   2  10   7   59.79   14.07
   2  11  -8  137.63   22.11
   2  11  -7   -6.68    8.78
   2  11  -3    4.41    3.69
   2  11  -2 1273.56   64.47
   2  11  -1  132.21   22.00
   2  11   0  556.76   45.33
   2  11   1  157.33   25.51
   2  11   2  421.08   41.65
   2  11   3  164.07   22.12
   2  11   3  172.79   27.86
   2  12  -2    6.21    7.25
   2  12  -1  194.34   27.68
   2  12   0   14.38    7.19
   3 -13  -3   50.71   11.93
   3 -13  -2   56.53   12.74
   3 -13  -1  198.61   23.75
   3 -12  -5  281.67   29.85
   3 -12  -4  378.12   33.27
   3 -12  -4  410.73   30.27
   3 -12  -3  181.42   22.28
   3 -12  -3  137.48   18.01
   3 -12  -2  617.91   39.54
   3 -12  -2  585.24   37.85
   3 -12  -1   11.92    5.39
   3 -12  -1   14.67    6.21
   3 -12   0  437.59   33.68
   3 -12   1   -0.87    4.60
   3 -12   2  747.05   45.49
   3 -12   3   22.79    8.04
   3 -12   4  729.89   45.78
   3 -11  -7  283.96   29.93
   3 -11  -6  162.87   22.08
   3 -11  -5  237.45   25.43
   3 -11  -5  206.39   19.94
   3 -11  -4  184.87   21.94
   3 -11  -4  163.28   18.28
   3 -11  -3  363.47   29.36
   3 -11  -3  344.53   26.65
   3 -11  -2   65.56   12.01
   3 -11  -2   65.13   12.04
   3 -11  -1  444.69   30.15
   3 -11  -1  476.69   32.39
   3 -11   0   86.10   12.71
   3 -11   0   77.36   13.43
   3 -11   1  211.26   19.22
   3 -11   1  221.99   22.82
   3 -11   2    8.62    3.76
   3 -11   2   13.37    6.01
   3 -11   3   91.56   15.06
   3 -11   4   16.61    6.68
   3 -11   5   22.55    8.35
   3 -11   6   59.37   13.09
   3 -11   7   -0.94    2.77
   3 -10  -8    7.08    5.74
   3 -10  -7   15.52    7.12
   3 -10  -6   96.86   16.39
   3 -10  -6   97.48   12.80
   3 -10  -5   26.06    7.98
   3 -10  -5   19.63    6.59
   3 -10  -4   58.01   11.48
   3 -10  -4   45.56    9.10
   3 -10  -3    3.47    3.04
   3 -10  -3    3.78    3.02
   3 -10  -2  209.21   19.88
   3 -10  -2  168.99   18.00
   3 -10  -1   -2.59    2.33
   3 -10  -1    1.72    2.52
   3 -10   0  679.70   33.25
   3 -10   0  681.23   37.22
   3 -10   1   17.58    5.36
   3 -10   1    7.51    4.51
   3 -10   2  685.39   38.40
   3 -10   3   57.25   11.48
   3 -10   4  885.76   44.98
   3 -10   5   63.58   12.57
   3 -10   6  886.25   46.99
   3 -10   7  252.66   25.67
   3 -10   8  564.44   38.87
   3 -10   9  161.56   21.91
   3 -10   9  161.84   21.23
   3 -10  10  225.78   27.49
   3 -10  10  264.85   27.99
   3 -10  11  365.11   36.01
   3  -9  -9   86.85   16.24
   3  -9  -8  438.73   34.65
   3  -9  -7  189.76   16.12
   3  -9  -7  190.89   21.99
   3  -9  -6  423.24   24.56
   3  -9  -6  409.96   30.47
   3  -9  -5  602.11   30.28
   3  -9  -5  618.93   36.24
   3  -9  -4  264.25   20.35
   3  -9  -4  287.36   23.46
   3  -9  -3  946.14   39.24
   3  -9  -3 1013.65   42.07
   3  -9  -2  129.68   14.58
   3  -9  -2  131.34   14.80
   3  -9  -1 1507.08   47.33
   3  -9  -1 1487.41   50.69
   3  -9   0   51.24    8.29
   3  -9   0   57.49   10.19
   3  -9   1 1275.52   48.28
   3  -9   2   -1.15    2.94
   3  -9   3 1017.82   30.91
   3  -9   3 1014.94   44.54
   3  -9   4  136.54   16.62
   3  -9   5  849.76   42.24
   3  -9   6  259.97   24.00
   3  -9   7  299.48   25.17
   3  -9   7  329.76   27.52
   3  -9   8  292.49   26.57
   3  -9   8  304.11   27.04
   3  -9   9  195.23   23.10
   3  -9   9  169.79   20.93
   3  -9  10  323.39   31.68
   3  -9  10  339.48   30.02
   3  -9  11   38.33   10.60
   3  -9  11   20.10    7.22
   3  -9  12  231.81   29.42
   3  -8 -10   54.88   13.22
   3  -8  -9  368.06   31.75
   3  -8  -8  298.35   27.15
   3  -8  -7  318.14   26.80
   3  -8  -7  337.30   19.93
   3  -8  -6  745.44   30.51
   3  -8  -6  652.00   36.39
   3  -8  -5   59.44   10.54
   3  -8  -4  910.51   43.61
   3  -8  -4  908.40   39.14
   3  -8  -3  286.78   24.44
   3  -8  -3  239.50   19.05
   3  -8  -2  477.65   32.58
   3  -8  -2  514.16   26.42
   3  -8  -1   30.15    8.27
   3  -8  -1   13.80    4.25
   3  -8   0  913.42   45.83
   3  -8   1  100.31   10.01
   3  -8   1   92.99   12.27
   3  -8   2  541.92   21.52
   3  -8   2  497.66   28.70
   3  -8   3   42.66    5.60
   3  -8   3   45.23    8.84
   3  -8   4  323.57   24.02
   3  -8   5  106.93   12.62
   3  -8   5  102.33   13.99
   3  -8   6  106.00   13.61
   3  -8   6  117.55   15.21
   3  -8   7   11.90    4.70
   3  -8   7   15.02    5.67
   3  -8   8    3.47    3.86
   3  -8   8   10.94    4.87
   3  -8   9   10.76    5.29
   3  -8   9   -0.68    3.28
   3  -8  10    6.92    5.01
   3  -8  10   12.61    5.63
   3  -8  11   -1.73    4.52
   3  -8  11    0.43    4.55
   3  -8  12    0.03    4.52
   3  -8  12   -1.04    3.40
   3  -7 -11   90.98   16.14
   3  -7 -10   81.63   14.78
   3  -7  -9  145.19   18.81
   3  -7  -8  218.39   22.26
   3  -7  -7   95.55   13.94
   3  -7  -7  119.63   13.92
   3  -7  -6   28.73    7.25
   3  -7  -6   27.25    7.00
   3  -7  -5   26.56    6.46
   3  -7  -5   18.42    5.32
   3  -7  -4    3.39    3.12
   3  -7  -4    3.73    2.22
   3  -7  -3   55.95   10.19
   3  -7  -3   50.33    8.19
   3  -7  -2   48.26    9.60
   3  -7  -2   -0.98    1.48
   3  -7  -1    8.99    4.38
   3  -7   0   34.71    8.27
   3  -7   0   30.62    5.31
   3  -7   1  182.74   11.80
   3  -7   1  165.87   18.29
   3  -7   2  205.72   20.65
   3  -7   2  217.97   11.65
   3  -7   3  444.54   20.76
   3  -7   3  471.31   32.01
   3  -7   3  462.15   14.82
   3  -7   4  413.70   21.74
   3  -7   4  428.52   25.83
   3  -7   5  572.52   27.67
   3  -7   5  634.95   32.22
   3  -7   6  354.09   23.54
   3  -7   6  393.88   25.92
   3  -7   7  329.10   24.12
   3  -7   7  300.69   23.21
   3  -7   8  893.41   42.71
   3  -7   8  906.05   41.03
   3  -7   9  298.21   26.40
   3  -7   9  259.46   22.57
   3  -7  10  821.08   46.75
   3  -7  10  729.37   38.75
   3  -7  11  255.41   27.62
   3  -7  11  253.00   23.60
   3  -7  12  692.40   48.33
   3  -7  12  714.10   40.79
   3  -7  13   20.73    9.90
   3  -6 -12    2.24    3.66
   3  -6 -11    3.41    2.92
   3  -6 -10  202.23   22.47
   3  -6  -9   90.82   14.34
   3  -6  -9  106.86   11.06
   3  -6  -9  110.43   10.48
   3  -6  -8  293.36   19.09
   3  -6  -8  318.50   25.43
   3  -6  -8  280.16   14.83
   3  -6  -7   80.19   12.15
   3  -6  -7   76.71   10.08
   3  -6  -7   81.12    6.91
   3  -6  -6  915.81   35.86
   3  -6  -6  941.10   39.36
   3  -6  -6  875.96   18.42
   3  -6  -5  126.75   13.34
   3  -6  -5  127.25   13.70
   3  -6  -4 1788.43   51.65
   3  -6  -4 1822.44   48.31
   3  -6  -3   -0.30    0.90
   3  -6  -3   18.94    5.73
   3  -6  -2 2738.65   65.94
   3  -6  -1    1.20    2.53
   3  -6  -1    2.41    1.79
   3  -6   0 3383.55   75.13
   3  -6   0 3586.83   49.57
   3  -6   1   61.14    6.03
   3  -6   1   86.91   12.72
   3  -6   2 2846.11   42.48
   3  -6   2 2785.13   70.71
   3  -6   2 2876.09   34.73
   3  -6   3  528.82   21.01
   3  -6   3  565.40   32.29
   3  -6   4 1821.78   42.88
   3  -6   4 1904.38   60.68
   3  -6   5  351.62   20.60
   3  -6   5  336.50   26.36
   3  -6   5  354.01   22.32
   3  -6   6 1915.08   52.21
   3  -6   6 2067.02   55.48
   3  -6   7  753.43   35.32
   3  -6   7  756.00   34.36
   3  -6   8  353.34   25.89
   3  -6   8  341.97   23.86
   3  -6   9  701.64   39.17
   3  -6   9  702.09   34.76
   3  -6  10  103.91   16.22
   3  -6  10   84.43   12.29
   3  -6  11  259.79   26.94
   3  -6  11  249.85   21.74
   3  -6  12   12.80    7.82
   3  -6  12   -2.15    3.62
   3  -6  13  379.44   36.48
   3  -5 -12  737.57   45.24
   3  -5 -11  281.56   26.60
   3  -5 -11  294.72   22.30
   3  -5 -10  789.73   42.61
   3  -5 -10  736.28   33.03
   3  -5  -9  611.91   24.55
   3  -5  -9  595.65   35.22
   3  -5  -9  541.59   26.38
   3  -5  -8  721.84   32.79
   3  -5  -8  728.33   28.20
   3  -5  -8  753.98   37.58
   3  -5  -8  714.45   28.09
   3  -5  -7 1367.78   39.71
   3  -5  -7 1427.60   48.98
   3  -5  -7 1397.59   35.29
   3  -5  -6  898.57   30.37
   3  -5  -6  899.68   32.87
   3  -5  -6  945.29   46.38
   3  -5  -6  881.15   36.22
   3  -5  -6  868.65   25.11
   3  -5  -5 1770.80   37.77
   3  -5  -5 1903.39   48.64
   3  -5  -5 1778.17   61.06
   3  -5  -5 1879.65   49.72
   3  -5  -5 1863.82   32.71
   3  -5  -4  162.43   14.37
   3  -5  -4  142.05   16.61
   3  -5  -4  156.51   13.46
   3  -5  -4  152.51    8.40
   3  -5  -3 2077.90   51.93
   3  -5  -3 2098.85   29.36
   3  -5  -2    9.33    2.84
   3  -5  -2    4.43    2.14
   3  -5  -1 2084.94   53.58
   3  -5  -1 2107.62   37.82
   3  -5   0    4.82    2.48
   3  -5   0    7.84    3.53
   3  -5   1 1861.61   25.17
   3  -5   1 1906.24   52.75
   3  -5   1 1949.12   27.24
   3  -5   2   73.62    6.21
   3  -5   2   79.26   10.74
   3  -5   2   63.48    3.61
   3  -5   3  541.04   19.53
   3  -5   3  552.50   29.51
   3  -5   4  390.72   18.91
   3  -5   4  397.49   25.55
   3  -5   5   97.27   10.41
   3  -5   5   92.23   12.79
   3  -5   6  338.42   21.25
   3  -5   6  378.45   26.28
   3  -5   6  357.70   21.41
   3  -5   7   -0.02    1.84
   3  -5   7    5.70    2.98
   3  -5   8  192.56   18.62
   3  -5   8  205.66   17.07
   3  -5   9   13.76    5.55
   3  -5   9   19.47    5.53
   3  -5  10   77.15   13.50
   3  -5  10   85.34   11.60
   3  -5  11    0.63    2.14
   3  -5  11    0.45    2.08
   3  -5  12   44.80   11.87
   3  -5  13   -1.69    4.14
   3  -4 -13  372.77   32.99
   3  -4 -12   31.37    8.99
   3  -4 -12   21.32    7.28
   3  -4 -11  271.62   25.23
   3  -4 -11  246.27   21.74
   3  -4 -10  272.58   14.81
   3  -4 -10  257.41   20.80
   3  -4  -9  237.00   14.70
   3  -4  -9  228.37   18.31
   3  -4  -8  306.39   20.68
   3  -4  -8  317.53   17.79
   3  -4  -8  327.21   27.12
   3  -4  -8  305.53   19.57
   3  -4  -7   56.68    7.76
   3  -4  -7   54.27    7.85
   3  -4  -7   60.15   11.11
   3  -4  -6  427.26   20.34
   3  -4  -6  431.25   21.53
   3  -4  -6  422.46   28.61
   3  -4  -6  415.93   19.59
   3  -4  -5   13.65    3.21
   3  -4  -5   14.77    3.52
   3  -4  -5   11.10    3.98
   3  -4  -5    8.02    3.53
   3  -4  -4  217.13   10.95
   3  -4  -4  241.84   16.45
   3  -4  -4  237.71   19.68
   3  -4  -4  228.69   12.29
   3  -4  -3   11.67    2.75
   3  -4  -3    8.28    1.77
   3  -4  -3    9.89    3.23
   3  -4  -2  112.10   11.30
   3  -4  -2  101.84    7.71
   3  -4  -1   12.59    2.88
   3  -4  -1   13.00    4.11
   3  -4   0    1.50    1.93
   3  -4   1   39.14    3.44
   3  -4   1   26.91    5.85
   3  -4   1   42.44    3.22
   3  -4   2  262.84   11.35
   3  -4   2  300.22   19.53
   3  -4   3   23.56    4.05
   3  -4   3   33.98    6.66
   3  -4   4   85.98    8.69
   3  -4   4   89.16   11.05
   3  -4   5  298.12   17.86
   3  -4   5  310.41   21.18
   3  -4   6   67.38    9.38
   3  -4   6   63.31    9.78
   3  -4   7  322.18   21.89
   3  -4   7  301.43   18.63
   3  -4   8  250.33   20.98
   3  -4   8  279.16   18.39
   3  -4   9  614.58   35.03
   3  -4   9  648.76   28.94
   3  -4  10    7.70    4.78
   3  -4  10    6.78    3.70
   3  -4  11  882.93   47.80
   3  -4  11  933.27   35.70
   3  -4  12   29.79    9.28
   3  -4  13  747.58   49.37
   3  -3 -14    4.68    5.05
   3  -3 -13   42.32   11.21
   3  -3 -12    8.29    4.77
   3  -3 -11   11.95    4.94
   3  -3 -10    2.32    1.70
   3  -3 -10    1.16    1.63
   3  -3  -9  156.09   18.58
   3  -3  -9  177.68   17.19
   3  -3  -8   15.75    4.81
   3  -3  -8   11.92    4.15
   3  -3  -8   19.32    6.04
   3  -3  -7  122.87   14.47
   3  -3  -7  141.89   13.31
   3  -3  -6    7.13    2.85
   3  -3  -6    5.39    2.28
   3  -3  -6   11.81    4.72
   3  -3  -5  933.68   26.50
   3  -3  -5  923.95   36.49
   3  -3  -5  904.00   28.93
   3  -3  -4    2.14    1.02
   3  -3  -4    2.88    1.68
   3  -3  -4    3.02    2.19
   3  -3  -3 1925.17   27.81
   3  -3  -3 1976.96   37.46
   3  -3  -2  118.94    5.47
   3  -3  -2  116.45    8.91
   3  -3  -1 3260.52   25.93
   3  -3  -1 3286.10   47.47
   3  -3   0  455.92   10.60
   3  -3   0  466.18   21.96
   3  -3   0  430.06   17.72
   3  -3   1 1307.91   22.08
   3  -3   1 1289.87   36.84
   3  -3   1 1305.27   19.16
   3  -3   2 2199.18   34.40
   3  -3   2 2134.08   48.14
   3  -3   3 2282.20   40.30
   3  -3   3 2233.40   49.88
   3  -3   4 2366.14   46.01
   3  -3   4 2345.13   52.04
   3  -3   5 2058.58   46.98
   3  -3   5 2033.52   49.50
   3  -3   6 2301.25   54.18
   3  -3   6 2293.37   53.77
   3  -3   7  946.93   37.39
   3  -3   7  919.57   35.14
   3  -3   8 3084.04   72.62
   3  -3   9   56.36   10.49
   3  -3   9   -0.04    1.57
   3  -3  10 1437.11   56.19
   3  -3  10 1306.46   37.73
   3  -3  11  139.65   18.80
   3  -3  11  133.12   12.30
   3  -3  12  923.98   51.48
   3  -3  13   35.53   10.72
   3  -2 -15   78.17   16.91
   3  -2 -14  120.29   19.15
   3  -2 -13  256.16   26.68
   3  -2 -12  596.78   39.21
   3  -2 -11  462.78   32.79
   3  -2 -10 1047.25   46.43
   3  -2 -10 1090.76   47.17
   3  -2  -9  579.92   32.68
   3  -2  -9  596.82   32.80
   3  -2  -8 1721.54   48.65
   3  -2  -8 1762.38   53.10
   3  -2  -8 1743.16   52.31
   3  -2  -7  309.40   20.96
   3  -2  -7  332.27   21.37
   3  -2  -6 4195.51   72.27
   3  -2  -6 4205.36   70.71
   3  -2  -5   98.07    8.97
   3  -2  -5  102.66   10.84
   3  -2  -5  102.08   10.29
   3  -2  -4 5652.18   60.92
   3  -2  -4 5673.49   74.26
   3  -2  -4 5582.57   71.27
   3  -2  -3  148.25    8.92
   3  -2  -3  153.18   11.20
   3  -2  -2 4179.89   44.13
   3  -2  -2 4154.90   56.26
   3  -2  -1  326.27   15.74
   3  -2   0 4860.23   61.99
   3  -2   0 4734.91   48.71
   3  -2   1  448.45   15.39
   3  -2   1  442.62   12.59
   3  -2   1  470.04   19.95
   3  -2   2 5172.23   38.30
   3  -2   2 5225.39   58.60
   3  -2   3 1378.03   32.77
   3  -2   3 1337.44   36.00
   3  -2   3 1372.06   20.41
   3  -2   4 1493.47   37.54
   3  -2   4 1452.44   37.57
   3  -2   5  767.99   29.28
   3  -2   5  733.54   27.16
   3  -2   6  276.24   19.19
   3  -2   6  275.20   16.86
   3  -2   6  271.39   21.80
   3  -2   7  126.09   13.77
   3  -2   7  122.20   11.42
   3  -2   7  111.19   14.36
   3  -2   8  444.91   27.66
   3  -2   8  486.31   20.10
   3  -2   9  210.99   20.36
   3  -2  10   19.94    6.84
   3  -2  11    1.33    2.81
   3  -2  12   13.11    6.78
   3  -2  13    2.33    2.84
   3  -1 -15  137.83   22.29
   3  -1 -14  814.03   51.89
   3  -1 -13  182.41   23.78
   3  -1 -12 1062.82   54.11
   3  -1 -11  226.39   21.28
   3  -1 -11  207.76   14.79
   3  -1 -11  253.19   25.01
   3  -1 -10  341.52   24.15
   3  -1 -10  349.86   28.01
   3  -1  -9 1210.87   42.66
   3  -1  -9 1288.15   50.13
   3  -1  -8  845.03   34.93
   3  -1  -8  812.28   32.84
   3  -1  -8  816.88   37.57
   3  -1  -7  401.92   22.38
   3  -1  -7  386.13   20.57
   3  -1  -7  410.64   24.96
   3  -1  -6  371.89   18.63
   3  -1  -6  390.61   22.67
   3  -1  -5  559.52   22.80
   3  -1  -5  543.53   20.84
   3  -1  -5  561.03   25.44
   3  -1  -4   29.65    4.98
   3  -1  -4   28.39    5.56
   3  -1  -3  515.94   19.45
   3  -1  -3  519.98   21.88
   3  -1  -2    5.50    2.00
   3  -1  -2    5.61    2.45
   3  -1  -1  327.25   16.80
   3  -1  -1  343.87   15.55
   3  -1   0   31.63    5.31
   3  -1   0   32.44    4.68
   3  -1   0   41.96    4.99
   3  -1   1   12.81    3.33
   3  -1   1   14.21    2.71
   3  -1   1    9.04    2.82
   3  -1   2   73.07    5.97
   3  -1   2   78.68    7.98
   3  -1   2   76.28    9.07
   3  -1   3  118.76   10.30
   3  -1   3  134.54    8.18
   3  -1   4  179.52   13.72
   3  -1   4  203.96   13.11
   3  -1   4  187.32   10.56
   3  -1   5  153.18   13.66
   3  -1   5  163.19   11.64
   3  -1   6   16.40    5.02
   3  -1   6   18.48    4.21
   3  -1   6   16.80    5.80
   3  -1   7   39.16    7.85
   3  -1   7   38.63    5.80
   3  -1   7   45.04    9.70
   3  -1   8  179.25   17.79
   3  -1   8  198.13   11.22
   3  -1   9  360.02   26.78
   3  -1   9  375.61   15.30
   3  -1  10  637.95   37.97
   3  -1  10  621.71   18.88
   3  -1  11   50.01   11.59
   3  -1  12  266.16   27.37
   3  -1  13   22.58    8.69
   3   0 -15   49.08   13.44
   3   0 -14   12.28    6.49
   3   0 -13   28.08   10.71
   3   0 -12   -1.99    3.38
   3   0 -11    2.42    3.51
   3   0 -11    0.22    3.26
   3   0 -11    4.62    3.59
   3   0 -10   20.87    7.16
   3   0 -10   34.82    7.29
   3   0 -10   30.27    6.01
   3   0  -9   61.85   11.94
   3   0  -9   64.91    8.68
   3   0  -8   63.23    9.89
   3   0  -8   71.20   11.76
   3   0  -8   58.18    7.67
   3   0  -7  150.41   14.33
   3   0  -7  127.35    9.89
   3   0  -7  122.84   14.16
   3   0  -6  114.69    8.14
   3   0  -6  130.78   13.91
   3   0  -5  284.00   19.20
   3   0  -4  828.70   28.76
   3   0  -4  823.42   30.77
   3   0  -3   83.48    8.75
   3   0  -3   76.82    9.10
   3   0  -2  669.16   16.71
   3   0  -2  687.70   25.52
   3   0  -2  643.02   24.13
   3   0  -1  316.50   13.79
   3   0  -1  347.26   16.70
   3   0  -1  313.43   16.98
   3   0   0 4189.17   56.16
   3   0   0 4072.51   53.96
   3   0   0 4113.54   61.25
   3   0   1  185.59   11.05
   3   0   1  181.45   13.02
   3   0   1  206.16   13.93
   3   0   2  580.34   19.54
   3   0   2  611.69   25.92
   3   0   2  594.39   24.10
   3   0   3  461.49   22.26
   3   0   3  459.62   17.92
   3   0   4 1285.55   38.64
   3   0   4 1180.26   30.30
   3   0   5 2548.56   57.33
   3   0   5 2613.45   48.18
   3   0   6  380.10   23.54
   3   0   6  394.13   26.87
   3   0   6  383.59   16.13
   3   0   7 2298.68   60.91
   3   0   7 2282.62   37.71
   3   0   7 2228.26   67.75
   3   0   8    4.75    4.00
   3   0   8    1.32    1.13
   3   0   9 1349.76   52.71
   3   0   9 1303.30   20.90
   3   0  10   -0.30    3.17
   3   0  11 1202.62   56.08
   3   0  12   17.87    7.52
   3   0  13  689.67   47.31
   3   1 -14  298.76   33.28
   3   1 -13   30.94   10.14
   3   1 -12  177.83   23.48
   3   1 -11  237.23   25.93
   3   1 -11  191.83   16.42
   3   1 -10  422.49   32.55
   3   1 -10  385.63   20.15
   3   1 -10  401.84   23.24
   3   1  -9  761.52   25.56
   3   1  -9  805.50   31.86
   3   1  -9  850.90   44.13
   3   1  -8   21.48    6.50
   3   1  -8   26.00    7.01
   3   1  -8   36.68    4.93
   3   1  -7 1374.61   46.90
   3   1  -7 1371.32   23.58
   3   1  -7 1411.87   50.42
   3   1  -6   11.09    4.32
   3   1  -6   13.72    4.62
   3   1  -5 2740.36   59.68
   3   1  -5 2789.53   62.93
   3   1  -4   16.85    4.57
   3   1  -4   13.46    4.21
   3   1  -4    7.03    1.34
   3   1  -4    9.80    3.59
   3   1  -3 4086.99   67.84
   3   1  -3 3937.89   40.39
   3   1  -3 4080.00   67.29
   3   1  -3 3947.36   67.42
   3   1  -2  618.30   19.04
   3   1  -2  623.87   25.33
   3   1  -2  586.08   24.96
   3   1  -1 2948.84   46.73
   3   1  -1 2917.24   52.32
   3   1  -1 2921.16   53.99
   3   1   0 2508.53   47.59
   3   1   0 2517.86   46.52
   3   1   0 2506.43   49.46
   3   1   1 3670.95   55.53
   3   1   1 3489.24   60.81
   3   1   1 3529.45   59.12
   3   1   2 2327.45   44.26
   3   1   2 2337.47   53.70
   3   1   2 2405.21   49.90
   3   1   3 1584.84   43.62
   3   1   3 1704.02   38.73
   3   1   4 3151.87   64.40
   3   1   4 3161.13   54.87
   3   1   5  515.21   27.15
   3   1   5  523.21   23.60
   3   1   6 1143.14   42.51
   3   1   6 1217.30   48.65
   3   1   7  234.36   20.10
   3   1   7  280.64   11.59
   3   1   8 1088.17   45.71
   3   1   9  160.16   18.50
   3   1  10  855.08   45.49
   3   1  11   17.96    6.84
   3   1  12   90.60   16.50
   3   2 -14  252.84   31.36
   3   2 -13  214.57   27.69
   3   2 -12  849.07   52.56
   3   2 -11  335.00   31.53
   3   2 -10 1227.94   57.29
   3   2 -10 1244.00   30.13
   3   2  -9  132.39    8.12
   3   2  -9  119.09   16.91
   3   2  -9  132.24   13.77
   3   2  -8 1758.43   49.13
   3   2  -8 1875.61   63.02
   3   2  -7  134.98   15.30
   3   2  -7  165.79   16.71
   3   2  -7  132.51   15.43
   3   2  -7  108.92    5.13
   3   2  -7  150.39   16.79
   3   2  -6 2243.30   60.50
   3   2  -6 2136.54   57.26
   3   2  -6 2213.89   59.08
   3   2  -6 2085.58   25.14
   3   2  -6 2314.44   62.90
   3   2  -5   18.28    5.27
   3   2  -5   21.69    5.60
   3   2  -4 3106.40   64.42
   3   2  -4 2938.23   64.43
   3   2  -3  306.32   14.39
   3   2  -3  350.78   20.81
   3   2  -3  324.54   20.29
   3   2  -2  840.46   25.96
   3   2  -2  865.40   31.56
   3   2  -2  810.75   30.76
   3   2  -1   16.63    4.92
   3   2  -1   16.28    4.10
   3   2  -1   17.26    4.80
   3   2   0 1620.91   42.02
   3   2   0 1618.16   40.82
   3   2   0 1609.87   41.80
   3   2   1   28.46    5.56
   3   2   1   25.67    5.73
   3   2   1   25.05    5.20
   3   2   2   60.48    8.16
   3   2   2   68.03   10.02
   3   2   2   63.92    8.09
   3   2   3    9.83    3.53
   3   2   3   10.64    3.53
   3   2   4  217.90   17.84
   3   2   4  211.40   15.63
   3   2   5    8.57    3.40
   3   2   5    3.58    2.69
   3   2   5    6.20    3.84
   3   2   6   -0.41    2.75
   3   2   6   -0.97    3.04
   3   2   7  151.68    8.05
   3   2   7  155.51    5.35
   3   2   8   10.18    4.88
   3   2   9  404.88   30.24
   3   2  10    8.73    5.24
   3   2  11  211.26   24.39
   3   2  12   17.74    6.85
   3   3 -14  185.85   27.85
   3   3 -13   75.83   16.77
   3   3 -12  141.15   22.01
   3   3 -11   90.45   16.97
   3   3 -10  158.92    8.86
   3   3 -10  140.24    6.30
   3   3 -10  164.12   21.63
   3   3  -9  116.69    7.86
   3   3  -9  130.08   18.19
   3   3  -8    4.72    4.50
   3   3  -8    3.48    1.81
   3   3  -7   55.11   10.72
   3   3  -7   51.02    9.82
   3   3  -7   56.51    9.11
   3   3  -6    4.86    3.79
   3   3  -6    9.14    4.40
   3   3  -6    5.55    2.92
   3   3  -6    2.29    3.01
   3   3  -6    2.71    1.96
   3   3  -5    1.64    1.91
   3   3  -5    7.46    3.38
   3   3  -5   33.16    7.80
   3   3  -5   41.79    8.36
   3   3  -4  207.24   17.54
   3   3  -4  185.65   16.86
   3   3  -3  424.38   24.07
   3   3  -3  403.58   14.37
   3   3  -3  410.13   23.93
   3   3  -2   63.64    9.12
   3   3  -2   40.42    5.67
   3   3  -2   74.70   10.23
   3   3  -1  946.69   31.71
   3   3  -1  979.91   34.17
   3   3  -1 1034.29   35.72
   3   3  -1 1021.89   30.96
   3   3  -1 1042.82   35.40
   3   3   0   20.58    5.04
   3   3   0   30.15    6.44
   3   3   0   25.31    5.54
   3   3   0   16.44    4.46
   3   3   1  458.37   23.50
   3   3   1  456.22   25.78
   3   3   1  408.94   23.50
   3   3   1  430.02   22.24
   3   3   2 1269.60   45.57
   3   3   2 1235.75   43.53
   3   3   2 1249.44   37.97
   3   3   2 1320.68   39.99
   3   3   3  772.09   36.66
   3   3   3  795.03   30.52
   3   3   3  834.55   32.71
   3   3   4 1198.14   44.22
   3   3   4 1169.47   47.94
   3   3   4 1202.74   48.69
   3   3   4 1245.88   40.97
   3   3   5  760.79   36.28
   3   3   5  766.85   40.76
   3   3   5  806.85   34.13
   3   3   5  757.03   20.28
   3   3   6 1419.09   51.17
   3   3   6 1451.43   24.18
   3   3   7   60.18   10.85
   3   3   8  796.35   41.86
   3   3   9    0.26    2.33
   3   3  10  481.40   35.61
   3   3  11   73.02   14.78
   3   3  12  719.39   47.62
   3   4 -13   89.74   18.46
   3   4 -12  165.03   24.45
   3   4 -11  109.22   18.81
   3   4 -10  583.86   21.46
   3   4 -10  541.19   39.70
   3   4  -9  209.60   13.08
   3   4  -9  186.08   22.21
   3   4  -8  930.93   27.78
   3   4  -8  861.48   45.31
   3   4  -7   14.57    5.49
   3   4  -6 1068.38   44.10
   3   4  -6 1070.87   46.11
   3   4  -5   29.81    6.85
   3   4  -5   16.42    5.38
   3   4  -5   33.99    8.17
   3   4  -5   20.10    6.19
   3   4  -5   25.33    3.17
   3   4  -5   27.07    6.26
   3   4  -4 2041.55   60.97
   3   4  -4 2011.98   57.23
   3   4  -4 2056.01   57.55
   3   4  -4 1903.61   33.92
   3   4  -4 2069.12   53.69
   3   4  -4 2019.99   58.10
   3   4  -3  171.83   17.75
   3   4  -3  176.91   16.21
   3   4  -3  198.17   17.44
   3   4  -3  159.75   11.33
   3   4  -3  175.27   16.47
   3   4  -3  175.15   15.26
   3   4  -2 2747.80   63.28
   3   4  -2 2567.69   50.62
   3   4  -2 2549.59   60.30
   3   4  -2 2631.67   57.02
   3   4  -1 1600.98   47.85
   3   4  -1 1667.18   44.70
   3   4  -1 1703.53   47.59
   3   4   0 1193.66   40.93
   3   4   0 1222.91   44.62
   3   4   0 1164.35   40.04
   3   4   0 1168.62   38.51
   3   4   1 1266.60   42.12
   3   4   1 1155.05   45.53
   3   4   1 1157.64   42.65
   3   4   1 1207.64   38.50
   3   4   1 1223.50   35.05
   3   4   2 1049.45   44.28
   3   4   2 1057.04   43.30
   3   4   2 1125.29   36.75
   3   4   2 1115.57   32.32
   3   4   2 1081.11   39.29
   3   4   3 1461.60   55.35
   3   4   3 1550.86   55.36
   3   4   3 1526.99   43.13
   3   4   3 1623.50   48.98
   3   4   3 1553.28   36.44
   3   4   4  256.96   21.48
   3   4   4  276.77   24.62
   3   4   4  287.02   14.77
   3   4   5 1231.73   48.62
   3   4   5 1260.38   55.34
   3   4   5 1200.82   27.78
   3   4   6    7.48    3.21
   3   4   6   12.95    2.65
   3   4   7 1341.20   53.88
   3   4   7 1343.83   30.06
   3   4   7 1274.83   60.54
   3   4   8   80.73   13.78
   3   4   9 1392.48   59.43
   3   4  10    6.97    3.85
   3   4  11  275.83   28.74
   3   5 -12  111.85   20.27
   3   5 -11  395.66   36.37
   3   5 -10    3.50    4.09
   3   5  -9 1025.22   33.64
   3   5  -9  858.56   49.60
   3   5  -8   10.18    5.35
   3   5  -7 2339.05   73.66
   3   5  -6  117.72    8.06
   3   5  -6  136.11   17.18
   3   5  -5 1442.17   32.91
   3   5  -5 1559.07   55.23
   3   5  -4  424.90   27.80
   3   5  -4  435.01   27.38
   3   5  -4  406.21   19.27
   3   5  -4  430.36   27.87
   3   5  -3 1221.73   49.91
   3   5  -3 1143.07   44.06
   3   5  -3 1163.02   44.18
   3   5  -3 1085.78   34.79
   3   5  -3 1156.24   43.87
   3   5  -3 1256.06   43.27
   3   5  -2  537.34   28.55
   3   5  -2  569.23   30.60
   3   5  -2  535.20   26.46
   3   5  -2  513.40   28.18
   3   5  -2  585.78   28.85
   3   5  -1 1070.41   41.64
   3   5  -1  986.63   38.14
   3   5  -1 1080.39   39.35
   3   5  -1 1105.46   38.45
   3   5   0  463.32   27.22
   3   5   0  469.23   28.36
   3   5   0  475.21   25.48
   3   5   0  489.49   24.65
   3   5   1  692.67   37.79
   3   5   1  706.51   35.97
   3   5   1  666.74   29.46
   3   5   1  722.35   29.24
   3   5   2  563.95   33.98
   3   5   2  550.89   26.59
   3   5   2  577.11   25.12
   3   5   3   30.15    6.16
   3   5   3   46.03   10.74
   3   5   3   47.38    6.95
   3   5   4  542.77   32.89
   3   5   4  578.82   38.06
   3   5   4  604.58   23.33
   3   5   5  111.75   15.26
   3   5   5  154.24   20.39
   3   5   5  164.60   11.36
   3   5   6  180.10   19.93
   3   5   6  161.89   21.88
   3   5   7   15.65    5.84
   3   5   7   13.72    7.38
   3   5   8    0.40    2.67
   3   5   8   -2.02    4.78
   3   5   9   87.81   15.64
   3   5  10    3.88    3.58
   3   5  11   58.51   13.85
   3   6 -12  295.73   33.78
   3   6 -11   58.47   14.53
   3   6 -10  533.30   41.65
   3   6  -9   24.03    8.54
   3   6  -8  371.71   31.69
   3   6  -7   -0.17    3.07
   3   6  -7    0.28    1.21
   3   6  -6    0.43    2.30
   3   6  -6    0.15    1.34
   3   6  -5   84.27   13.39
   3   6  -5   99.70   10.37
   3   6  -4  223.70   16.65
   3   6  -4  226.54   21.10
   3   6  -3    5.09    3.55
   3   6  -3    4.30    2.56
   3   6  -2    3.70    2.73
   3   6  -2    3.23    2.60
   3   6  -2    3.16    2.53
   3   6  -1  158.25   15.67
   3   6  -1  153.98   16.71
   3   6  -1  178.98   16.81
   3   6   0  323.55   25.41
   3   6   0  316.43   21.42
   3   6   0  332.90   21.96
   3   6   1  267.41   24.24
   3   6   1  294.01   20.28
   3   6   1  289.46   19.79
   3   6   2   16.82    5.18
   3   6   2   19.50    6.69
   3   6   2   24.69    5.59
   3   6   3  632.56   40.28
   3   6   3  624.35   28.47
   3   6   3  683.63   28.45
   3   6   4   25.55    7.26
   3   6   4   21.20    8.68
   3   6   4   37.72    6.52
   3   6   5  798.98   42.69
   3   6   5  820.78   49.76
   3   6   6   -0.55    2.89
   3   6   6    2.71    4.20
   3   6   7  897.45   47.74
   3   6   7  943.96   57.79
   3   6   8   12.31    6.37
   3   6   8   -1.88    3.73
   3   6   9  604.98   41.93
   3   6  10   44.27   12.21
   3   7 -11  207.11   27.78
   3   7 -10   10.60    6.55
   3   7  -9  517.73   40.47
   3   7  -8    5.83    4.41
   3   7  -7  349.72   18.80
   3   7  -7  369.58   31.49
   3   7  -6   40.68   10.02
   3   7  -6   45.03    7.52
   3   7  -5 1338.54   43.25
   3   7  -5 1394.14   56.61
   3   7  -4  111.44   13.32
   3   7  -4  129.88   16.72
   3   7  -3 1634.30   53.67
   3   7  -3 1621.59   56.15
   3   7  -2  364.37   26.82
   3   7  -2  412.75   27.35
   3   7  -1  898.48   39.56
   3   7  -1  855.06   42.62
   3   7  -1  898.05   38.94
   3   7   0  886.11   37.27
   3   7   0  821.47   43.74
   3   7   0  902.55   37.36
   3   7   1  486.95   34.96
   3   7   1  529.91   27.72
   3   7   2  917.71   49.56
   3   7   2  894.32   35.02
   3   7   3  429.74   23.77
   3   7   3  472.64   25.38
   3   7   4 1068.63   50.92
   3   7   4 1042.12   57.83
   3   7   5  100.64   15.95
   3   7   5  106.80   19.29
   3   7   6 1022.19   51.83
   3   7   6 1066.50   62.54
   3   7   7   12.95    6.01
   3   7   7   20.89   10.50
   3   7   8  475.85   37.00
   3   7   8  528.53   47.74
   3   7   9   43.65   11.93
   3   8 -10  546.80   45.02
   3   8  -9  101.69   18.30
   3   8  -8  836.19   50.77
   3   8  -7    3.23    2.55
   3   8  -6  969.24   38.63
   3   8  -6  996.75   51.13
   3   8  -5  222.56   19.66
   3   8  -5  232.08   23.92
   3   8  -4  335.19   25.56
   3   8  -4  355.70   28.36
   3   8  -3  103.33   14.63
   3   8  -3   78.76   13.32
   3   8  -2  464.21   32.81
   3   8  -2  506.85   31.20
   3   8  -1  449.45   33.31
   3   8  -1  533.96   31.08
   3   8   0  316.45   23.96
   3   8   0  308.08   28.91
   3   8   0  299.41   22.09
   3   8   1  558.80   29.40
   3   8   1  509.63   38.54
   3   8   1  542.00   28.59
   3   8   2   47.76    8.09
   3   8   2   40.12   11.91
   3   8   3  332.41   33.29
   3   8   4    0.16    2.25
   3   8   4    1.96    3.68
   3   8   5  183.06   22.39
   3   8   5  231.72   29.89
   3   8   6   13.77    5.76
   3   8   6    7.13    5.85
   3   8   7  134.56   19.82
   3   8   7  102.71   21.84
   3   8   8    3.35    4.35
   3   9  -9  154.66   23.61
   3   9  -8   38.15   11.67
   3   9  -7  111.27   18.41
   3   9  -6   71.58   14.75
   3   9  -5  112.03   17.04
   3   9  -5  126.97   16.45
   3   9  -4   43.60   10.47
   3   9  -4   57.71   11.66
   3   9  -3   74.32   12.92
   3   9  -3   71.13   13.27
   3   9  -2   58.73   11.12
   3   9  -2   58.66   12.90
   3   9  -1    4.11    3.53
   3   9  -1   11.70    6.55
   3   9   0    6.09    2.89
   3   9   0   12.81    6.32
   3   9   1    7.02    6.08
   3   9   2    9.01    4.02
   3   9   3    7.62    5.89
   3   9   4   53.68   12.91
   3   9   4   88.64   19.05
   3   9   5    3.52    3.32
   3   9   5   17.66   10.38
   3   9   6   86.68   16.08
   3   9   7   40.99   11.10
   3  10  -8   13.14    8.09
   3  10  -7   22.84    8.99
   3  10  -6  158.61   22.05
   3  10  -5   21.62    7.78
   3  10  -4  229.73   24.42
   3  10  -3  328.13   30.55
   3  10  -3  395.95   30.52
   3  10  -2   89.45   16.89
   3  10  -1  403.70   36.32
   3  10   0  125.00   20.87
   3  10   1  595.87   46.94
   3  10   2   46.87   13.22
   3  10   3  805.02   49.99
   3  10   3  859.05   59.87
   3  10   4   32.55    9.93
   3  10   4   34.25   11.85
   3  10   5  555.90   41.91
   3  11  -2  272.06   30.57
   3  11  -1  288.24   32.49
   3  11   0  407.12   39.58
   3  11   1  109.48   22.26
   3  11   2  224.36   31.72
   3  11   3   -9.16    7.91
   4 -13  -3    9.71    6.65
   4 -13  -2  310.26   29.36
   4 -12  -6   -1.34    3.88
   4 -12  -5  415.56   34.95
   4 -12  -4   -3.22    4.74
   4 -12  -4   15.74    6.55
   4 -12  -3  567.98   37.67
   4 -12  -3  508.17   34.92
   4 -12  -2    7.18    3.91
   4 -12  -2    5.17    4.20
   4 -12  -1  373.96   30.90
   4 -12   0   44.67   10.72
   4 -12   1  363.90   31.30
   4 -12   2   66.37   13.66
   4 -12   3  156.41   21.08
   4 -11  -7   21.46    8.35
   4 -11  -6   85.04   15.81
   4 -11  -5   59.93   12.26
   4 -11  -5   43.09    9.36
   4 -11  -4    0.45    2.35
   4 -11  -4    0.68    2.59
   4 -11  -3   57.16   11.32
   4 -11  -3   44.14    9.98
   4 -11  -2   28.35    7.61
   4 -11  -2   18.35    7.06
   4 -11  -1  106.68   14.02
   4 -11  -1  110.94   16.23
   4 -11   0  114.68   13.83
   4 -11   0  106.86   15.74
   4 -11   1   79.99   13.94
   4 -11   2  265.81   25.56
   4 -11   3  443.75   33.63
   4 -11   4  136.49   19.26
   4 -11   5  226.17   24.59
   4 -11   6  170.42   21.93
   4 -11   7  209.11   24.51
   4 -10  -8    6.27    5.14
   4 -10  -7  418.80   34.12
   4 -10  -6   10.34    5.23
   4 -10  -6    2.21    2.19
   4 -10  -5  736.68   36.53
   4 -10  -5  808.23   43.08
   4 -10  -4    2.22    3.09
   4 -10  -4    6.13    3.63
   4 -10  -3 1072.64   45.53
   4 -10  -3 1063.72   45.40
   4 -10  -2   39.15    8.20
   4 -10  -2   44.44    9.66
   4 -10  -1  877.87   37.14
   4 -10  -1  835.62   41.21
   4 -10   0  198.64   16.75
   4 -10   0  177.08   19.21
   4 -10   1  572.04   34.83
   4 -10   2  370.47   19.34
   4 -10   2  346.81   27.72
   4 -10   3  610.06   37.22
   4 -10   4  283.69   25.89
   4 -10   5   73.93   13.51
   4 -10   6  652.34   40.55
   4 -10   7   17.89    7.04
   4 -10   8  575.93   39.52
   4 -10   9    4.33    3.48
   4  -9  -9   75.43   14.82
   4  -9  -8  629.26   41.00
   4  -9  -7   47.99   11.20
   4  -9  -7   44.69    8.26
   4  -9  -6  733.29   40.28
   4  -9  -5   -6.20    4.32
   4  -9  -5    1.87    1.88
   4  -9  -4  524.54   36.09
   4  -9  -4  558.98   32.32
   4  -9  -3  173.28   21.18
   4  -9  -3  214.05   18.75
   4  -9  -2  672.41   41.60
   4  -9  -2  696.42   32.11
   4  -9  -1  194.84   16.12
   4  -9  -1  150.42   19.98
   4  -9   0  440.69   34.89
   4  -9   1  317.98   17.78
   4  -9   1  276.04   27.80
   4  -9   2  196.06   23.84
   4  -9   2  195.58   12.50
   4  -9   3 1013.96   45.12
   4  -9   3  984.30   22.05
   4  -9   4    4.10    4.11
   4  -9   5  274.01   24.41
   4  -9   6   82.90   11.98
   4  -9   6   98.11   14.92
   4  -9   7  180.30   18.91
   4  -9   7  211.22   22.27
   4  -9   8    2.33    1.75
   4  -9   8    1.72    3.57
   4  -9   9  181.20   21.62
   4  -9   9  148.30   19.46
   4  -9  10   -1.68    2.85
   4  -9  10   -1.11    4.32
   4  -9  11   -1.77    4.66
   4  -9  11    3.20    2.92
   4  -9  12   18.14    8.11
   4  -8 -10   19.95    8.19
   4  -8  -9  250.09   25.80
   4  -8  -8    1.09    3.02
   4  -8  -8    0.61    2.14
   4  -8  -7  319.85   25.23
   4  -8  -7  298.83   25.72
   4  -8  -6   -2.39    3.76
   4  -8  -6   -1.29    2.99
   4  -8  -5  249.99   22.73
   4  -8  -5  243.49   20.80
   4  -8  -4   -1.91    2.48
   4  -8  -4    1.97    2.13
   4  -8  -3  100.25   14.85
   4  -8  -3   71.98   10.09
   4  -8  -2   58.04   11.46
   4  -8  -2   93.68   10.98
   4  -8  -1   53.10   11.25
   4  -8   0    3.22    3.28
   4  -8   0    4.81    2.32
   4  -8   1   -0.39    0.80
   4  -8   1    2.16    3.38
   4  -8   2   57.29   11.94
   4  -8   2   56.81    5.76
   4  -8   3   30.96    9.28
   4  -8   4  389.55   21.07
   4  -8   4  403.15   32.83
   4  -8   5   23.32    5.62
   4  -8   5   39.64    8.92
   4  -8   6  305.71   22.15
   4  -8   6  303.12   24.51
   4  -8   7    0.75    2.60
   4  -8   7   -0.87    3.55
   4  -8   8  705.66   38.79
   4  -8   8  754.82   40.45
   4  -8   9   35.86    9.75
   4  -8   9   21.00    6.60
   4  -8  10  672.57   43.05
   4  -8  10  643.67   38.67
   4  -8  11  158.67   22.40
   4  -8  11  152.22   19.20
   4  -8  12  374.90   36.05
   4  -8  12  334.21   29.05
   4  -7 -11   48.93   12.31
   4  -7 -10   62.68   13.11
   4  -7  -9   28.51    8.40
   4  -7  -9   29.08    6.92
   4  -7  -8  200.27   18.39
   4  -7  -8  217.74   21.99
   4  -7  -7   11.22    1.88
   4  -7  -7   16.75    6.13
   4  -7  -7   11.74    5.18
   4  -7  -6  327.37   24.28
   4  -7  -6  358.38   25.43
   4  -7  -5  127.77   15.58
   4  -7  -5  115.09   13.61
   4  -7  -4  706.18   36.85
   4  -7  -4  718.33   32.00
   4  -7  -3  352.97   26.09
   4  -7  -3  378.75   21.82
   4  -7  -2  970.09   43.99
   4  -7  -1 1525.19   55.24
   4  -7   0  943.70   44.37
   4  -7   0  851.42   25.70
   4  -7   1 1376.01   28.74
   4  -7   1 1346.47   53.39
   4  -7   2  835.74   42.77
   4  -7   2  776.50   17.12
   4  -7   3 1478.30   34.43
   4  -7   3 1470.98   57.29
   4  -7   4  961.01   31.47
   4  -7   4  978.64   47.95
   4  -7   5 2472.48   55.64
   4  -7   5 2530.15   77.78
   4  -7   6    7.77    4.12
   4  -7   6   10.03    5.01
   4  -7   6   12.11    4.86
   4  -7   7 1517.72   51.30
   4  -7   7 1547.99   53.18
   4  -7   8   29.45    7.70
   4  -7   8   25.80    7.45
   4  -7   9 1028.26   48.67
   4  -7   9  952.54   43.55
   4  -7  10   -9.19    5.25
   4  -7  10    4.73    3.36
   4  -7  11  655.22   44.05
   4  -7  11  617.37   36.45
   4  -7  12   38.38   11.60
   4  -7  12   40.67    9.90
   4  -6 -11  717.69   44.39
   4  -6 -10  124.79   17.69
   4  -6  -9 1380.99   44.79
   4  -6  -9 1348.51   55.12
   4  -6  -9 1446.50   41.13
   4  -6  -8    6.10    3.87
   4  -6  -8   12.06    4.28
   4  -6  -8    2.79    1.50
   4  -6  -8   11.41    4.40
   4  -6  -7 1508.73   48.78
   4  -6  -7 1473.25   52.41
   4  -6  -7 1475.32   35.38
   4  -6  -6   19.69    5.97
   4  -6  -6   15.65    3.47
   4  -6  -6   23.08    6.36
   4  -6  -5 2253.73   61.09
   4  -6  -5 2186.36   56.67
   4  -6  -5 2325.52   37.96
   4  -6  -4  279.16   21.68
   4  -6  -4  308.37   13.29
   4  -6  -4  291.16   19.35
   4  -6  -3 2524.06   65.38
   4  -6  -3  137.04   12.58
   4  -6  -2   96.68   13.08
   4  -6  -1 1487.20   51.00
   4  -6  -1 1361.11   32.81
   4  -6   0  937.01   41.10
   4  -6   0  880.26   23.41
   4  -6   1 1078.89   44.46
   4  -6   1 1046.30   21.34
   4  -6   2 1119.82   24.21
   4  -6   2 1206.10   47.38
   4  -6   3  195.20   12.02
   4  -6   3  188.01   19.13
   4  -6   4  815.90   27.97
   4  -6   4  815.99   40.83
   4  -6   5    6.12    3.07
   4  -6   5   16.95    6.42
   4  -6   6  253.27   18.84
   4  -6   6  284.87   25.02
   4  -6   7  150.08   15.85
   4  -6   7  123.45   16.89
   4  -6   7  131.19   14.48
   4  -6   8  302.35   23.97
   4  -6   8  285.50   21.95
   4  -6   9  138.99   17.46
   4  -6   9  116.90   14.36
   4  -6  10  119.27   17.26
   4  -6  10  107.99   14.19
   4  -6  11   24.65    8.94
   4  -6  11   27.50    7.30
   4  -6  12   10.34    5.64
   4  -6  12    7.11    4.28
   4  -6  13   -1.08    3.69
   4  -5 -12  270.69   27.65
   4  -5 -11  158.37   20.21
   4  -5 -11  147.39   16.78
   4  -5 -10  456.41   23.82
   4  -5 -10  374.24   24.94
   4  -5  -9    8.23    2.72
   4  -5  -9   12.05    4.51
   4  -5  -9   10.10    3.78
   4  -5  -8  578.06   27.87
   4  -5  -8  581.94   28.54
   4  -5  -8  590.94   27.55
   4  -5  -7   16.42    4.38
   4  -5  -7   22.04    5.65
   4  -5  -6  517.14   21.65
   4  -5  -6  508.12   27.37
   4  -5  -6  462.02   32.47
   4  -5  -6  516.42   22.55
   4  -5  -5   56.25    6.13
   4  -5  -5   53.65    9.17
   4  -5  -5   54.21    6.93
   4  -5  -4  187.73    9.28
   4  -5  -4  166.25   16.03
   4  -5  -4  182.77   12.20
   4  -5  -3  130.13   14.04
   4  -5  -3  117.85    9.56
   4  -5  -2  152.25   15.32
   4  -5  -2  142.05   10.73
   4  -5  -1  288.29   21.19
   4  -5   0   29.79    7.14
   4  -5   0   36.71    4.44
   4  -5   1    4.72    1.26
   4  -5   1    1.93    0.91
   4  -5   1    1.59    1.46
   4  -5   2   41.73    4.70
   4  -5   2   38.86    7.80
   4  -5   3    0.39    0.88
   4  -5   3    3.23    2.95
   4  -5   4   29.70    5.32
   4  -5   4   23.49    6.52
   4  -5   5   47.41    7.40
   4  -5   5   40.37    8.87
   4  -5   6  193.21   16.26
   4  -5   6  169.13   17.89
   4  -5   7   99.87   12.67
   4  -5   7   72.80   11.95
   4  -5   8  186.75   18.54
   4  -5   8  166.95   15.73
   4  -5   9  407.95   29.49
   4  -5   9  404.13   25.09
   4  -5  10  180.68   20.94
   4  -5  10  169.99   16.51
   4  -5  11  439.89   34.46
   4  -5  11  387.98   25.46
   4  -5  12  111.98   18.69
   4  -5  12  129.30   14.65
   4  -5  13  146.45   22.12
   4  -4 -12    3.70    4.32
   4  -4 -11   35.83    8.84
   4  -4 -10    8.21    3.56
   4  -4 -10    3.39    3.23
   4  -4  -9    5.62    3.61
   4  -4  -9    1.99    2.41
   4  -4  -9    1.23    1.68
   4  -4  -8   16.22    4.73
   4  -4  -8   10.26    4.23
   4  -4  -8    9.02    4.29
   4  -4  -7   89.84   13.67
   4  -4  -7  106.01   11.74
   4  -4  -6   42.48    6.26
   4  -4  -6   41.60    6.90
   4  -4  -6   58.67   11.03
   4  -4  -5  164.25   10.74
   4  -4  -5  185.72   13.87
   4  -4  -4   57.43    5.48
   4  -4  -4   57.07    7.45
   4  -4  -3  413.21   12.07
   4  -4  -3  379.37   18.77
   4  -4  -2  584.33   11.42
   4  -4  -2  647.12   24.08
   4  -4  -1  265.23    7.45
   4  -4  -1  261.09    7.29
   4  -4  -1  272.31   19.67
   4  -4  -1  277.10   15.93
   4  -4   0 1465.64   20.31
   4  -4   0 1535.36   46.50
   4  -4   1  383.59   12.88
   4  -4   1  337.02   22.02
   4  -4   1  364.62   12.20
   4  -4   2 1482.06   29.95
   4  -4   2 1432.46   45.76
   4  -4   3  239.24   13.65
   4  -4   3  251.02   19.41
   4  -4   4 3702.05   59.70
   4  -4   4 3565.67   74.56
   4  -4   5    1.94    1.57
   4  -4   5   -0.85    1.74
   4  -4   6 3500.56   69.06
   4  -4   6 3373.64   74.17
   4  -4   7  184.22   17.32
   4  -4   7  170.30   17.12
   4  -4   8 1688.57   55.28
   4  -4   8 1572.86   53.59
   4  -4   9    0.82    2.39
   4  -4   9    4.87    3.02
   4  -4  10 1582.04   61.02
   4  -4  10 1589.44   46.90
   4  -4  11  185.54   22.37
   4  -4  11  192.73   16.70
   4  -4  12  589.77   41.96
   4  -4  13  398.81   36.46
   4  -3 -14   74.84   15.24
   4  -3 -13    1.80    4.00
   4  -3 -12  407.61   32.21
   4  -3 -11    2.28    3.38
   4  -3 -10  891.72   44.75
   4  -3 -10  844.99   41.82
   4  -3  -9   70.25   11.49
   4  -3  -9   58.37   11.21
   4  -3  -8 1570.32   45.86
   4  -3  -8 1436.76   51.91
   4  -3  -8 1492.97   49.36
   4  -3  -7  246.76   20.24
   4  -3  -7  238.14   18.59
   4  -3  -6 1899.86   42.50
   4  -3  -6 1852.27   48.98
   4  -3  -5  230.59   13.45
   4  -3  -5  227.89   16.31
   4  -3  -4 2359.48   38.71
   4  -3  -4 2297.99   49.40
   4  -3  -3 2844.76   39.36
   4  -3  -3 2825.04   53.30
   4  -3  -2 2676.59   36.16
   4  -3  -2 2621.01   51.17
   4  -3  -1 2418.60   49.09
   4  -3   0 2329.91   49.65
   4  -3   0 2226.12   37.83
   4  -3   1 5471.00   57.42
   4  -3   1 5473.96   77.74
   4  -3   1 5341.09   50.64
   4  -3   2  773.41   15.86
   4  -3   2  797.05   23.94
   4  -3   2  780.80   32.30
   4  -3   3 1491.42   36.01
   4  -3   3 1507.96   44.74
   4  -3   3 1525.48   19.94
   4  -3   4  332.99   18.49
   4  -3   4  327.93   21.13
   4  -3   5 1793.62   46.60
   4  -3   5 1684.31   48.46
   4  -3   6  216.38   17.54
   4  -3   6  170.32   15.60
   4  -3   7 1005.61   40.35
   4  -3   7  963.89   37.29
   4  -3   8    2.57    3.66
   4  -3   8    4.64    2.50
   4  -3   9  289.76   24.42
   4  -3   9  248.34   16.80
   4  -3  10   92.37   14.93
   4  -3  10   94.89   10.51
   4  -3  11  111.21   17.23
   4  -3  11  106.94   11.23
   4  -3  12    8.11    4.72
   4  -3  13   11.71    8.20
   4  -2 -15  507.74   42.51
   4  -2 -14  176.09   24.15
   4  -2 -13  848.90   50.66
   4  -2 -12   13.82    5.01
   4  -2 -11  939.57   48.25
   4  -2 -10  157.43   17.15
   4  -2 -10  166.02   19.39
   4  -2  -9 1329.32   47.14
   4  -2  -9 1542.89   55.35
   4  -2  -8   22.84    5.75
   4  -2  -8   26.47    6.99
   4  -2  -8   19.16    5.31
   4  -2  -7 1723.65   45.92
   4  -2  -7 1682.75   47.43
   4  -2  -7 1737.96   52.63
   4  -2  -6  282.34   20.12
   4  -2  -5 1530.15   37.83
   4  -2  -5 1476.60   43.65
   4  -2  -4  128.17   10.38
   4  -2  -4  135.32   12.66
   4  -2  -3  790.22   24.55
   4  -2  -3  764.78   29.18
   4  -2  -2  225.88   13.10
   4  -2  -2  228.89   15.79
   4  -2  -1  425.15   19.19
   4  -2  -1  427.00   21.67
   4  -2   0   20.07    4.65
   4  -2   0   31.60    4.69
   4  -2   1   17.15    4.34
   4  -2   1   17.79    3.34
   4  -2   2   24.91    4.83
   4  -2   2   19.87    5.19
   4  -2   2   22.58    3.42
   4  -2   3    0.70    1.26
   4  -2   3    1.65    1.07
   4  -2   4  108.52   11.12
   4  -2   4  115.43   11.96
   4  -2   4  115.90    7.86
   4  -2   5   71.99    9.67
   4  -2   5   72.88    9.49
   4  -2   5   78.67   13.09
   4  -2   6  234.99   18.69
   4  -2   6  238.76   17.23
   4  -2   6  238.97   21.72
   4  -2   7   94.17   12.45
   4  -2   7   77.97    9.83
   4  -2   8  252.18   21.76
   4  -2   8  229.52   17.00
   4  -2   9   20.12    6.71
   4  -2  10   41.01    9.83
   4  -2  11    4.94    2.68
   4  -2  12  127.79   19.76
   4  -2  13   59.52   14.20
   4  -1 -15   66.53   15.94
   4  -1 -14   27.83   10.32
   4  -1 -13   13.00    7.22
   4  -1 -12   68.05   14.22
   4  -1 -11    0.24    3.03
   4  -1 -10  178.83   16.16
   4  -1 -10  187.17   21.13
   4  -1  -9    6.53    3.84
   4  -1  -9    5.01    2.46
   4  -1  -8   94.43   11.88
   4  -1  -8  100.91   10.44
   4  -1  -8  105.33   14.37
   4  -1  -7    5.57    3.51
   4  -1  -7   -0.19    1.99
   4  -1  -6   52.36    9.04
   4  -1  -5  147.41   14.48
   4  -1  -4   58.28    7.85
   4  -1  -4   68.78    9.61
   4  -1  -3    3.57    2.36
   4  -1  -3    6.52    3.20
   4  -1  -2  804.26   30.68
   4  -1  -2  767.36   28.64
   4  -1  -1  523.75   20.25
   4  -1  -1  540.19   25.00
   4  -1  -1  530.89   22.32
   4  -1   0  656.93   25.16
   4  -1   0  693.19   24.18
   4  -1   0  693.60   28.35
   4  -1   1  348.77   15.94
   4  -1   1  344.00   19.59
   4  -1   1  338.60   20.20
   4  -1   2  295.29   14.47
   4  -1   2  274.75   17.14
   4  -1   2  330.91   20.63
   4  -1   2  310.96   19.73
   4  -1   3 2085.44   49.48
   4  -1   3 2039.70   37.70
   4  -1   4    7.39    2.87
   4  -1   4    8.24    2.52
   4  -1   5  935.58   36.51
   4  -1   5 1019.99   43.40
   4  -1   5  915.22   31.91
   4  -1   5 1015.48   29.13
   4  -1   6   71.50   10.77
   4  -1   6   73.07    8.92
   4  -1   7  806.86   37.66
   4  -1   7  739.56   27.97
   4  -1   8  379.68   27.40
   4  -1   8  384.72   19.91
   4  -1   9  911.05   44.52
   4  -1   9  874.09   29.14
   4  -1   9  915.16   25.89
   4  -1  10  511.98   35.49
   4  -1  10  489.16   17.91
   4  -1  11  478.57   36.13
   4  -1  12  805.81   49.42
   4   0 -15   -1.27    6.26
   4   0 -14   15.79    8.37
   4   0 -13   89.78   18.12
   4   0 -12   38.14   11.60
   4   0 -11  623.88   42.03
   4   0 -10   39.70   10.36
   4   0 -10   53.34    7.40
   4   0  -9  327.48   16.48
   4   0  -9  384.81   29.70
   4   0  -8   20.42    6.62
   4   0  -7  772.22   34.22
   4   0  -7  757.68   37.90
   4   0  -6  460.30   25.38
   4   0  -6  435.89   27.21
   4   0  -5 1622.40   50.01
   4   0  -4 1490.16   45.85
   4   0  -4 1485.14   46.04
   4   0  -3 1887.29   47.48
   4   0  -3 1773.79   29.08
   4   0  -3 1820.41   48.97
   4   0  -3 1876.12   48.99
   4   0  -2 2373.67   40.11
   4   0  -2 2489.55   53.74
   4   0  -2 2403.50   54.73
   4   0  -1  451.66   19.58
   4   0  -1  467.97   22.10
   4   0  -1  436.91   23.13
   4   0   0 2829.02   53.82
   4   0   0 2893.36   52.69
   4   0   0 2861.24   59.23
   4   0   1    9.34    3.01
   4   0   1    8.01    3.14
   4   0   1   12.31    4.13
   4   0   2 4348.95   61.73
   4   0   2 4356.83   77.74
   4   0   2 4392.14   75.64
   4   0   3    4.90    2.85
   4   0   3    4.11    2.55
   4   0   3    0.51    1.75
   4   0   3    4.94    2.53
   4   0   4 2621.40   61.31
   4   0   4 2546.18   48.91
   4   0   5   73.85   10.70
   4   0   5  107.89   16.43
   4   0   5   86.34    9.35
   4   0   6 3484.19   76.74
   4   0   6 3530.99   63.54
   4   0   7  304.90   23.85
   4   0   7  288.47   16.34
   4   0   8 1411.32   53.48
   4   0   8 1351.82   33.42
   4   0   9  268.85   24.58
   4   0   9  298.51   14.39
   4   0   9  334.24   12.98
   4   0  10  665.96   40.98
   4   0  11  141.06   19.98
   4   0  12  278.41   29.38
   4   1 -14  703.19   52.84
   4   1 -13   -3.02    3.60
   4   1 -12  954.37   56.37
   4   1 -11   26.36    9.28
   4   1 -10  939.60   50.50
   4   1  -9  155.19   19.55
   4   1  -8 3629.71   90.15
   4   1  -7  860.65   38.25
   4   1  -7  786.30   39.88
   4   1  -6 1597.48   49.93
   4   1  -6 1500.87   51.91
   4   1  -6 1470.25   52.18
   4   1  -5  974.96   38.31
   4   1  -5  924.63   39.54
   4   1  -5  959.89   39.79
   4   1  -4  720.84   17.50
   4   1  -4  721.34   32.86
   4   1  -4  680.11   32.74
   4   1  -3 1002.10   24.98
   4   1  -3 1025.26   37.71
   4   1  -3  991.17   37.92
   4   1  -2 1106.82   30.02
   4   1  -2 1155.02   38.42
   4   1  -2 1098.80   38.81
   4   1  -1 2249.28   47.36
   4   1  -1 2276.11   51.69
   4   1  -1 2242.97   54.38
   4   1   0  348.67   20.17
   4   1   0  322.81   18.95
   4   1   0  333.13   20.98
   4   1   1 1945.28   46.01
   4   1   1 1967.28   51.41
   4   1   1 1844.79   49.46
   4   1   2  333.07   18.89
   4   1   2  295.70   21.24
   4   1   2  321.45   20.93
   4   1   3  564.41   30.96
   4   1   3  544.19   27.65
   4   1   3  583.40   25.22
   4   1   4   24.98    6.47
   4   1   4   28.18    5.73
   4   1   4   21.10    6.20
   4   1   5   63.07   10.31
   4   1   5   63.51   11.40
   4   1   5   79.80    9.88
   4   1   6   22.98    5.64
   4   1   6   20.35    5.89
   4   1   7    9.28    4.48
   4   1   7    7.65    2.66
   4   1   8   67.93   11.98
   4   1   8   71.59    6.91
   4   1   9   14.67    6.15
   4   1  10   68.80   13.53
   4   1  11   42.75   11.22
   4   1  12  137.43   21.23
   4   2 -14  110.13   21.64
   4   2 -13  634.84   49.22
   4   2 -12   32.84   10.88
   4   2 -11  587.23   43.26
   4   2 -10   -1.02    4.58
   4   2  -9  142.98   19.15
   4   2  -8   22.96    7.22
   4   2  -7   81.94   13.33
   4   2  -6   32.51    7.83
   4   2  -6   18.88    2.31
   4   2  -6   25.39    6.99
   4   2  -6   23.88    6.66
   4   2  -5   41.98    8.54
   4   2  -5   47.71    9.07
   4   2  -5   49.81    9.67
   4   2  -5   29.98    3.97
   4   2  -4   -0.89    1.94
   4   2  -4    5.73    3.19
   4   2  -4    2.65    1.60
   4   2  -4    1.59    1.90
   4   2  -3    7.83    3.77
   4   2  -3    0.90    1.52
   4   2  -3    0.49    1.96
   4   2  -3    5.91    2.44
   4   2  -2   42.34    7.71
   4   2  -2   32.63    6.01
   4   2  -2   34.67    7.21
   4   2  -1    2.76    1.98
   4   2  -1    4.33    2.90
   4   2  -1    1.54    2.57
   4   2   0 1961.11   51.53
   4   2   0 2004.66   50.60
   4   2   0 1983.78   52.73
   4   2   1  481.40   24.55
   4   2   1  467.93   26.72
   4   2   1  463.36   25.51
   4   2   2  672.82   29.08
   4   2   2  663.70   33.74
   4   2   2  639.16   29.99
   4   2   3    7.03    3.59
   4   2   3   12.11    5.23
   4   2   3    6.99    2.98
   4   2   4 1208.58   46.12
   4   2   4 1241.78   50.65
   4   2   4 1305.73   41.81
   4   2   5   51.63    9.82
   4   2   5   41.54    7.57
   4   2   6 1166.43   48.08
   4   2   7   43.09    9.77
   4   2   8  928.49   46.18
   4   2   8  916.78   23.20
   4   2   8  876.72   15.85
   4   2   9  356.44   30.07
   4   2  10  516.06   37.91
   4   2  11  232.19   26.70
   4   3 -13    0.36    4.29
   4   3 -12  243.59   29.98
   4   3 -11   16.85    8.25
   4   3 -10  608.69   42.58
   4   3  -9   89.81   15.71
   4   3  -8  326.49   28.74
   4   3  -7    3.50    2.09
   4   3  -7    6.44    4.50
   4   3  -6 1287.37   29.63
   4   3  -6 1423.07   55.00
   4   3  -5 1212.13   48.51
   4   3  -5 1086.73   44.58
   4   3  -5 1083.96   30.14
   4   3  -5 1118.48   45.32
   4   3  -5 1121.18   46.62
   4   3  -4 1222.64   48.28
   4   3  -4 1150.03   44.02
   4   3  -4 1107.49   33.13
   4   3  -4 1163.76   44.72
   4   3  -4 1190.24   46.47
   4   3  -3 1359.41   39.06
   4   3  -3 1445.73   48.83
   4   3  -3 1406.60   48.85
   4   3  -2  617.89   28.11
   4   3  -2  608.43   30.54
   4   3  -2  572.53   30.24
   4   3  -1 1270.39   42.87
   4   3  -1 1337.91   45.88
   4   3   0  147.50   14.79
   4   3   0  143.45   15.25
   4   3   0  163.50   15.86
   4   3   1 2380.04   58.75
   4   3   1 2309.90   63.58
   4   3   1 2325.68   58.40
   4   3   2   33.36    7.19
   4   3   2   32.23    8.71
   4   3   2   29.69    6.59
   4   3   3 2091.61   66.21
   4   3   3 2137.92   56.94
   4   3   3 2095.44   55.76
   4   3   4   76.99   12.36
   4   3   5 1674.87   58.82
   4   3   6  301.47   25.66
   4   3   7 1036.00   48.94
   4   3   7 1046.02   22.55
   4   3   8  384.86   30.78
   4   3   9  301.49   28.61
   4   3  10  632.43   43.04
   4   3  11  347.65   33.11
   4   4 -13  383.56   40.08
   4   4 -12   -2.52    4.34
   4   4 -11  789.30   52.42
   4   4 -10   12.65    6.31
   4   4  -9  829.05   21.30
   4   4  -9  849.02   49.66
   4   4  -8  411.71   33.13
   4   4  -7  929.47   47.60
   4   4  -6  825.06   43.23
   4   4  -5  390.01   28.65
   4   4  -4 1221.55   48.72
   4   4  -3  398.48   26.26
   4   4  -3  438.23   25.05
   4   4  -3  461.06   29.06
   4   4  -2 1431.55   47.70
   4   4  -2 1479.52   50.33
   4   4  -2 1394.59   39.26
   4   4  -2 1459.72   50.27
   4   4  -1  156.86   16.62
   4   4  -1  125.35   14.52
   4   4  -1  150.44   14.44
   4   4  -1  102.88   13.74
   4   4   0 2108.76   62.03
   4   4   0 2114.78   57.52
   4   4   0 2123.02   58.46
   4   4   1    2.22    2.00
   4   4   1    0.51    2.77
   4   4   1    6.78    4.08
   4   4   2 1260.04   49.81
   4   4   2 1223.92   43.54
   4   4   3   87.02   11.75
   4   4   3   69.01   12.42
   4   4   4  550.83   34.24
   4   4   4  578.69   23.75
   4   4   5   66.69   12.17
   4   4   5   60.83    7.23
   4   4   6  553.08   36.04
   4   4   6  554.38   19.96
   4   4   7    2.33    2.03
   4   4   8  178.54   21.91
   4   4   9   -0.62    2.33
   4   4  10   16.52    7.16
   4   5 -12  526.76   45.89
   4   5 -11  191.30   26.29
   4   5 -10  370.60   35.16
   4   5  -9  122.78   19.27
   4   5  -8  171.95   22.17
   4   5  -7   75.46   14.32
   4   5  -6  426.60   32.09
   4   5  -5  373.73   29.08
   4   5  -4   48.54   10.23
   4   5  -4   65.62    7.77
   4   5  -3   14.92    6.12
   4   5  -3   18.56    4.99
   4   5  -2    4.41    4.03
   4   5  -2    2.39    3.65
   4   5  -2    4.09    3.50
   4   5  -2    3.49    3.51
   4   5  -1    9.20    5.29
   4   5  -1   14.91    5.25
   4   5  -1   11.44    4.53
   4   5   0   24.75    6.63
   4   5   0   17.89    6.20
   4   5   0   19.14    5.16
   4   5   1   41.57    8.26
   4   5   1   38.63    8.87
   4   5   1   46.68    7.98
   4   5   2   52.93    9.04
   4   5   2   59.78   12.12
   4   5   2   65.55    9.09
   4   5   3  186.42   21.54
   4   5   3  190.49   17.53
   4   5   3  218.27   16.15
   4   5   4  217.85   22.58
   4   5   4  229.80   25.04
   4   5   4  255.11   16.69
   4   5   5  460.37   33.77
   4   5   5  391.81   33.84
   4   5   5  435.08   20.66
   4   5   6  140.74   19.38
   4   5   7  491.35   36.50
   4   5   8  293.50   28.76
   4   5   9  392.15   34.43
   4   5  10  299.23   31.17
   4   6 -11    5.50    5.77
   4   6 -10   26.12   10.16
   4   6  -9   88.43   17.43
   4   6  -8   85.51   16.88
   4   6  -7  126.81   18.71
   4   6  -6  239.18   11.72
   4   6  -6  283.88   27.28
   4   6  -5  341.64   17.70
   4   6  -5  340.90   28.73
   4   6  -4  857.10   32.19
   4   6  -4  806.28   42.87
   4   6  -3  107.60   15.25
   4   6  -3   99.53   12.23
   4   6  -2 1157.81   44.55
   4   6  -2 1257.43   49.86
   4   6  -1   52.06   10.03
   4   6  -1   50.03   10.07
   4   6   0 1395.26   54.86
   4   6   0 1457.41   51.39
   4   6   1    4.44    2.84
   4   6   1   13.55    5.91
   4   6   2 1791.59   67.94
   4   6   2 1844.88   55.73
   4   6   2 1902.29   52.37
   4   6   3   10.03    4.28
   4   6   3   10.56    5.80
   4   6   3   13.92    4.47
   4   6   4 1394.51   60.09
   4   6   4 1519.25   68.41
   4   6   5   38.83   10.52
   4   6   5   43.12   13.12
   4   6   6  581.75   40.37
   4   6   6  528.47   43.49
   4   6   7  222.85   25.49
   4   6   8  461.61   37.50
   4   6   9  278.39   30.43
   4   7 -10  605.06   47.85
   4   7  -9  297.32   32.20
   4   7  -8  484.12   39.42
   4   7  -7  496.74   38.34
   4   7  -6  610.25   41.03
   4   7  -5  428.48   23.44
   4   7  -5  471.44   34.95
   4   7  -4  259.65   20.19
   4   7  -4  300.52   26.89
   4   7  -3 1007.29   42.87
   4   7  -3 1110.89   50.16
   4   7  -2   65.68   11.69
   4   7  -2   62.92   11.32
   4   7  -1  860.79   44.12
   4   7  -1  856.82   41.34
   4   7   0    5.39    3.68
   4   7   0    9.12    5.90
   4   7   1  852.87   47.91
   4   7   1  848.64   39.26
   4   7   2   11.34    4.66
   4   7   2    7.55    5.40
   4   7   3  347.53   33.17
   4   7   3  372.66   25.19
   4   7   4  211.53   24.25
   4   7   4  250.05   29.12
   4   7   5  195.79   23.82
   4   7   5  178.40   25.55
   4   7   6   95.97   17.34
   4   7   6   61.70   15.17
   4   7   7   73.43   15.06
   4   7   7   74.30   18.32
   4   7   8  133.04   20.76
   4   8  -9  200.16   27.09
   4   8  -8  159.45   23.63
   4   8  -7   81.82   16.17
   4   8  -6  201.11   24.52
   4   8  -5   20.71    8.68
   4   8  -4  401.83   27.67
   4   8  -4  485.97   35.28
   4   8  -3    9.74    4.53
   4   8  -3    2.81    2.36
   4   8  -2  139.74   18.46
   4   8  -2  158.17   18.93
   4   8  -1   -2.03    2.32
   4   8  -1   16.68    7.07
   4   8   0   21.59    6.89
   4   8   0   22.01    8.15
   4   8   1   22.33    6.53
   4   8   1   12.70    6.70
   4   8   2    5.74    3.55
   4   8   2   11.72    7.41
   4   8   3   13.88    7.46
   4   8   4   -3.11    5.62
   4   8   4    1.26    4.79
   4   8   5   29.38   10.00
   4   8   5    9.05    6.07
   4   8   6   -3.44    4.56
   4   8   6   13.35    8.16
   4   8   7   24.05   10.61
   4   9  -8   16.85    7.39
   4   9  -7   -5.53    4.14
   4   9  -6   37.62   11.10
   4   9  -5  166.96   22.30
   4   9  -4   17.89    6.46
   4   9  -3  246.03   25.12
   4   9  -3  226.42   24.14
   4   9  -2    1.21    1.94
   4   9  -2   14.60    6.30
   4   9  -1  398.19   34.73
   4   9  -1  434.42   31.22
   4   9   0   53.65   10.54
   4   9   0   24.15    9.17
   4   9   1  368.22   36.04
   4   9   2  134.12   22.64
   4   9   3  452.82   43.30
   4   9   4  217.33   27.00
   4   9   4  298.37   36.09
   4   9   5  602.75   44.79
   4  10  -7  205.53   26.96
   4  10  -6  564.45   43.50
   4  10  -5  164.83   22.81
   4  10  -4  752.06   46.87
   4  10  -1   -3.74    5.22
   4  10   0  682.70   49.99
   4  10   1   25.44   10.62
   4  10   2  712.48   54.66
   4  10   3    7.05    6.54
   4  10   3   -6.73    9.16
   4  11   1    8.63    8.74
   5 -12  -6   69.29   15.47
   5 -12  -5    8.48    5.93
   5 -12  -5    8.74    4.72
   5 -12  -4  180.24   21.41
   5 -12  -3   -1.26    4.05
   5 -12  -2    0.80    3.83
   5 -12  -1    4.41    3.38
   5 -12   0   -4.89    4.78
   5 -12   1  154.44   20.66
   5 -12   2   64.41   14.11
   5 -11  -7   78.56   15.46
   5 -11  -6  188.89   19.94
   5 -11  -6  190.12   22.81
   5 -11  -5  293.30   25.23
   5 -11  -5  304.26   27.63
   5 -11  -4  316.65   26.53
   5 -11  -4  327.38   27.39
   5 -11  -3  234.83   21.96
   5 -11  -3  227.43   22.74
   5 -11  -2  431.87   28.23
   5 -11  -2  440.55   32.09
   5 -11  -1  112.80   16.53
   5 -11   0  646.21   39.64
   5 -11   1  141.75   18.81
   5 -11   2  512.20   36.47
   5 -11   3   34.59    9.75
   5 -11   4 1031.05   52.83
   5 -11   5   97.95   17.04
   5 -11   6  614.25   42.54
   5 -10  -8  554.12   40.28
   5 -10  -7   67.32   13.35
   5 -10  -6  590.43   40.81
   5 -10  -6  583.39   37.69
   5 -10  -5  229.63   26.11
   5 -10  -5  200.10   21.21
   5 -10  -4  222.35   25.61
   5 -10  -4  205.07   20.35
   5 -10  -3  311.27   30.98
   5 -10  -3  316.97   23.82
   5 -10  -2  351.24   33.26
   5 -10  -2  326.69   23.06
   5 -10  -1  784.20   33.37
   5 -10  -1  805.60   50.52
   5 -10   0   18.55    7.94
   5 -10   0   -0.49    1.93
   5 -10   1  929.77   55.79
   5 -10   2   21.13    8.65
   5 -10   3  426.52   31.77
   5 -10   4   -2.58    4.40
   5 -10   5  468.69   34.31
   5 -10   6   13.18    5.43
   5 -10   7  193.94   22.78
   5 -10   8   49.87   12.07
   5  -9  -9  310.49   30.23
   5  -9  -8   84.01   14.93
   5  -9  -7  117.79   16.81
   5  -9  -7  108.95   16.47
   5  -9  -6  189.08   22.08
   5  -9  -6  198.56   20.81
   5  -9  -5  235.15   24.68
   5  -9  -5  214.99   20.53
   5  -9  -4  332.68   29.66
   5  -9  -4  313.22   23.38
   5  -9  -3  133.09   19.44
   5  -9  -3  126.89   14.11
   5  -9  -2   98.30   16.62
   5  -9  -2  100.57   11.98
   5  -9  -1    5.35    4.09
   5  -9  -1    6.43    3.00
   5  -9   0   35.38   10.30
   5  -9   1  104.26    8.98
   5  -9   1  117.52   18.58
   5  -9   2    2.25    1.07
   5  -9   2    2.83    5.56
   5  -9   3  125.28   19.77
   5  -9   4    4.58    5.23
   5  -9   5    6.35    3.02
   5  -9   5    5.67    5.29
   5  -9   5    7.80    4.77
   5  -9   6  273.13   20.99
   5  -9   6  270.68   25.14
   5  -9   7  168.70   17.89
   5  -9   7  147.43   18.93
   5  -9   8   70.78   12.55
   5  -9   8   46.90   11.23
   5  -9   9  331.45   28.93
   5  -9   9  319.03   28.91
   5  -9  10  128.38   19.45
   5  -9  10  112.01   17.38
   5  -9  11  195.90   23.20
   5  -8 -10   30.11    8.88
   5  -8  -9    2.21    4.48
   5  -8  -8    1.33    3.48
   5  -8  -8   -2.53    3.79
   5  -8  -7  135.06   17.87
   5  -8  -7  126.70   16.83
   5  -8  -6    3.81    3.26
   5  -8  -6    2.42    3.65
   5  -8  -5  300.23   26.61
   5  -8  -5  284.14   22.47
   5  -8  -4   60.26    9.89
   5  -8  -4   61.37   12.29
   5  -8  -3  866.39   45.95
   5  -8  -3  876.86   35.15
   5  -8  -2   15.14    6.22
   5  -8  -2   12.38    3.86
   5  -8  -1  659.06   40.24
   5  -8   0   21.58    7.41
   5  -8   0   12.21    3.23
   5  -8   1 2097.36   36.16
   5  -8   1 2124.07   74.13
   5  -8   2   10.17    6.59
   5  -8   3 2280.02   40.84
   5  -8   3 2179.36   76.46
   5  -8   4   28.59    5.66
   5  -8   4   40.71   10.18
   5  -8   5 1134.83   38.17
   5  -8   5 1049.80   55.06
   5  -8   6  236.26   18.98
   5  -8   6  213.13   25.33
   5  -8   7 1112.23   44.94
   5  -8   7 1066.91   48.00
   5  -8   8  215.13   21.29
   5  -8   8  210.99   21.83
   5  -8   9  596.08   37.97
   5  -8   9  603.59   37.30
   5  -8  10  284.45   28.19
   5  -8  10  288.75   26.15
   5  -8  11  327.29   31.97
   5  -8  11  312.57   27.74
   5  -8  12  378.02   36.43
   5  -8  12  350.67   29.81
   5  -7 -11  394.34   34.24
   5  -7 -10  154.65   20.66
   5  -7  -9  610.45   34.35
   5  -7  -9  512.97   35.65
   5  -7  -8  354.39   26.49
   5  -7  -8  408.84   30.15
   5  -7  -7 1088.27   47.11
   5  -7  -7 1081.99   46.80
   5  -7  -7 1097.75   29.65
   5  -7  -6  767.32   39.62
   5  -7  -6  845.14   24.81
   5  -7  -6  776.88   37.82
   5  -7  -5 1054.43   47.19
   5  -7  -5 1143.66   28.50
   5  -7  -5 1084.90   42.23
   5  -7  -4  843.90   42.52
   5  -7  -4  854.94   35.08
   5  -7  -3  407.89   29.60
   5  -7  -3  350.94   21.10
   5  -7  -2 2542.37   74.70
   5  -7  -1  795.86   41.95
   5  -7   0 1786.81   63.19
   5  -7   0 1714.99   34.64
   5  -7   1   72.00   13.03
   5  -7   1   73.71    6.01
   5  -7   2  629.18   17.18
   5  -7   2  652.77   39.04
   5  -7   3    4.65    2.06
   5  -7   3    6.53    4.18
   5  -7   4  754.95   27.39
   5  -7   4  731.41   42.32
   5  -7   5   14.49    4.20
   5  -7   5   19.85    7.12
   5  -7   6  693.54   31.96
   5  -7   6  612.46   40.44
   5  -7   7  236.44   20.32
   5  -7   7  230.14   25.55
   5  -7   8   86.30   13.42
   5  -7   8  100.69   14.40
   5  -7   9   95.03   14.75
   5  -7   9  110.81   15.19
   5  -7  10   46.29   11.31
   5  -7  10   34.24    8.72
   5  -7  11   41.34   11.54
   5  -7  11   34.25    9.51
   5  -7  12    3.88    5.24
   5  -7  12    5.59    3.93
   5  -6 -11    0.44    2.42
   5  -6  -9   34.45    6.99
   5  -6  -9   34.89    7.74
   5  -6  -8  712.65   36.04
   5  -6  -8  665.09   29.26
   5  -6  -7  309.29   17.96
   5  -6  -7  294.16   23.47
   5  -6  -7  286.73   18.43
   5  -6  -6  220.61   13.17
   5  -6  -6  235.81   21.19
   5  -6  -6  243.16   16.18
   5  -6  -5  200.11   10.21
   5  -6  -5  229.87   21.03
   5  -6  -5  192.54   13.91
   5  -6  -4  268.85   22.93
   5  -6  -4  257.82   15.83
   5  -6  -3  195.85   19.67
   5  -6  -3  199.31   14.16
   5  -6  -2    2.85    3.05
   5  -6  -1   67.36   11.54
   5  -6   0    4.26    1.95
   5  -6   0    4.40    3.38
   5  -6   1  206.80    7.65
   5  -6   1  211.68    9.18
   5  -6   2  161.13    9.29
   5  -6   2  172.08   19.18
   5  -6   3   49.51    6.20
   5  -6   3   39.18    9.61
   5  -6   4   24.69    4.91
   5  -6   4   32.07    8.94
   5  -6   5    3.08    2.34
   5  -6   5   -0.09    2.50
   5  -6   6    2.23    1.89
   5  -6   6    4.20    3.79
   5  -6   7   74.48   11.35
   5  -6   7   72.22   13.27
   5  -6   8    3.27    3.45
   5  -6   8    2.64    3.54
   5  -6   9    4.37    3.31
   5  -6   9   11.71    4.68
   5  -6  10   62.40   12.63
   5  -6  10   70.01   11.76
   5  -6  11   -2.24    4.41
   5  -6  11   -2.64    2.88
   5  -6  12  117.56   19.64
   5  -5 -11   -3.60    3.14
   5  -5 -10    8.10    4.37
   5  -5 -10    3.35    1.63
   5  -5  -9   -0.13    2.14
   5  -5  -9    4.38    3.47
   5  -5  -9    5.23    3.64
   5  -5  -8    0.91    1.90
   5  -5  -8    4.48    2.52
   5  -5  -8    2.84    2.90
   5  -5  -7   20.39    5.55
   5  -5  -7   17.44    5.57
   5  -5  -6    2.83    1.75
   5  -5  -6   -0.42    1.92
   5  -5  -6   -0.04    1.71
   5  -5  -5    1.47    1.09
   5  -5  -5    1.85    1.89
   5  -5  -5    2.20    1.79
   5  -5  -4   33.72    3.94
   5  -5  -4   29.80    5.99
   5  -5  -4   27.08    6.74
   5  -5  -3   59.21    3.93
   5  -5  -3   62.04    8.37
   5  -5  -3   65.73   11.01
   5  -5  -2  149.99   16.42
   5  -5  -2  140.31   12.50
   5  -5  -1    0.74    1.56
   5  -5  -1    3.94    3.92
   5  -5   0  352.58    9.97
   5  -5   0  336.71   24.93
   5  -5   1   57.06    5.20
   5  -5   1   62.32    5.65
   5  -5   2 1561.38   31.83
   5  -5   2 1566.99   54.33
   5  -5   3  347.42   17.15
   5  -5   3  327.72   25.09
   5  -5   4  788.02   28.70
   5  -5   4  730.69   38.09
   5  -5   5  412.02   22.78
   5  -5   5  408.03   28.92
   5  -5   6  538.30   27.99
   5  -5   6  556.87   33.83
   5  -5   7 1060.17   42.41
   5  -5   7  954.01   45.36
   5  -5   8  706.71   37.07
   5  -5   8  675.76   38.51
   5  -5   9 1016.25   47.54
   5  -5   9  919.16   46.01
   5  -5   9  991.33   40.22
   5  -5  10  148.87   19.29
   5  -5  10  154.54   16.15
   5  -5  11 1064.36   54.84
   5  -5  11  945.22   40.14
   5  -5  12   99.17   17.44
   5  -4 -12  195.01   22.21
   5  -4 -11  273.33   25.25
   5  -4 -10  104.56   14.81
   5  -4  -9  179.06   16.49
   5  -4  -9  166.74   17.79
   5  -4  -8  284.95   19.28
   5  -4  -8  282.71   22.23
   5  -4  -7  603.28   30.64
   5  -4  -6  387.80   19.00
   5  -4  -6  373.58   23.20
   5  -4  -5 2368.66   42.17
   5  -4  -5 2478.71   58.03
   5  -4  -4  169.58   10.14
   5  -4  -4  179.79   15.29
   5  -4  -3 2783.00   37.70
   5  -4  -3 2844.81   59.37
   5  -4  -2   14.87    4.34
   5  -4  -2   17.66    2.94
   5  -4  -1 3620.14   67.68
   5  -4   0   21.99    5.60
   5  -4   0   18.75    3.28
   5  -4   0   19.65    3.88
   5  -4   1 3066.64   45.10
   5  -4   1 3031.53   71.78
   5  -4   1 3075.07   42.01
   5  -4   2  137.19   10.48
   5  -4   2  156.78    7.64
   5  -4   2  167.96   17.18
   5  -4   3 3056.72   53.75
   5  -4   3 3149.77   73.56
   5  -4   3 2929.87   25.20
   5  -4   4  489.19   23.51
   5  -4   4  545.63   31.05
   5  -4   5 1947.76   50.68
   5  -4   5 1976.02   59.88
   5  -4   6  506.05   28.03
   5  -4   6  478.35   29.98
   5  -4   7 1022.62   42.18
   5  -4   7  992.72   43.21
   5  -4   8  346.43   26.15
   5  -4   8  342.27   25.61
   5  -4   9  238.14   23.24
   5  -4   9  235.86   21.72
   5  -4  10  446.04   33.44
   5  -4  10  467.13   26.28
   5  -4  11  130.82   19.10
   5  -4  11  139.28   14.33
   5  -4  12  160.02   23.00
   5  -3 -14   71.45   15.19
   5  -3 -13  503.37   39.20
   5  -3 -12   68.73   13.96
   5  -3 -11 1209.19   55.31
   5  -3 -10  415.93   30.82
   5  -3  -9  982.09   45.42
   5  -3  -8  972.53   36.59
   5  -3  -8  981.64   43.19
   5  -3  -7  926.89   33.33
   5  -3  -7  976.94   41.19
   5  -3  -6 1218.17   43.75
   5  -3  -5  371.96   18.57
   5  -3  -5  376.80   23.54
   5  -3  -4 1286.85   32.74
   5  -3  -4 1279.50   42.15
   5  -3  -3  465.84   19.07
   5  -3  -3  485.36   25.62
   5  -3  -2 1411.68   33.73
   5  -3  -2 1468.28   44.27
   5  -3  -1  142.66   13.74
   5  -3  -1  141.32   12.05
   5  -3   0  930.93   35.83
   5  -3   0  879.81   27.40
   5  -3   1   34.73    6.92
   5  -3   1   32.35    5.30
   5  -3   1   39.22    5.17
   5  -3   2  605.49   24.32
   5  -3   2  595.53   18.20
   5  -3   3    2.78    1.85
   5  -3   3    1.56    2.09
   5  -3   3    2.22    0.94
   5  -3   4   13.47    2.51
   5  -3   4   12.92    4.20
   5  -3   4   13.09    5.08
   5  -3   5    4.72    3.03
   5  -3   5    9.09    4.08
   5  -3   6    2.47    2.53
   5  -3   6    2.18    2.72
   5  -3   7   58.82   10.29
   5  -3   7   66.39   10.55
   5  -3   8   13.62    5.08
   5  -3   8   15.85    5.24
   5  -3   9   70.58   12.90
   5  -3   9   81.99   11.73
   5  -3  10   22.66    8.05
   5  -3  10   14.39    4.57
   5  -3  11  175.38   22.35
   5  -3  12    2.43    3.04
   5  -2 -15   29.63   10.99
   5  -2 -14  335.60   34.69
   5  -2 -13   11.98    5.88
   5  -2 -12  281.29   28.64
   5  -2 -11   38.39   10.46
   5  -2 -10   11.51    6.03
   5  -2  -9    1.28    3.62
   5  -2  -8  210.70   17.76
   5  -2  -8  202.94   20.44
   5  -2  -7    0.70    1.68
   5  -2  -7   -0.28    1.61
   5  -2  -6   -0.85    1.71
   5  -2  -6    8.81    4.19
   5  -2  -5   -0.52    1.64
   5  -2  -4   22.20    4.93
   5  -2  -4   33.14    7.04
   5  -2  -3  210.68   14.90
   5  -2  -3  187.89   16.40
   5  -2  -2  178.93   15.89
   5  -2  -2  148.50   13.49
   5  -2  -1  262.34   19.36
   5  -2  -1  263.30   16.98
   5  -2   0   13.64    3.48
   5  -2   0   15.58    4.40
   5  -2   1  615.59   22.57
   5  -2   1  640.52   29.49
   5  -2   1  650.40   31.20
   5  -2   2   25.21    6.15
   5  -2   2   27.79    5.64
   5  -2   2   31.57    7.28
   5  -2   2   22.90    4.23
   5  -2   3  509.11   25.33
   5  -2   3  448.93   28.08
   5  -2   3  447.64   17.80
   5  -2   4  157.21   14.66
   5  -2   4  137.79   16.46
   5  -2   4  152.04   10.48
   5  -2   5  421.96   25.45
   5  -2   5  433.40   25.61
   5  -2   5  435.26   18.57
   5  -2   6  669.70   33.67
   5  -2   6  709.65   32.58
   5  -2   7  368.15   26.21
   5  -2   7  341.21   22.55
   5  -2   8 1146.20   49.00
   5  -2   8 1061.93   39.56
   5  -2   9  209.65   22.14
   5  -2   9  195.08   16.88
   5  -2  10  662.54   41.29
   5  -2  10  459.13   21.69
   5  -2  11   50.32   11.93
   5  -2  12  706.43   47.27
   5  -1 -14    4.20    7.30
   5  -1 -13  100.16   18.51
   5  -1 -12   30.23   10.22
   5  -1 -11   80.68   15.69
   5  -1 -10  109.10   17.13
   5  -1  -9  191.46   21.50
   5  -1  -8  359.22   27.95
   5  -1  -7  565.76   29.19
   5  -1  -7  538.01   32.79
   5  -1  -6  799.39   33.62
   5  -1  -6  729.32   36.68
   5  -1  -5    0.52    1.12
   5  -1  -5  295.69   22.49
   5  -1  -4 1401.43   47.16
   5  -1  -4 1357.80   46.83
   5  -1  -3  109.50   12.92
   5  -1  -3   90.54   11.44
   5  -1  -2 2184.82   57.19
   5  -1  -2 2192.99   53.72
   5  -1  -1  205.48   14.60
   5  -1  -1  197.54   15.35
   5  -1  -1  216.69   18.06
   5  -1   0 2584.62   56.11
   5  -1   0 2621.49   53.51
   5  -1   0 2639.95   62.74
   5  -1   1  333.58   18.04
   5  -1   1  336.61   21.73
   5  -1   1  358.38   23.53
   5  -1   2 3014.81   52.85
   5  -1   2 3026.36   68.74
   5  -1   2 3066.11   70.05
   5  -1   3 1336.06   43.73
   5  -1   3 1348.46   48.78
   5  -1   3 1308.57   34.56
   5  -1   4 1709.86   51.36
   5  -1   4 1714.95   57.77
   5  -1   4 1722.04   40.02
   5  -1   5 1925.22   56.67
   5  -1   5 1876.73   42.90
   5  -1   6 1211.98   46.67
   5  -1   6 1185.32   40.59
   5  -1   6 1208.31   36.24
   5  -1   7 1070.70   46.48
   5  -1   7 1093.47   38.42
   5  -1   8  631.36   37.34
   5  -1   8  595.17   28.03
   5  -1   9  929.30   47.57
   5  -1   9  942.38   33.72
   5  -1  10   91.99   15.93
   5  -1  11  970.17   53.63
   5  -1  12   38.85   11.26
   5   0 -14  249.36   31.57
   5   0 -13   93.23   18.84
   5   0 -12  409.57   37.24
   5   0 -11  385.90   34.87
   5   0 -10 1185.79   57.91
   5   0  -9  846.43   46.50
   5   0  -8   77.13   13.68
   5   0  -7 1669.16   59.86
   5   0  -6  248.51   19.98
   5   0  -6  253.98   22.51
   5   0  -5 2828.55   66.59
   5   0  -5 2898.14   73.27
   5   0  -5 2680.77   70.17
   5   0  -4   43.10    8.12
   5   0  -4   50.47    9.23
   5   0  -3 3272.63   48.61
   5   0  -3 3327.89   71.70
   5   0  -3 3357.69   74.21
   5   0  -2    3.33    2.97
   5   0  -2    0.82    1.45
   5   0  -2    3.95    2.34
   5   0  -1 3404.92   61.62
   5   0  -1 3495.84   67.74
   5   0  -1 3509.76   74.35
   5   0   0   20.43    5.92
   5   0   0   21.61    5.15
   5   0   0   27.38    6.22
   5   0   1 1568.16   42.30
   5   0   1 1616.62   49.07
   5   0   1 1546.42   49.91
   5   0   2  231.76   16.08
   5   0   2  204.01   18.99
   5   0   2  231.34   19.55
   5   0   3 1264.97   45.15
   5   0   3 1193.94   47.31
   5   0   3 1281.53   46.58
   5   0   3 1290.20   37.84
   5   0   4   37.98    8.26
   5   0   4   48.86    7.62
   5   0   4   32.87    8.02
   5   0   5  661.97   34.68
   5   0   5  672.58   28.39
   5   0   6    6.36    3.20
   5   0   6   -0.59    2.53
   5   0   7    3.26    3.69
   5   0   7    8.32    3.79
   5   0   8   29.49    8.55
   5   0   8   30.38    5.97
   5   0   9   32.70    9.39
   5   0  10   66.55   13.92
   5   0  11    9.51    6.07
   5   1 -14   73.88   18.01
   5   1 -13  386.35   38.85
   5   1 -12  150.78   23.54
   5   1 -11  394.00   36.09
   5   1 -10  316.06   30.96
   5   1  -9  307.83   29.04
   5   1  -8  140.64   18.67
   5   1  -7  263.76   24.69
   5   1  -6  360.01   27.70
   5   1  -5  149.10   16.28
   5   1  -5  102.52    6.31
   5   1  -5  129.77   16.00
   5   1  -4   44.78    8.94
   5   1  -4   64.14    6.47
   5   1  -4   67.68   11.28
   5   1  -4   67.56   10.98
   5   1  -3   58.57   10.18
   5   1  -3   55.86    9.63
   5   1  -3   60.40    7.27
   5   1  -3   69.66   11.53
   5   1  -2  136.44   12.13
   5   1  -2  135.25   14.42
   5   1  -2  153.31   16.09
   5   1  -1   19.79    6.18
   5   1  -1   10.28    3.33
   5   1  -1   11.20    3.77
   5   1   0   39.70    8.33
   5   1   0   28.39    6.50
   5   1   0   37.58    7.52
   5   1   1  474.26   25.19
   5   1   1  533.56   29.46
   5   1   1  482.00   28.19
   5   1   2  577.38   27.43
   5   1   2  554.08   31.79
   5   1   2  537.18   30.33
   5   1   3  171.64   18.59
   5   1   3  185.38   17.93
   5   1   3  170.83   14.88
   5   1   4 1133.75   46.45
   5   1   4 1192.26   40.26
   5   1   5  245.14   22.19
   5   1   5  232.90   18.20
   5   1   6  357.26   27.64
   5   1   7  466.68   32.95
   5   1   8  194.22   21.82
   5   1   8  189.91   14.08
   5   1   9  585.64   39.62
   5   1  10  103.90   17.45
   5   1  11  395.02   35.46
   5   2 -13   79.38   18.13
   5   2 -12    7.93    4.80
   5   2 -11   37.09   12.21
   5   2 -10   56.12   13.87
   5   2  -9  122.17   18.91
   5   2  -8  195.52   22.90
   5   2  -7  647.16   39.77
   5   2  -6   52.36    4.31
   5   2  -6   60.71   11.91
   5   2  -5 1055.29   26.25
   5   2  -5 1114.95   48.51
   5   2  -4   62.71   11.59
   5   2  -4   59.88   11.04
   5   2  -4   44.60    6.31
   5   2  -3 2068.49   47.40
   5   2  -3 2157.90   61.90
   5   2  -3 2065.62   62.92
   5   2  -2    3.07    3.05
   5   2  -2   14.56    5.72
   5   2  -2    9.53    5.21
   5   2  -1 2240.95   57.60
   5   2  -1 2344.47   61.32
   5   2  -1 2169.44   62.01
   5   2   0   28.34    6.50
   5   2   0   20.95    6.02
   5   2   0   18.56    5.90
   5   2   1 1616.31   49.28
   5   2   1 1586.57   53.77
   5   2   1 1574.70   52.15
   5   2   2  267.20   19.95
   5   2   2  246.08   22.16
   5   2   2  245.25   20.80
   5   2   3 1215.10   46.94
   5   2   3 1313.21   44.46
   5   2   4  673.38   37.20
   5   2   5  321.08   26.68
   5   2   6 1089.65   50.11
   5   2   7  266.39   25.56
   5   2   8  848.11   47.34
   5   2   9    7.52    5.25
   5   2  10  688.58   45.97
   5   3 -12  103.34   20.42
   5   3 -11  280.74   32.20
   5   3 -10  434.42   37.99
   5   3  -9  323.85   31.61
   5   3  -8 1140.60   56.87
   5   3  -7  111.24    7.15
   5   3  -7  125.64   17.91
   5   3  -6 1380.32   31.93
   5   3  -6 1445.94   59.43
   5   3  -5  101.58   10.01
   5   3  -5  115.24   16.54
   5   3  -4 1296.81   38.81
   5   3  -4 1368.74   53.98
   5   3  -3   71.54   12.59
   5   3  -3   74.82   10.17
   5   3  -2 1642.85   50.14
   5   3  -2 1633.75   56.15
   5   3  -1  373.39   25.38
   5   3  -1  314.55   24.40
   5   3   0  897.71   41.28
   5   3   0  924.35   41.30
   5   3   1  712.52   38.05
   5   3   1  744.27   36.77
   5   3   2  896.06   40.71
   5   3   3  808.69   38.74
   5   3   4  416.29   30.64
   5   3   5  668.79   39.91
   5   3   6   54.18   11.39
   5   3   7  335.10   29.71
   5   3   8   36.13    9.95
   5   3   9  319.24   31.28
   5   3  10   50.97   13.18
   5   4 -12  132.49   23.42
   5   4 -11  365.00   37.48
   5   4 -10  151.90   23.41
   5   4  -9  801.08   50.66
   5   4  -8   64.62   14.35
   5   4  -7  580.87   22.72
   5   4  -7  558.39   39.46
   5   4  -6    5.23    5.52
   5   4  -6    3.85    2.65
   5   4  -5  416.48   23.44
   5   4  -5  464.29   33.53
   5   4  -4   15.35    5.49
   5   4  -4   25.98    6.44
   5   4  -3  600.00   31.52
   5   4  -3  675.42   38.19
   5   4  -2   18.25    6.23
   5   4  -2   20.03    6.65
   5   4  -1  213.53   20.61
   5   4  -1  213.33   20.78
   5   4   0    2.56    2.19
   5   4   0    3.14    2.79
   5   4   1   -0.48    1.73
   5   4   2    3.36    2.29
   5   4   3   32.63    7.80
   5   4   4   92.54   13.62
   5   4   4   68.68   12.92
   5   4   5    7.54    4.74
   5   4   6  247.10   26.06
   5   4   7    4.16    3.66
   5   4   8  306.43   30.61
   5   4   9    2.81    4.35
   5   5 -11   20.22    8.84
   5   5 -10    6.94    6.13
   5   5  -9   11.70    5.99
   5   5  -8   79.35   15.84
   5   5  -7    6.16    4.23
   5   5  -6  116.59   13.23
   5   5  -6  134.93   19.56
   5   5  -5   34.59    9.74
   5   5  -5   27.98    7.06
   5   5  -4  632.04   34.09
   5   5  -4  645.49   39.66
   5   5  -3   49.41   10.68
   5   5  -3   49.73   10.12
   5   5  -2  783.16   40.89
   5   5  -2  824.81   42.69
   5   5  -1  210.82   21.06
   5   5   0  916.90   43.25
   5   5   1  567.84   34.00
   5   5   2  674.19   36.47
   5   5   3  464.65   30.41
   5   5   3  502.59   26.66
   5   5   4  641.43   41.62
   5   5   4  739.08   31.16
   5   5   5 1022.96   53.92
   5   5   6  262.91   28.13
   5   5   7  892.33   52.05
   5   5   8   77.11   15.79
   5   6 -10  178.03   26.22
   5   6  -9  526.01   43.48
   5   6  -8  108.43   18.89
   5   6  -7 1062.37   58.11
   5   6  -6    6.54    4.66
   5   6  -5 1307.76   52.08
   5   6  -5 1380.78   61.58
   5   6  -4    7.05    5.31
   5   6  -3 1151.05   53.63
   5   6  -2   63.13   12.29
   5   6  -2   42.90    8.54
   5   6  -1 1079.50   47.00
   5   6  -1 1252.48   53.17
   5   6   0  196.37   21.27
   5   6   0  214.70   21.75
   5   6   1  541.64   37.25
   5   6   1  630.89   36.58
   5   6   2  476.88   36.48
   5   6   2  569.72   34.21
   5   6   3  254.60   22.94
   5   6   4  393.32   34.17
   5   6   5   24.63    8.22
   5   6   6  384.58   34.90
   5   6   7    8.43    6.84
   5   7  -9   29.89    9.88
   5   7  -8  431.35   39.11
   5   7  -7    2.01    2.69
   5   7  -6  371.72   34.17
   5   7  -5    1.22    3.20
   5   7  -4  302.36   28.96
   5   7  -3   74.73   14.13
   5   7  -3   65.97   11.01
   5   7  -2  119.07   15.92
   5   7  -2  132.54   18.37
   5   7  -1  188.43   21.22
   5   7  -1  219.54   22.93
   5   7   0   80.75   13.79
   5   7   0   81.27   14.70
   5   7   1   98.92   14.85
   5   7   1   67.28   14.04
   5   7   2   14.52    6.18
   5   7   2    1.89    4.40
   5   7   3    8.82    4.99
   5   7   3   -1.70    6.71
   5   7   4   88.44   17.08
   5   7   5   13.99    7.32
   5   7   6   -2.12    5.22
   5   8  -8    1.04    3.49
   5   8  -7    7.97    6.13
   5   8  -6   20.74    8.83
   5   8  -5    0.06    3.19
   5   8  -4   13.08    7.44
   5   8  -3   67.38   13.86
   5   8  -2  107.74   16.90
   5   8  -2   79.31   14.28
   5   8  -1   45.83   10.81
   5   8  -1   62.30   13.27
   5   8   0  143.89   18.66
   5   8   0  147.68   21.15
   5   8   1  108.19   15.81
   5   8   1   88.62   17.12
   5   8   2  403.18   38.04
   5   8   2  441.05   30.99
   5   8   3   98.20   19.51
   5   8   4  596.42   45.19
   5   8   4  526.76   46.47
   5   9  -7   12.90    8.09
   5   9  -6  569.95   44.76
   5   9  -5   18.07    8.61
   5   9  -4  608.42   43.87
   5   9  -3  201.61   24.45
   5   9  -2  734.51   45.25
   5   9  -1  256.33   28.38
   5   9  -1  291.47   27.52
   5   9   0  610.96   46.00
   5   9   1  467.17   41.73
   5   9   2  335.45   36.98
   5   9   3  407.12   42.13
   5  10  -5  250.64   29.81
   5  10   1   18.51    8.87
   5  10   2   10.02    6.89
   6 -12  -5   10.79    5.68
   6 -12  -4  377.23   31.77
   6 -12  -3    6.10    6.43
   6 -12  -2  354.63   31.44
   6 -12  -1   -7.08    5.41
   6 -12   0  519.65   38.57
   6 -11  -7  401.23   34.23
   6 -11  -6  130.43   21.51
   6 -11  -6  110.89   17.28
   6 -11  -5  303.60   32.91
   6 -11  -5  372.19   30.03
   6 -11  -4   88.47   17.92
   6 -11  -4  101.75   15.01
   6 -11  -3  672.12   49.82
   6 -11  -2   21.22   10.09
   6 -11  -1  616.46   48.24
   6 -11   0   -0.90    6.19
   6 -11   1  350.73   37.03
   6 -11   2  115.54   21.66
   6 -11   3  247.10   26.10
   6 -11   4  126.36   18.93
   6 -10  -8  211.32   24.63
   6 -10  -7   48.98   12.43
   6 -10  -7   29.45    9.25
   6 -10  -6  174.31   23.05
   6 -10  -6  172.71   20.45
   6 -10  -5   -4.02    4.08
   6 -10  -5   -6.90    4.25
   6 -10  -4  324.93   32.45
   6 -10  -4  342.28   25.83
   6 -10  -3   -0.26    3.41
   6 -10  -3    1.99    2.49
   6 -10  -2  159.96   23.04
   6 -10  -2  132.45   14.08
   6 -10  -1    4.34    4.21
   6 -10  -1    8.99    3.46
   6 -10   0  206.99   26.54
   6 -10   1   14.09    7.92
   6 -10   2   30.90   11.17
   6 -10   3    1.76    3.81
   6 -10   4   -1.80    3.02
   6 -10   5    3.63    5.94
   6 -10   5    5.18    3.76
   6 -10   6   14.42    6.12
   6 -10   7   64.05   13.66
   6  -9  -9  -12.23    6.22
   6  -9  -8   15.98    6.87
   6  -9  -8   19.69    7.67
   6  -9  -7    5.82    4.59
   6  -9  -7   13.66    6.68
   6  -9  -6   20.86    7.04
   6  -9  -6   24.71    8.65
   6  -9  -5   31.82    8.01
   6  -9  -5   40.50   10.95
   6  -9  -4   30.83    7.46
   6  -9  -4   31.45    9.54
   6  -9  -3   79.70   11.21
   6  -9  -3   87.83   16.45
   6  -9  -2   72.01   14.69
   6  -9  -2   89.79   11.09
   6  -9  -1  382.22   33.52
   6  -9  -1    0.43    1.15
   6  -9   0  235.17   26.84
   6  -9   0  255.23   15.03
   6  -9   1  422.86   36.22
   6  -9   2  204.57   25.37
   6  -9   3  226.31   27.60
   6  -9   4  865.36   54.02
   6  -9   5  266.85   30.59
   6  -9   6  712.74   50.55
   6  -9   7  118.00   17.31
   6  -9   8  846.39   47.05
   6  -9   9   53.24   12.06
   6  -9  10  780.67   46.61
   6  -8 -10  348.20   31.96
   6  -8  -9   32.33    9.72
   6  -8  -8  608.04   38.51
   6  -8  -8  572.57   37.67
   6  -8  -7   55.37   11.29
   6  -8  -7   70.81   13.31
   6  -8  -6 1251.55   56.53
   6  -8  -6 1173.46   48.83
   6  -8  -5    1.48    2.22
   6  -8  -5    0.31    3.26
   6  -8  -4 1545.15   63.67
   6  -8  -4 1563.71   50.10
   6  -8  -3   -0.87    1.84
   6  -8  -3    1.38    2.76
   6  -8  -2 1250.70   58.24
   6  -8  -2 1297.18   39.34
   6  -8  -1  158.78   20.93
   6  -8   0 1038.83   53.90
   6  -8   0 1126.72   29.49
   6  -8   1  311.82   13.36
   6  -8   1  328.80   12.70
   6  -8   1  327.07   30.48
   6  -8   2 1091.37   56.04
   6  -8   3  639.88   20.57
   6  -8   3  624.14   42.65
   6  -8   4  525.37   22.47
   6  -8   4  551.04   40.37
   6  -8   5  454.58   23.64
   6  -8   5  473.60   38.28
   6  -8   6  173.92   16.37
   6  -8   6  153.28   21.85
   6  -8   7  468.39   29.14
   6  -8   7  442.76   37.87
   6  -8   8   64.51   11.82
   6  -8   8   79.69   14.06
   6  -8   9  293.81   26.70
   6  -8   9  328.07   28.28
   6  -8  10    8.09    6.78
   6  -8  10   -2.32    4.57
   6  -8  11  110.65   18.91
   6  -8  11  105.73   16.58
   6  -7 -10  343.80   31.03
   6  -7  -9  545.50   34.89
   6  -7  -9  495.02   35.37
   6  -7  -8  155.55   19.13
   6  -7  -7  329.03   27.63
   6  -7  -7  376.11   21.21
   6  -7  -6   26.48    5.55
   6  -7  -6   17.28    6.08
   6  -7  -5  574.23   37.01
   6  -7  -5  601.80   26.28
   6  -7  -4    3.32    2.35
   6  -7  -4    5.31    4.04
   6  -7  -3  756.66   42.64
   6  -7  -2   -3.31    2.02
   6  -7  -2   18.99    6.32
   6  -7  -1  255.45   25.32
   6  -7   0  248.35   25.02
   6  -7   0  265.08   13.63
   6  -7   1  238.75   11.48
   6  -7   1  247.68   10.42
   6  -7   2   62.78    5.58
   6  -7   2   59.52   12.61
   6  -7   3   47.96    6.10
   6  -7   3   50.70   11.20
   6  -7   4   66.00    8.41
   6  -7   4   92.40   15.72
   6  -7   5    1.52    2.11
   6  -7   5    4.42    4.70
   6  -7   6   21.18    5.97
   6  -7   6   28.72    9.44
   6  -7   7    1.57    1.59
   6  -7   7    5.36    6.10
   6  -7   8    3.25    2.11
   6  -7   8    8.36    5.57
   6  -7   9   -0.02    2.80
   6  -7   9    4.28    2.80
   6  -7  10   32.31    9.39
   6  -7  10   33.58    8.77
   6  -7  11    0.51    5.33
   6  -7  11    3.90    3.78
   6  -7  12   41.04   11.94
   6  -6 -10   18.31    6.31
   6  -6  -9    3.35    2.28
   6  -6  -9    0.79    1.90
   6  -6  -8   48.22    8.69
   6  -6  -8   44.68    9.68
   6  -6  -7    3.95    2.59
   6  -6  -7    6.65    3.41
   6  -6  -6   60.32    6.71
   6  -6  -6   68.89    9.91
   6  -6  -6   53.39   10.97
   6  -6  -5    8.69    3.49
   6  -6  -5   11.42    2.37
   6  -6  -5   11.09    4.52
   6  -6  -4   13.33    4.52
   6  -6  -4    9.63    4.94
   6  -6  -3   10.62    3.91
   6  -6  -3   11.69    4.87
   6  -6  -2   34.99    7.16
   6  -6  -2   23.51    7.37
   6  -6  -1   51.07   10.91
   6  -6   0    4.37    2.26
   6  -6   0    3.95    3.24
   6  -6   1  334.43   12.14
   6  -6   1  340.13   28.28
   6  -6   1  346.99   14.24
   6  -6   2  125.00    9.08
   6  -6   2  135.22   17.91
   6  -6   3  451.51   19.97
   6  -6   3  554.07   36.52
   6  -6   4  109.07   11.00
   6  -6   4  119.51   17.27
   6  -6   5 1016.71   36.93
   6  -6   5  950.29   48.75
   6  -6   6   31.80    7.03
   6  -6   6   13.75    5.72
   6  -6   7  889.70   40.09
   6  -6   7  798.88   45.95
   6  -6   8    6.20    4.14
   6  -6   8    7.59    5.33
   6  -6   9  783.26   43.00
   6  -6   9  699.77   44.46
   6  -6  10   13.87    6.14
   6  -6  10   21.94    7.03
   6  -6  11  823.18   49.58
   6  -6  11  848.24   42.12
   6  -6  12  111.25   19.19
   6  -5 -10    5.71    3.51
   6  -5 -10   11.80    4.72
   6  -5  -9  206.17   20.54
   6  -5  -9  226.06   21.25
   6  -5  -8    9.45    3.97
   6  -5  -8   10.11    5.11
   6  -5  -7  787.78   36.65
   6  -5  -6   44.86    6.31
   6  -5  -6   41.90    8.06
   6  -5  -5 1057.36   26.73
   6  -5  -5  990.33   39.08
   6  -5  -4  306.74   12.74
   6  -5  -4  297.92   21.18
   6  -5  -3  928.28   20.03
   6  -5  -3  950.02   37.62
   6  -5  -2 1360.84   24.03
   6  -5  -2 1378.68   45.38
   6  -5  -1 2774.63   38.66
   6  -5  -1 2783.00   36.23
   6  -5  -1 2736.19   75.99
   6  -5  -1 2782.11   65.14
   6  -5   0 1056.06   24.17
   6  -5   0 1076.96   48.39
   6  -5   0 1068.47   31.37
   6  -5   1 1756.75   34.69
   6  -5   1 1666.73   59.58
   6  -5   1 1669.66   33.48
   6  -5   2 1619.55   37.12
   6  -5   2 1516.87   24.49
   6  -5   2 1571.58   58.41
   6  -5   3  833.01   29.23
   6  -5   3  740.69   40.54
   6  -5   4 1902.25   47.86
   6  -5   4 1848.30   64.23
   6  -5   5  487.98   26.27
   6  -5   5  495.36   33.60
   6  -5   6 1424.79   48.26
   6  -5   6 1417.68   57.23
   6  -5   7  107.20   14.12
   6  -5   7  104.12   15.93
   6  -5   8 1378.85   53.74
   6  -5   8 1420.90   58.26
   6  -5   9   66.75   12.51
   6  -5   9   64.44   12.81
   6  -5  10  591.23   39.78
   6  -5  10  576.78   32.40
   6  -5  11    1.64    4.57
   6  -5  12  237.08   28.34
   6  -4 -12  455.13   35.76
   6  -4 -11  129.80   18.64
   6  -4 -10 1475.32   58.91
   6  -4  -9   66.79   11.88
   6  -4  -8 1545.12   45.61
   6  -4  -8 1464.19   54.44
   6  -4  -7   -3.23    2.25
   6  -4  -7   -0.84    2.73
   6  -4  -6 1945.93   58.61
   6  -4  -5   -0.55    1.00
   6  -4  -5    5.45    3.23
   6  -4  -4 2918.84   48.10
   6  -4  -4 3023.75   70.23
   6  -4  -3   21.48    4.08
   6  -4  -3   22.35    6.00
   6  -4  -2 1900.64   38.83
   6  -4  -2 1914.52   55.24
   6  -4  -1  141.13   15.08
   6  -4  -1  157.24   13.80
   6  -4   0  646.91   23.39
   6  -4   0  663.04   33.00
   6  -4   0  599.60   24.65
   6  -4   1  124.09   10.90
   6  -4   1  121.51    9.76
   6  -4   2  585.24   24.84
   6  -4   2  558.18   18.35
   6  -4   2  578.42   34.18
   6  -4   3  247.92   17.09
   6  -4   3  225.33   21.60
   6  -4   3  237.51   10.42
   6  -4   4  106.48   11.97
   6  -4   4  101.92   14.40
   6  -4   4  113.55    6.61
   6  -4   5  104.03   12.54
   6  -4   5  105.31   15.00
   6  -4   6   76.21   11.41
   6  -4   6   89.95   14.17
   6  -4   7   19.03    6.23
   6  -4   7   20.78    6.75
   6  -4   8   23.37    7.78
   6  -4   8   21.88    7.10
   6  -4   9   10.47    5.24
   6  -4   9   15.14    6.10
   6  -4  10   -2.01    3.76
   6  -4  10    7.53    5.24
   6  -4  10    2.84    3.00
   6  -4  11    3.20    4.75
   6  -3 -13  266.95   29.68
   6  -3 -12  201.96   24.87
   6  -3 -11  110.56   17.81
   6  -3 -10  197.28   22.48
   6  -3  -9  177.18   20.64
   6  -3  -8   64.80    9.86
   6  -3  -8   57.12   11.47
   6  -3  -7   99.86   11.51
   6  -3  -7   86.80   13.19
   6  -3  -6   -3.11    2.15
   6  -3  -6   28.06    7.57
   6  -3  -5   21.23    6.36
   6  -3  -4   31.59    5.86
   6  -3  -4   27.79    6.83
   6  -3  -3   73.58    8.91
   6  -3  -3   51.24    9.38
   6  -3  -2    4.35    2.15
   6  -3  -2    4.63    3.13
   6  -3  -2    9.59    3.92
   6  -3  -1  132.86   14.84
   6  -3  -1  147.67   13.66
   6  -3   0   24.35    5.25
   6  -3   0   29.59    7.06
   6  -3   1  120.18   11.77
   6  -3   1  115.42   10.24
   6  -3   1  103.65   13.83
   6  -3   2  344.13   20.59
   6  -3   2  306.21   15.65
   6  -3   3  399.30   23.30
   6  -3   3  381.82   16.66
   6  -3   4  328.27   22.16
   6  -3   4  347.18   25.83
   6  -3   4  342.79   15.32
   6  -3   5   73.91   11.05
   6  -3   5   94.46   13.48
   6  -3   5   80.14    7.44
   6  -3   6  455.41   28.78
   6  -3   6  407.37   28.36
   6  -3   7    7.82    4.72
   6  -3   7    3.50    2.73
   6  -3   8  472.39   32.52
   6  -3   8  428.09   28.85
   6  -3   9    3.06    3.19
   6  -3   9    1.99    2.55
   6  -3  10  427.89   34.19
   6  -3  11   72.22   14.93
   6  -2 -14    7.06    7.10
   6  -2 -13    8.59    6.34
   6  -2 -12   70.86   15.54
   6  -2 -11    9.02    6.35
   6  -2 -10   75.45   14.46
   6  -2  -9   87.79   14.91
   6  -2  -8  344.88   28.03
   6  -2  -7   -2.08    1.79
   6  -2  -7   -1.31    2.38
   6  -2  -6  776.79   33.22
   6  -2  -6  759.73   39.20
   6  -2  -5   28.71    6.46
   6  -2  -5   57.25   10.53
   6  -2  -4 1051.46   43.45
   6  -2  -4 1051.78   43.90
   6  -2  -3   31.13    7.18
   6  -2  -3   37.30    8.12
   6  -2  -2  802.63   37.47
   6  -2  -2  801.35   34.26
   6  -2  -1  965.49   36.07
   6  -2  -1  977.91   41.33
   6  -2   0 1025.03   35.19
   6  -2   0 1073.76   43.72
   6  -2   1 1096.81   34.35
   6  -2   1 1040.27   41.47
   6  -2   1 1096.98   44.70
   6  -2   2  180.46   13.31
   6  -2   2  169.72   15.55
   6  -2   2  182.13   18.00
   6  -2   2  172.87   18.02
   6  -2   3 1706.40   51.36
   6  -2   3 1711.05   39.96
   6  -2   4  203.63   18.35
   6  -2   4  220.96   14.20
   6  -2   5 2104.65   61.16
   6  -2   5 2023.01   43.80
   6  -2   6    5.84    3.14
   6  -2   6   -2.61    2.76
   6  -2   6    4.95    3.58
   6  -2   7 1436.49   55.22
   6  -2   7 1372.64   49.87
   6  -2   8   64.67   12.38
   6  -2   8   64.50   10.90
   6  -2   9 1151.57   54.38
   6  -2   9 1163.33   44.43
   6  -2  10  180.52   22.75
   6  -2  11  488.61   39.36
   6  -1 -14  115.05   21.72
   6  -1 -13  292.20   33.32
   6  -1 -12   52.86   14.43
   6  -1 -11  442.65   37.74
   6  -1 -10    3.30    4.43
   6  -1  -9 1265.49   58.65
   6  -1  -8    4.10    5.10
   6  -1  -7 1429.04   57.30
   6  -1  -6  173.60   16.79
   6  -1  -6  202.12   20.86
   6  -1  -5 1307.45   45.70
   6  -1  -5 1294.77   51.43
   6  -1  -4  819.09   36.18
   6  -1  -4  867.65   40.98
   6  -1  -4  870.15   40.33
   6  -1  -3 1879.23   59.41
   6  -1  -3 1930.26   57.60
   6  -1  -2  937.78   38.32
   6  -1  -2  828.94   39.14
   6  -1  -1 1318.69   41.55
   6  -1  -1 1410.92   45.21
   6  -1  -1 1308.22   49.04
   6  -1   0 1511.15   47.40
   6  -1   0 1476.74   44.49
   6  -1   0 1492.39   52.22
   6  -1   1  576.17   26.62
   6  -1   1  631.19   32.30
   6  -1   1  598.21   33.64
   6  -1   2 1587.94   42.98
   6  -1   2 1522.07   53.71
   6  -1   2 1559.98   54.92
   6  -1   3  453.25   28.08
   6  -1   3  423.40   29.14
   6  -1   3  463.01   22.96
   6  -1   4  682.23   35.45
   6  -1   4  708.19   28.39
   6  -1   5    1.66    1.95
   6  -1   5   -1.26    2.23
   6  -1   6  552.28   34.28
   6  -1   6  521.47   25.75
   6  -1   7   25.16    7.20
   6  -1   7   26.72    6.79
   6  -1   8  310.35   27.88
   6  -1   8  338.77   23.35
   6  -1   9    4.06    3.71
   6  -1  10   36.46   10.89
   6  -1  11    8.49    5.45
   6   0 -13  116.07   21.67
   6   0 -12  558.37   45.65
   6   0 -11   36.57   11.81
   6   0 -10  590.59   42.92
   6   0  -9    1.23    2.79
   6   0  -8 1039.09   52.37
   6   0  -7    5.86    5.30
   6   0  -6  657.09   38.93
   6   0  -5   16.52    5.66
   6   0  -5    4.17    3.36
   6   0  -4  387.91   26.73
   6   0  -4  397.05   28.46
   6   0  -3    1.23    1.85
   6   0  -3    1.05    2.59
   6   0  -3    7.07    4.00
   6   0  -3    8.25    3.09
   6   0  -2   80.04   12.40
   6   0  -2   75.38    9.45
   6   0  -2  103.21   13.42
   6   0  -1   55.24   10.32
   6   0  -1   45.32    8.19
   6   0  -1   49.36    8.78
   6   0   0   -0.76    2.75
   6   0   0    1.18    1.36
   6   0   0    2.94    2.20
   6   0   1  166.07   15.22
   6   0   1  174.13   17.51
   6   0   1  173.21   18.32
   6   0   2    4.02    3.57
   6   0   2    3.03    2.28
   6   0   2    6.04    3.16
   6   0   3  114.60   14.77
   6   0   3  119.31   15.58
   6   0   3  153.74   14.35
   6   0   4    3.29    3.32
   6   0   4    2.80    2.52
   6   0   5  124.50   16.51
   6   0   5  129.60   13.51
   6   0   6    0.98    1.74
   6   0   6    0.93    1.90
   6   0   7  606.88   38.60
   6   0   8   20.32    7.31
   6   0   8   28.11    6.54
   6   0   9  433.63   34.93
   6   0  10   59.05   13.85
   6   1 -13    3.49    5.29
   6   1 -12   14.69    7.75
   6   1 -11   30.62    9.96
   6   1 -10   28.40   10.23
   6   1  -9   37.15   10.98
   6   1  -8   34.09   10.06
   6   1  -7  487.60   35.97
   6   1  -6   19.42    7.00
   6   1  -5  860.47   22.93
   6   1  -5  875.98   44.68
   6   1  -4   65.30   12.12
   6   1  -4   70.19    7.91
   6   1  -3  573.04   25.53
   6   1  -3  555.41   34.41
   6   1  -2  518.31   26.44
   6   1  -2  542.53   31.17
   6   1  -2  526.64   32.85
   6   1  -1  460.19   26.68
   6   1  -1  464.41   28.24
   6   1  -1  467.66   30.85
   6   1   0  902.98   38.49
   6   1   0  926.29   40.21
   6   1   0  869.61   41.79
   6   1   1  781.48   35.17
   6   1   1  703.90   36.90
   6   1   1  727.85   38.19
   6   1   2  730.29   33.65
   6   1   2  745.43   39.04
   6   1   3   71.83   12.34
   6   1   3   79.96   11.15
   6   1   4 1673.37   60.89
   6   1   5    5.20    3.84
   6   1   6 1405.22   58.94
   6   1   7   86.07   15.47
   6   1   8  744.85   45.62
   6   1   9   85.61   16.04
   6   1  10  565.57   42.56
   6   2 -12  458.01   43.29
   6   2 -11   20.54    9.25
   6   2 -10  896.61   56.21
   6   2  -9   62.05   14.42
   6   2  -8  816.19   49.76
   6   2  -7   82.25   15.12
   6   2  -6  882.55   21.45
   6   2  -6  985.10   51.18
   6   2  -5  367.74   17.64
   6   2  -5  354.25   29.53
   6   2  -4  823.03   30.11
   6   2  -4  833.70   44.02
   6   2  -3  840.73   33.23
   6   2  -3  835.50   43.56
   6   2  -2  675.07   32.29
   6   2  -2  696.05   38.94
   6   2  -1  986.69   41.72
   6   2  -1  955.49   45.06
   6   2   0  474.15   30.31
   6   2   0  505.81   32.81
   6   2   1 2098.18   66.70
   6   2   2   69.19   12.26
   6   2   3 1788.41   62.28
   6   2   4   38.48   10.02
   6   2   5 1127.22   53.48
   6   2   6    5.43    5.10
   6   2   7  739.95   45.55
   6   2   8   84.40   16.22
   6   2   9  405.68   36.20
   6   3 -12   10.54    7.18
   6   3 -11  561.07   47.21
   6   3 -10   14.90    7.62
   6   3  -9  621.77   46.26
   6   3  -8   93.44   17.39
   6   3  -7  656.60   44.19
   6   3  -6  336.00   16.98
   6   3  -6  321.21   29.98
   6   3  -5  808.62   30.28
   6   3  -5  711.75   43.42
   6   3  -4  450.34   24.77
   6   3  -4  447.13   33.08
   6   3  -3  281.18   21.23
   6   3  -3  317.06   27.92
   6   3  -2  417.03   27.58
   6   3  -2  368.00   29.27
   6   3  -1   41.92    9.94
   6   3  -1   55.24   10.54
   6   3   0  609.77   36.85
   6   3   1  556.67   34.81
   6   3   2    1.74    3.87
   6   3   3   95.31   14.52
   6   3   4    3.05    4.06
   6   3   4    3.28    5.04
   6   3   5    3.66    3.48
   6   3   6   19.77    7.53
   6   3   7   80.08   15.61
   6   3   8  225.82   27.00
   6   3   9  182.11   24.92
   6   4 -11   -2.06    3.57
   6   4 -10   27.63   10.41
   6   4  -9   -2.64    5.22
   6   4  -8   33.73   10.99
   6   4  -7   37.82   10.99
   6   4  -6   19.11    6.99
   6   4  -5   75.10   14.82
   6   4  -5   85.87   11.24
   6   4  -4   34.07    9.57
   6   4  -4   34.65    7.88
   6   4  -3  494.36   30.86
   6   4  -3  503.77   35.68
   6   4  -2   38.48   10.11
   6   4  -2   33.57    9.08
   6   4  -1  825.54   44.57
   6   4   0   84.20   14.19
   6   4   1  797.40   42.63
   6   4   2  284.06   25.48
   6   4   3 1638.37   61.47
   6   4   4   15.57    6.27
   6   4   4   23.95    9.08
   6   4   5 1135.65   58.00
   6   4   6   45.96   12.29
   6   4   7  932.37   54.86
   6   4   8   65.82   14.57
   6   5 -10   74.27   17.90
   6   5  -9  629.29   49.18
   6   5  -8  100.87   19.44
   6   5  -7  812.18   52.29
   6   5  -6  357.80   33.84
   6   5  -5  944.87   52.94
   6   5  -4  362.15   27.38
   6   5  -4  412.92   34.18
   6   5  -3  827.18   47.12
   6   5  -2  934.25   49.01
   6   5  -1  753.08   43.28
   6   5   0  907.65   47.15
   6   5   1  132.89   17.74
   6   5   2  990.36   48.57
   6   5   3   -0.40    1.93
   6   5   4  533.32   40.89
   6   5   5   17.23    8.15
   6   5   6  463.75   39.44
   6   5   7   71.53   15.51
   6   6  -9   29.17   11.84
   6   6  -8  574.33   46.77
   6   6  -7   71.00   15.96
   6   6  -6  312.37   32.34
   6   6  -5  152.36   21.91
   6   6  -4  205.73   25.11
   6   6  -3  422.60   34.98
   6   6  -2   20.22    7.86
   6   6  -1  108.43   16.78
   6   6   0   -1.99    3.49
   6   6   1  193.57   21.92
   6   6   2   11.69    5.59
   6   6   3  173.28   20.30
   6   6   4   80.32   16.86
   6   6   5   12.15    6.16
   6   7  -8   16.06    9.28
   6   7  -7   13.47    7.41
   6   7  -6    8.70    5.27
   6   7  -5   -0.20    3.30
   6   7  -4    0.60    2.72
   6   7  -3    5.19    4.42
   6   7  -2   -0.14    3.57
   6   7  -1    1.25    2.65
   6   7   0   97.63   16.27
   6   7   1   -4.72    5.17
   6   7   2  268.75   26.59
   6   7   3   -1.59    3.34
   6   7   4  427.29   39.42
   6   8  -7   98.78   20.00
   6   8  -6  195.27   26.77
   6   8  -5  480.70   41.09
   6   8  -4  118.88   20.22
   6   8  -3  547.77   42.12
   6   8  -2  141.26   21.07
   6   8  -1 1012.00   54.63
   6   8   0   39.82   11.20
   6   8   1  697.68   43.26
   6   9  -5  284.43   32.37
   6   9  -4  190.44   25.86
   6   9  -3  120.80   20.90
   6   9  -2  220.88   26.64
   7 -11  -6  357.89   36.24
   7 -11  -5   33.26   11.34
   7 -11  -4  164.08   25.46
   7 -11  -3  200.14   27.82
   7 -11  -2  139.06   23.93
   7 -11  -1  136.14   23.40
   7 -11   0   92.77   19.29
   7 -11   1  131.74   23.40
   7 -11   2   31.11   10.84
   7 -10  -8   17.99    7.06
   7 -10  -7   47.83   11.62
   7 -10  -7   52.29   12.87
   7 -10  -6    3.78    3.47
   7 -10  -6   11.25    7.13
   7 -10  -5   10.66    5.20
   7 -10  -5    7.67    4.79
   7 -10  -4   38.74   11.65
   7 -10  -4   28.88    8.00
   7 -10  -3   13.86    8.03
   7 -10  -3    5.50    3.29
   7 -10  -2  105.57   19.39
   7 -10  -1    8.23    7.29
   7 -10   0  196.04   26.99
   7 -10   1    3.09    3.73
   7 -10   2  486.36   43.05
   7 -10   3   11.59    8.88
   7 -10   4  632.40   49.83
   7 -10   5   31.13   11.39
   7 -10   6  571.22   49.35
   7  -9  -8  460.31   37.21
   7  -9  -8  415.30   33.65
   7  -9  -7  165.61   22.43
   7  -9  -7  183.94   21.54
   7  -9  -6  414.17   35.96
   7  -9  -6  426.70   30.97
   7  -9  -5  471.79   38.49
   7  -9  -5  442.99   29.73
   7  -9  -4  495.71   39.75
   7  -9  -4  573.14   32.02
   7  -9  -3  478.29   39.38
   7  -9  -3  558.39   29.41
   7  -9  -2  621.73   45.18
   7  -9  -2  706.54   30.33
   7  -9  -1 1001.77   57.36
   7  -9   0  344.84   33.67
   7  -9   1  929.10   56.55
   7  -9   2  222.95   28.01
   7  -9   3 1151.94   63.64
   7  -9   4   73.17   16.50
   7  -9   5  763.78   53.35
   7  -9   6   14.10    7.90
   7  -9   7  573.26   47.94
   7  -9   8   23.84    7.59
   7  -8  -9  789.34   46.53
   7  -8  -8   11.84    6.15
   7  -8  -8    6.48    5.61
   7  -8  -7  753.79   46.05
   7  -8  -7  831.43   44.01
   7  -8  -6   44.75    9.85
   7  -8  -6   43.53   11.55
   7  -8  -5  653.63   43.70
   7  -8  -5  650.20   35.24
   7  -8  -4  109.43   18.35
   7  -8  -4  113.26   13.87
   7  -8  -3  335.88   31.66
   7  -8  -3  312.33   21.19
   7  -8  -2  342.78   31.98
   7  -8  -2  335.25   20.34
   7  -8  -1  280.45   29.24
   7  -8   0  264.94   28.71
   7  -8   0  280.16   14.48
   7  -8   1  121.08   19.50
   7  -8   2  129.23   20.23
   7  -8   3    2.47    2.63
   7  -8   4   78.11   15.77
   7  -8   5   15.88    7.42
   7  -8   6   28.51   10.20
   7  -8   7    0.55    2.89
   7  -8   8    8.93    5.31
   7  -8   9    2.52    3.20
   7  -8  10    9.39    5.09
   7  -7  -9    5.24    4.88
   7  -7  -8   78.74   14.36
   7  -7  -7   14.07    6.27
   7  -7  -6   12.41    4.35
   7  -7  -6   17.45    7.19
   7  -7  -5    3.51    2.73
   7  -7  -5    6.67    5.10
   7  -7  -4    4.01    2.44
   7  -7  -4   -1.09    3.18
   7  -7  -3    0.76    2.62
   7  -7  -3    3.98    5.22
   7  -7  -2    8.53    4.68
   7  -7  -1   74.35   14.49
   7  -7   0   93.84   16.45
   7  -7   0   98.65    8.66
   7  -7   0  106.15   10.22
   7  -7   1  115.86    5.85
   7  -7   1  130.98   19.56
   7  -7   1  124.63    8.50
   7  -7   1  120.05    7.51
   7  -7   2   -0.45    1.31
   7  -7   2    0.20    3.52
   7  -7   3   65.16    7.61
   7  -7   3   79.39   15.24
   7  -7   4   27.42    5.78
   7  -7   4   29.78    9.72
   7  -7   5  441.68   24.65
   7  -7   5  404.66   35.19
   7  -7   6   59.79    9.95
   7  -7   6   57.30   13.64
   7  -7   7  171.53   18.11
   7  -7   7  145.56   21.98
   7  -7   8  119.29   16.22
   7  -7   8  107.45   18.98
   7  -7   9  287.49   26.84
   7  -7   9  185.88   25.58
   7  -7  10  370.61   32.52
   7  -7  10  387.55   30.60
   7  -7  11  180.61   24.16
   7  -7  11  203.38   22.70
   7  -6 -10    7.99    4.03
   7  -6  -9   74.06   13.75
   7  -6  -8   50.84   10.04
   7  -6  -8   51.12   11.88
   7  -6  -7  120.17   17.55
   7  -6  -7  135.48   15.96
   7  -6  -6  247.95   25.26
   7  -6  -6  203.66   19.41
   7  -6  -5  207.92   23.12
   7  -6  -5  192.33   18.15
   7  -6  -4  943.17   18.64
   7  -6  -4 1011.16   50.96
   7  -6  -4 1018.21   42.03
   7  -6  -3  370.40    9.62
   7  -6  -3  406.35   26.63
   7  -6  -2  504.70   10.07
   7  -6  -2  513.73   36.83
   7  -6  -2  575.13   31.90
   7  -6  -1   66.94    4.96
   7  -6  -1   62.20    4.47
   7  -6  -1   63.09   12.73
   7  -6  -1   66.54    9.57
   7  -6   0 1459.18   26.51
   7  -6   0 1426.11   38.68
   7  -6   1    6.48    2.15
   7  -6   1    5.02    2.00
   7  -6   2 1866.91   25.11
   7  -6   2 1989.04   41.38
   7  -6   2 1910.83   71.59
   7  -6   3    0.15    1.37
   7  -6   3    2.34    3.82
   7  -6   4 1865.56   48.28
   7  -6   4 1877.31   71.60
   7  -6   5   97.91   12.05
   7  -6   5   80.16   15.21
   7  -6   6 1234.03   45.99
   7  -6   6 1188.75   58.22
   7  -6   7  199.93   19.93
   7  -6   7  248.53   27.37
   7  -6   8  974.30   46.28
   7  -6   8  878.84   50.84
   7  -6   9  445.56   33.53
   7  -6   9  406.06   35.08
   7  -6  10  416.85   34.32
   7  -6  10  383.31   34.37
   7  -6  10  365.18   28.17
   7  -6  11  172.20   23.53
   7  -5 -10  725.84   42.44
   7  -5  -9  195.45   21.44
   7  -5  -8 1049.26   47.75
   7  -5  -7  314.19   25.55
   7  -5  -6  936.11   42.93
   7  -5  -5  845.69   26.14
   7  -5  -5  782.13   38.76
   7  -5  -4  680.99   22.21
   7  -5  -4  621.91   34.17
   7  -5  -3  803.15   23.53
   7  -5  -3  772.63   37.90
   7  -5  -2  662.36   32.28
   7  -5  -2  726.51   23.25
   7  -5  -2  705.41   36.35
   7  -5  -1 1300.67   33.62
   7  -5  -1 1327.42   32.25
   7  -5  -1 1240.42   48.56
   7  -5  -1 1179.35   39.92
   7  -5   0  166.68   11.88
   7  -5   0  167.89   20.24
   7  -5   0  171.02   18.40
   7  -5   0  159.09   13.26
   7  -5   1 1275.31   34.78
   7  -5   1 1234.63   55.23
   7  -5   1 1318.86   33.48
   7  -5   2   35.87    6.28
   7  -5   2   36.71   10.14
   7  -5   2   34.63    4.62
   7  -5   3  424.98   22.80
   7  -5   3  435.96   33.57
   7  -5   3  440.77   13.23
   7  -5   4    0.29    1.28
   7  -5   4    6.00    5.19
   7  -5   5  434.19   26.46
   7  -5   5  416.19   32.76
   7  -5   6   32.21    7.66
   7  -5   6   33.84    9.81
   7  -5   7  210.40   20.70
   7  -5   7  197.20   23.00
   7  -5   8   33.78    9.10
   7  -5   8   39.80   10.20
   7  -5   9    9.43    4.54
   7  -5   9   11.98    6.85
   7  -5  10   -2.94    6.00
   7  -5  11    0.37    3.62
   7  -4 -12    4.70    5.85
   7  -4 -11  425.83   35.30
   7  -4 -10    1.93    2.68
   7  -4  -9  238.51   24.54
   7  -4  -8   20.57    6.73
   7  -4  -7  381.59   22.25
   7  -4  -7  375.54   28.96
   7  -4  -6   -1.37    1.71
   7  -4  -6   11.88    5.68
   7  -4  -5   59.02   10.92
   7  -4  -4   60.27    7.99
   7  -4  -4   81.04   12.73
   7  -4  -3    6.81    3.38
   7  -4  -3    8.17    3.16
   7  -4  -3    6.79    3.72
   7  -4  -2    7.86    4.08
   7  -4  -2    2.76    1.51
   7  -4  -2    5.90    3.11
   7  -4  -1   -2.06    1.92
   7  -4  -1   -0.01    1.68
   7  -4   0   22.17    6.61
   7  -4   0   27.58    5.77
   7  -4   0   16.97    4.83
   7  -4   1    1.10    1.92
   7  -4   1    5.06    2.79
   7  -4   1    1.11    2.10
   7  -4   2   31.52    6.28
   7  -4   2   41.65    5.91
   7  -4   3   10.11    4.09
   7  -4   3    6.59    4.17
   7  -4   3    8.35    2.39
   7  -4   4   99.90   12.39
   7  -4   4  122.30   17.24
   7  -4   4  117.13    8.42
   7  -4   5   17.26    5.58
   7  -4   5   16.50    6.62
   7  -4   6  442.38   29.27
   7  -4   6  444.52   33.08
   7  -4   7   36.44    8.92
   7  -4   7   28.41    8.75
   7  -4   8  131.68   18.08
   7  -4   8  156.71   19.89
   7  -4   9   91.34   15.38
   7  -4   9  103.73   16.07
   7  -4  10  198.02   24.24
   7  -4  11  304.02   31.32
   7  -3 -13    0.11    3.53
   7  -3 -12   18.48    8.58
   7  -3 -11    7.21    4.50
   7  -3 -10   21.06    7.57
   7  -3  -9    7.70    5.71
   7  -3  -8  115.58   16.86
   7  -3  -7   29.38    6.51
   7  -3  -7   44.04   10.42
   7  -3  -6  346.02   22.36
   7  -3  -6  355.62   28.16
   7  -3  -5   23.21    5.40
   7  -3  -5   32.93    8.53
   7  -3  -4    0.74    1.86
   7  -3  -4  104.87   14.90
   7  -3  -3  732.78   38.74
   7  -3  -3  666.72   35.08
   7  -3  -2   10.05    4.68
   7  -3  -2    7.71    3.88
   7  -3  -1  465.53   26.36
   7  -3  -1  459.59   30.54
   7  -3   0   74.99   12.38
   7  -3   0   86.12   10.86
   7  -3   1 1415.51   45.36
   7  -3   1 1359.91   39.89
   7  -3   1 1443.53   55.20
   7  -3   2   31.89    7.13
   7  -3   2   21.72    4.96
   7  -3   3 1405.00   48.11
   7  -3   3 1396.09   36.60
   7  -3   4  350.98   24.91
   7  -3   4  344.37   17.51
   7  -3   5  855.66   40.38
   7  -3   5  833.22   43.51
   7  -3   5  917.90   28.60
   7  -3   6  359.35   27.29
   7  -3   6  423.90   31.18
   7  -3   7  554.92   35.43
   7  -3   7  542.06   35.25
   7  -3   8  837.22   45.90
   7  -3   8  839.44   43.61
   7  -3   9  402.15   33.22
   7  -3   9  409.13   30.27
   7  -3  10  570.06   41.62
   7  -2 -13  176.42   26.13
   7  -2 -12   -2.08    5.57
   7  -2 -11  286.13   30.87
   7  -2 -10  142.03   20.93
   7  -2  -9  449.50   35.92
   7  -2  -8  361.90   31.01
   7  -2  -7  199.79   22.39
   7  -2  -6 1055.60   42.16
   7  -2  -6 1010.88   49.12
   7  -2  -5  232.80   19.58
   7  -2  -5  240.81   23.41
   7  -2  -4 1579.75   50.78
   7  -2  -4 1693.04   61.14
   7  -2  -3  288.33   21.79
   7  -2  -3  259.72   23.65
   7  -2  -3  268.98   22.63
   7  -2  -2 2529.24   66.25
   7  -2  -2 2488.43   72.76
   7  -2  -1   22.68    7.33
   7  -2  -1   26.77    6.62
   7  -2   0 2666.12   62.76
   7  -2   0 2699.39   76.23
   7  -2   1   49.51   10.24
   7  -2   1   42.68    7.64
   7  -2   1   51.51   10.06
   7  -2   2 1472.75   42.92
   7  -2   2 1482.92   50.99
   7  -2   2 1620.65   60.27
   7  -2   3   96.63   10.81
   7  -2   3  118.93   14.87
   7  -2   4 1421.89   52.53
   7  -2   4 1374.02   39.74
   7  -2   5  102.29   14.55
   7  -2   5  108.32   11.36
   7  -2   6 1198.54   51.70
   7  -2   6 1123.17   49.58
   7  -2   6 1266.00   39.07
   7  -2   7   87.75   14.76
   7  -2   7   85.58   13.61
   7  -2   8  167.53   21.18
   7  -2   8  178.36   19.42
   7  -2   9  117.56   18.31
   7  -2  10  152.88   21.78
   7  -1 -13   59.08   15.59
   7  -1 -12  633.19   49.14
   7  -1 -11  150.34   23.21
   7  -1 -10  624.56   45.10
   7  -1  -9  235.02   26.92
   7  -1  -8  490.63   37.09
   7  -1  -7  643.73   41.48
   7  -1  -6  862.75   46.69
   7  -1  -5  548.84   36.21
   7  -1  -4  313.32   24.42
   7  -1  -4  289.52   25.80
   7  -1  -3  567.80   32.94
   7  -1  -3  588.45   36.45
   7  -1  -2   64.20   11.99
   7  -1  -2   62.40   11.12
   7  -1  -1    4.26    3.68
   7  -1  -1   10.43    4.47
   7  -1  -1   11.84    4.51
   7  -1   0  318.53   22.61
   7  -1   0  331.63   24.38
   7  -1   0  331.57   27.06
   7  -1   1  240.84   18.97
   7  -1   1  238.02   22.95
   7  -1   2   53.83   10.93
   7  -1   2   44.60    8.09
   7  -1   3    2.21    4.26
   7  -1   3    8.74    4.01
   7  -1   3   10.15    3.78
   7  -1   4   36.86    9.17
   7  -1   4   28.78    6.40
   7  -1   5   85.98   13.84
   7  -1   5   99.91   11.97
   7  -1   6  185.48   21.22
   7  -1   6  175.47   15.91
   7  -1   7  126.42   17.94
   7  -1   7  126.69   16.23
   7  -1   8  226.72   25.29
   7  -1   8  170.98   18.38
   7  -1   9   81.40   15.76
   7  -1  10  363.21   34.58
   7   0 -12    1.47    4.73
   7   0 -11   20.26    8.99
   7   0 -10   29.07   10.83
   7   0  -9    5.70    5.14
   7   0  -8   23.51    9.35
   7   0  -7    8.26    5.27
   7   0  -6  416.16   33.58
   7   0  -5   43.30   10.56
   7   0  -4  699.71   41.14
   7   0  -3   50.29   11.08
   7   0  -3   49.80    8.05
   7   0  -2  594.91   29.60
   7   0  -2  601.50   37.33
   7   0  -1   25.15    7.92
   7   0  -1   16.63    5.93
   7   0   0  907.51   41.46
   7   0   0  941.76   46.31
   7   0   1   55.70   10.26
   7   0   1   37.78    9.14
   7   0   2 1864.21   54.88
   7   0   2 1793.89   65.34
   7   0   3  269.79   24.72
   7   0   3  225.91   23.38
   7   0   4 1239.83   54.16
   7   0   5  198.41   22.34
   7   0   6  630.85   40.56
   7   0   7  208.30   24.09
   7   0   8  378.46   33.68
   7   0   9  519.15   40.65
   7   1 -12  299.67   36.37
   7   1 -11   57.59   15.35
   7   1 -10  252.93   30.97
   7   1  -9  430.11   38.43
   7   1  -8  936.70   54.70
   7   1  -7  366.44   33.08
   7   1  -6  279.52   28.10
   7   1  -5  618.50   40.94
   7   1  -4  278.64   17.81
   7   1  -4  306.78   28.23
   7   1  -3 1538.94   46.25
   7   1  -3 1522.40   61.91
   7   1  -2   99.92   15.74
   7   1  -2  105.85   13.15
   7   1  -1 1921.86   59.66
   7   1  -1 1969.43   68.70
   7   1   0  192.95   20.08
   7   1   0  199.92   21.65
   7   1   1 1190.42   53.40
   7   1   2   18.03    7.22
   7   1   3 1054.98   51.33
   7   1   4  183.93   21.89
   7   1   5  419.85   33.87
   7   1   6  681.03   43.96
   7   1   7  342.23   32.12
   7   1   8  322.68   31.87
   7   1   9   50.97   13.39
   7   2 -11  504.34   46.35
   7   2 -10  257.71   31.86
   7   2  -9  210.08   27.85
   7   2  -8  469.82   39.93
   7   2  -7  241.15   27.58
   7   2  -6  831.39   50.30
   7   2  -5   74.80   15.19
   7   2  -5   84.88    9.51
   7   2  -4  872.52   34.46
   7   2  -4  849.76   48.33
   7   2  -3   -1.37    3.80
   7   2  -3    7.39    3.61
   7   2  -2  614.92   33.51
   7   2  -2  627.26   40.35
   7   2  -1   27.28    8.54
   7   2  -1   20.18    7.07
   7   2   0  268.92   25.91
   7   2   1    3.69    4.24
   7   2   2  422.74   32.96
   7   2   3   79.95   14.14
   7   2   4   19.68    6.72
   7   2   5    9.19    4.54
   7   2   6   19.14    7.77
   7   2   7   46.60   12.39
   7   2   8   -0.56    4.66
   7   3 -10   27.92   11.00
   7   3  -9   32.96   12.00
   7   3  -8  112.99   20.86
   7   3  -7    9.21    6.59
   7   3  -6    2.98    3.37
   7   3  -5   72.36   14.80
   7   3  -4   29.90    9.01
   7   3  -4   24.92    6.49
   7   3  -3   28.40    9.20
   7   3  -3   19.07    5.64
   7   3  -2   10.56    6.02
   7   3  -2   11.97    4.61
   7   3  -1  291.85   28.14
   7   3   0   20.48    7.32
   7   3   1  795.87   45.49
   7   3   2  154.62   20.26
   7   3   3  363.53   31.07
   7   3   4  326.23   31.42
   7   3   5  468.37   38.54
   7   3   6  289.87   31.09
   7   3   7  201.79   26.42
   7   4  -9  184.31   27.45
   7   4  -8  448.09   41.33
   7   4  -7  209.08   27.05
   7   4  -6  636.81   46.96
   7   4  -5   81.81   16.30
   7   4  -4 1311.33   63.17
   7   4  -3  106.89   18.04
   7   4  -2 1393.49   63.25
   7   4  -1    8.96    6.39
   7   4   0  920.34   50.22
   7   4   1   81.59   15.00
   7   4   2  579.96   39.73
   7   4   3  164.20   20.90
   7   4   4  844.95   52.89
   7   4   5  468.47   39.72
   7   4   6  250.22   29.98
   7   5  -8  114.61   21.53
   7   5  -7  328.72   35.17
   7   5  -6  108.24   20.28
   7   5  -5  696.01   48.72
   7   5  -4   14.36    6.36
   7   5  -3  213.93   25.89
   7   5  -2   31.08    9.14
   7   5  -1  426.51   35.61
   7   5   0  242.22   26.43
   7   5   1  517.36   38.22
   7   5   2   75.28   14.61
   7   5   3   53.65   12.55
   7   5   4   98.19   18.93
   7   5   5   39.43   12.06
   7   6  -7    1.84    3.72
   7   6  -6   62.12   15.23
   7   6  -5   17.06    8.41
   7   6  -4   62.75   14.92
   7   6  -3    4.32    4.53
   7   6  -2   35.26   11.23
   7   6  -1    3.03    3.77
   7   6   0   26.87    8.76
   7   6   1   41.82   11.21
   7   6   2   14.53    6.98
   7   6   3  118.30   18.26
   7   7  -6    0.74    3.54
   7   7  -5  322.90   35.08
   7   7  -4   49.51   13.65
   7   7  -3  574.40   44.86
   7   7  -2  123.56   19.92
   7   7  -1  628.69   44.94
   7   7   0  168.79   22.97
   7   7   1  695.04   46.03
   7   7   2  329.61   31.70
   7   7   3  451.19   36.63
   7   8  -4  723.82   52.37
   7   8  -3    1.33    6.04
   7   8  -2  592.22   45.88
   7   8  -1   -2.55    4.27
   7   8   0  334.54   32.89
   8 -10  -7  165.23   21.29
   8 -10  -7  222.38   28.88
   8 -10  -6   38.49    9.62
   8 -10  -6   34.00   11.58
   8 -10  -5  528.94   44.54
   8 -10  -4    2.91    5.43
   8 -10  -3  681.49   51.35
   8 -10  -2    0.04    5.84
   8 -10  -1  550.22   46.59
   8 -10   0   33.02   12.30
   8 -10   1 1099.76   66.54
   8 -10   2  109.94   21.29
   8  -9  -8  295.39   31.79
   8  -9  -8  274.67   28.05
   8  -9  -7  130.12   18.49
   8  -9  -7  118.70   20.60
   8  -9  -6  391.88   36.81
   8  -9  -6  448.43   32.27
   8  -9  -5  351.57   35.29
   8  -9  -5  359.80   27.34
   8  -9  -4  462.20   40.61
   8  -9  -4  450.97   28.59
   8  -9  -3   30.21    7.30
   8  -9  -3   19.78    9.00
   8  -9  -2  604.03   46.41
   8  -9  -1   15.12    7.54
   8  -9   0  435.02   39.94
   8  -9   1   12.87    7.49
   8  -9   2  200.56   27.40
   8  -9   3   17.51    8.42
   8  -9   4  109.52   20.71
   8  -9   5   23.66    9.65
   8  -9   6   14.64    9.45
   8  -8  -9   41.91   11.44
   8  -8  -8   64.42   14.30
   8  -8  -7   23.52    9.15
   8  -8  -6   19.66    8.48
   8  -8  -5  179.44   24.49
   8  -8  -4   25.63    9.70
   8  -8  -3   -0.56    4.23
   8  -8  -2    5.20    3.21
   8  -8  -2    2.66    2.93
   8  -8  -1    0.19    1.16
   8  -8  -1    5.27    5.18
   8  -8   0    3.69    4.60
   8  -8   1    4.33    3.86
   8  -8   2   -0.97    4.46
   8  -8   3   79.70   16.86
   8  -8   4   13.47    9.15
   8  -8   5   11.50    7.59
   8  -8   6   78.22   16.80
   8  -8   7   27.74    9.59
   8  -8   8  201.80   28.50
   8  -8   9   -3.96    4.52
   8  -7  -9    3.42    3.44
   8  -7  -8   36.34   11.19
   8  -7  -7    8.99    5.85
   8  -7  -6  126.88   20.11
   8  -7  -6  146.45   16.94
   8  -7  -5   22.12    6.77
   8  -7  -5   22.45    8.86
   8  -7  -4  204.71   25.25
   8  -7  -4  215.01   20.44
   8  -7  -3   90.46   13.52
   8  -7  -3   78.76   15.60
   8  -7  -2  496.52   39.70
   8  -7  -1   38.71   11.37
   8  -7   0  607.63   44.16
   8  -7   1  344.37   33.22
   8  -7   2  681.78   47.07
   8  -7   3  725.99   48.84
   8  -7   4  452.28   23.96
   8  -7   4  393.03   36.03
   8  -7   5  888.12   36.80
   8  -7   5  781.99   51.36
   8  -7   6  350.40   24.83
   8  -7   6  327.90   33.77
   8  -7   7  940.63   57.30
   8  -7   8   99.55   18.89
   8  -7   9  568.14   45.55
   8  -7  10  134.87   19.01
   8  -6 -10  104.28   18.89
   8  -6  -9  656.44   43.97
   8  -6  -8   18.89    6.51
   8  -6  -8   12.06    5.82
   8  -6  -7 1046.09   55.55
   8  -6  -7 1121.73   50.28
   8  -6  -6   51.97   10.84
   8  -6  -5 1039.14   47.23
   8  -6  -4  100.06   17.18
   8  -6  -4  119.96   16.06
   8  -6  -3 1918.94   33.64
   8  -6  -3 1886.55   74.72
   8  -6  -3 1877.25   63.39
   8  -6  -2  326.55   13.75
   8  -6  -2  310.14   30.35
   8  -6  -2  297.50   25.40
   8  -6  -2  306.25   23.30
   8  -6  -1 1692.08   33.07
   8  -6  -1 1654.26   70.11
   8  -6  -1 1685.79   61.09
   8  -6  -1 1593.93   48.61
   8  -6   0   74.92    7.57
   8  -6   0   84.87   16.15
   8  -6   1 1154.55   32.42
   8  -6   1 1158.81   58.99
   8  -6   2  144.59   12.57
   8  -6   2  164.89   22.00
   8  -6   3  913.67   34.20
   8  -6   3  834.20   50.74
   8  -6   4  192.18   17.03
   8  -6   4  177.08   23.43
   8  -6   5  417.33   26.63
   8  -6   5  414.10   36.29
   8  -6   6  111.84   14.64
   8  -6   6  113.51   19.32
   8  -6   7  168.26   19.06
   8  -6   7  123.40   19.90
   8  -6   8  110.55   16.46
   8  -6   8   59.39   13.52
   8  -6   9   13.00    6.53
   8  -6   9   -3.81    5.53
   8  -6  10   29.12    9.28
   8  -5 -10  175.51   22.20
   8  -5  -9  392.50   32.69
   8  -5  -8  312.50   28.22
   8  -5  -7  171.68   20.97
   8  -5  -6  455.37   32.78
   8  -5  -5   11.33    5.15
   8  -5  -4  300.54   25.85
   8  -5  -3   25.82    7.90
   8  -5  -3   26.55    5.19
   8  -5  -2   90.24    9.78
   8  -5  -2   78.90   12.12
   8  -5  -2   96.82   14.67
   8  -5  -1  198.36   15.47
   8  -5  -1  186.38   14.31
   8  -5  -1  201.36   21.60
   8  -5  -1  204.42   17.78
   8  -5   0   22.74    7.27
   8  -5   0   14.10    3.88
   8  -5   0   20.23    5.51
   8  -5   1    2.58    2.27
   8  -5   1   -0.77    1.38
   8  -5   1   -1.78    2.87
   8  -5   2   -6.03    3.03
   8  -5   2    3.29    4.08
   8  -5   3    8.49    3.75
   8  -5   3    3.98    4.69
   8  -5   4   58.11    9.84
   8  -5   4   54.71   12.84
   8  -5   5  124.60   15.23
   8  -5   5   82.84   15.55
   8  -5   6   63.63   11.44
   8  -5   6   48.39   12.90
   8  -5   7  154.00   18.69
   8  -5   7  138.83   20.60
   8  -5   8   33.06    9.50
   8  -5   8   27.50    9.28
   8  -5   9   95.40   16.63
   8  -5   9   82.14   16.34
   8  -5  10   -1.73    3.91
   8  -4 -11   11.40    5.79
   8  -4 -10   13.64    7.55
   8  -4  -9   -0.23    4.41
   8  -4  -8   35.15   10.02
   8  -4  -7   91.40   15.55
   8  -4  -6    7.56    3.47
   8  -4  -6    1.49    2.96
   8  -4  -5  235.92   17.80
   8  -4  -5  191.49   21.56
   8  -4  -4    2.48    1.84
   8  -4  -4   85.89   14.31
   8  -4  -3  358.85   28.77
   8  -4  -2  115.73   16.17
   8  -4  -2  124.72   15.35
   8  -4  -1  597.29   31.40
   8  -4  -1  572.29   36.85
   8  -4   0  250.52   19.00
   8  -4   0  235.35   18.20
   8  -4   0  266.93   25.44
   8  -4   1  492.09   27.43
   8  -4   1  513.47   25.08
   8  -4   1  515.87   35.74
   8  -4   2  463.40   22.31
   8  -4   2  448.56   26.68
   8  -4   3  422.48   26.93
   8  -4   3  422.25   34.22
   8  -4   4  533.41   31.39
   8  -4   4  481.77   36.49
   8  -4   5  142.28   16.97
   8  -4   5  112.32   17.84
   8  -4   6  602.36   36.36
   8  -4   6  554.79   39.94
   8  -4   7   31.47    9.03
   8  -4   7   44.41   10.83
   8  -4   8  628.78   40.87
   8  -4   8  624.35   41.87
   8  -4   9   27.59    9.91
   8  -4  10  909.65   54.17
   8  -3 -12   92.44   18.32
   8  -3 -11  123.66   20.97
   8  -3 -10  252.20   28.74
   8  -3  -9   17.56    7.32
   8  -3  -8  492.00   37.75
   8  -3  -7   26.62    8.90
   8  -3  -6 1012.47   51.51
   8  -3  -5    4.14    3.61
   8  -3  -5    5.91    4.68
   8  -3  -4 1549.63   51.03
   8  -3  -4 1397.65   58.93
   8  -3  -3  111.11   13.72
   8  -3  -3   99.40   15.44
   8  -3  -2 1440.07   50.24
   8  -3  -2 1407.51   58.31
   8  -3  -1  730.78   35.98
   8  -3  -1  723.87   41.97
   8  -3   0  781.84   35.11
   8  -3   0  823.23   45.09
   8  -3   1  379.49   25.85
   8  -3   1  441.71   25.09
   8  -3   1  422.41   32.63
   8  -3   2  921.51   34.45
   8  -3   2  949.14   42.04
   8  -3   3  718.03   37.35
   8  -3   3  696.24   29.01
   8  -3   4  390.54   28.34
   8  -3   5 1014.59   47.36
   8  -3   5  966.86   50.58
   8  -3   6   61.24   12.25
   8  -3   6   85.66   15.20
   8  -3   7 1173.41   55.04
   8  -3   7 1093.59   54.22
   8  -3   8  196.89   23.42
   8  -3   8  134.75   18.87
   8  -3   9  257.72   27.96
   8  -2 -12  136.22   23.55
   8  -2 -11  583.66   46.61
   8  -2 -10  130.83   21.17
   8  -2  -9  711.32   47.95
   8  -2  -8  174.26   23.13
   8  -2  -7 1320.21   61.84
   8  -2  -6   14.27    7.18
   8  -2  -5  525.87   37.27
   8  -2  -4    4.50    3.48
   8  -2  -3  554.62   37.54
   8  -2  -2    8.08    5.99
   8  -2  -1  858.63   46.24
   8  -2   0   40.94   10.28
   8  -2   0   25.95    6.48
   8  -2   1   98.78   15.98
   8  -2   1  106.77   13.00
   8  -2   2   73.30   13.96
   8  -2   2   81.55   13.05
   8  -2   2   61.08    9.59
   8  -2   3  148.17   17.94
   8  -2   3  151.34   14.66
   8  -2   4    7.02    4.20
   8  -2   4    7.05    3.25
   8  -2   5   29.66    9.19
   8  -2   6  144.72   19.31
   8  -2   6  119.10   17.24
   8  -2   7    5.05    4.01
   8  -2   7    8.63    4.27
   8  -2   8  148.36   21.06
   8  -2   8  125.53   17.56
   8  -2   9    5.01    5.17
   8  -1 -12    4.03    5.72
   8  -1 -11   93.39   19.42
   8  -1 -10   10.78    6.02
   8  -1  -9   63.70   14.97
   8  -1  -8   35.70   11.67
   8  -1  -7   12.84    6.97
   8  -1  -6   55.51   13.19
   8  -1  -5    9.80    5.95
   8  -1  -4   19.68    7.19
   8  -1  -3   83.45   14.91
   8  -1  -2  470.35   35.04
   8  -1  -1   14.52    6.22
   8  -1  -1   39.92    9.06
   8  -1   0  517.73   36.80
   8  -1   1  543.98   37.88
   8  -1   2  261.67   26.55
   8  -1   3  375.86   30.26
   8  -1   3  396.51   33.29
   8  -1   4  244.25   24.97
   8  -1   5  560.32   38.39
   8  -1   6  154.30   20.70
   8  -1   7  606.44   42.27
   8  -1   7  593.24   37.91
   8  -1   8   20.45    8.74
   8  -1   9  569.47   43.53
   8   0 -11  252.82   32.61
   8   0 -10  203.68   28.08
   8   0  -9  389.76   37.86
   8   0  -8   32.80   10.94
   8   0  -7  516.14   41.14
   8   0  -6   42.72   11.69
   8   0  -5 1177.45   58.97
   8   0  -4   45.72   11.37
   8   0  -3  777.12   34.43
   8   0  -3  715.79   44.55
   8   0  -2  191.43   18.49
   8   0  -2  226.49   24.89
   8   0  -1  680.12   43.03
   8   0   0  468.53   35.76
   8   0   1  569.68   39.40
   8   0   2  593.50   40.68
   8   0   3  198.46   22.86
   8   0   3  191.23   23.47
   8   0   4  892.18   49.21
   8   0   5   94.27   16.44
   8   0   6  774.71   48.09
   8   0   7    7.92    5.34
   8   0   8  553.68   43.00
   8   1 -10  422.56   41.60
   8   1  -9   20.72    9.83
   8   1  -8  474.43   41.62
   8   1  -7   49.53   13.02
   8   1  -6  791.39   50.93
   8   1  -5  121.12   19.76
   8   1  -4  474.82   37.71
   8   1  -3  278.91   21.83
   8   1  -3  266.94   27.75
   8   1  -2  765.42   38.30
   8   1  -2  764.26   46.86
   8   1  -1  391.24   33.27
   8   1   0  283.80   28.25
   8   1   1  459.38   36.29
   8   1   2   89.08   16.18
   8   1   3  240.85   26.49
   8   1   3  291.42   29.12
   8   1   4   68.01   14.57
   8   1   5  177.21   23.62
   8   1   6   28.15    9.26
   8   1   7   54.11   13.67
   8   2 -10    4.99    4.13
   8   2  -9  298.89   35.09
   8   2  -8   -9.19    6.55
   8   2  -7  246.74   30.07
   8   2  -6    9.33    5.85
   8   2  -5   96.84   17.96
   8   2  -4    0.98    2.27
   8   2  -3   -1.38    2.99
   8   2  -2   49.93   12.33
   8   2  -1    2.75    2.71
   8   2   0   52.25   12.44
   8   2   1   -0.97    2.72
   8   2   2  436.30   36.09
   8   2   3   17.35    6.92
   8   2   4  516.96   40.77
   8   2   5    3.23    4.92
   8   2   6  545.10   43.50
   8   3  -9   33.05   11.95
   8   3  -8  461.64   43.26
   8   3  -7   12.83    7.24
   8   3  -6  483.23   41.98
   8   3  -5  141.96   22.19
   8   3  -4  689.46   48.25
   8   3  -3  270.12   30.00
   8   3  -2  516.28   40.53
   8   3  -1  529.72   40.58
   8   3   0  556.68   41.52
   8   3   1 1158.27   59.78
   8   3   2  579.89   42.43
   8   3   3  652.43   45.04
   8   3   4   92.82   18.12
   8   3   5  641.55   48.16
   8   4  -7  671.51   51.96
   8   4  -6   13.22    8.10
   8   4  -5  659.35   49.33
   8   4  -4  134.34   22.05
   8   4  -3  540.09   43.00
   8   4  -2  393.69   36.47
   8   4  -1  418.76   37.06
   8   4   0  138.48   20.89
   8   4   1   18.12    7.34
   8   4   2  365.79   34.00
   8   4   3   33.85   10.52
   8   4   4  285.07   32.39
   8   5  -6  147.59   24.49
   8   5  -5   55.07   14.57
   8   5  -4   23.95    9.74
   8   5  -3   12.16    6.48
   8   5  -2    7.60    4.90
   8   5  -1   -8.79    6.05
   8   5   0    3.84    4.27
   8   5   1    2.91    4.19
   8   5   2    2.74    3.63
   8   5   3   61.33   14.55
   8   6  -4  246.41   31.07
   8   6  -3  285.99   32.49
   8   6  -2  256.08   30.47
   8   6  -1  155.27   23.54
   8   6   0  442.54   39.10
   8   6   1   80.50   16.66
   8   6   2  641.08   46.82
   8   6   3   28.66   10.39
   8   7  -2  193.42   27.61
   8   7  -1  357.15   36.46
   8   7   0  188.11   26.22
   8   7   1  314.40   33.56
   9  -9  -7  246.09   30.80
   9  -9  -7  297.12   27.94
   9  -9  -6    8.26    5.61
   9  -9  -6    9.19    6.89
   9  -9  -5   20.16    8.37
   9  -9  -4   12.50    7.56
   9  -9  -3   94.21   19.34
   9  -9  -2   13.16    8.23
   9  -9  -1   19.78    8.83
   9  -9   0   10.74    6.83
   9  -9   1   -8.87    6.61
   9  -9   2   29.04   11.35
   9  -8  -8    1.90    3.87
   9  -8  -7    6.97    2.90
   9  -8  -6   19.64    9.11
   9  -8  -5   55.54   14.14
   9  -8  -4   28.13    9.80
   9  -8  -3   17.58    8.27
   9  -8  -2  132.45   22.92
   9  -8  -1  242.67   30.02
   9  -8   0   32.32   11.09
   9  -8   1  528.79   45.06
   9  -8   2   -2.99    5.14
   9  -8   3  674.35   51.32
   9  -8   4  -15.89    8.38
   9  -8   5  620.27   50.13
   9  -7  -9  217.69   27.66
   9  -7  -8   42.17   12.51
   9  -7  -7  549.62   43.83
   9  -7  -6  182.59   25.61
   9  -7  -5  947.97   57.77
   9  -7  -5  904.91   46.29
   9  -7  -4  478.13   41.12
   9  -7  -4  529.83   35.94
   9  -7  -3  524.61   43.08
   9  -7  -3  546.82   36.58
   9  -7  -2  487.73   41.62
   9  -7  -1  426.43   38.95
   9  -7   0  896.69   56.87
   9  -7   1  378.10   36.98
   9  -7   2  847.28   55.25
   9  -7   3  230.93   29.32
   9  -7   4  857.45   56.48
   9  -7   5   70.57   16.62
   9  -7   6  443.03   41.19
   9  -7   7    6.76    6.80
   9  -7   8  190.64   27.55
   9  -6 -10  621.46   45.95
   9  -6  -9   18.77    8.22
   9  -6  -7   -1.82    2.55
   9  -6  -6  368.85   31.02
   9  -6  -5   26.14    8.27
   9  -6  -4  317.30   28.60
   9  -6  -3    6.21    4.86
   9  -6  -2  308.04   32.21
   9  -6  -2  341.22   29.48
   9  -6  -1  119.27   17.72
   9  -6  -1  156.72   22.86
   9  -6   0  155.98   23.03
   9  -6   1   -1.62    5.24
   9  -6   2   14.17    7.73
   9  -6   3   41.10    8.22
   9  -6   3   20.67    9.26
   9  -6   4    1.45    1.82
   9  -6   4   12.24    7.43
   9  -6   5    5.68    3.48
   9  -6   5   20.26    9.63
   9  -6   6    6.81    3.81
   9  -6   6    9.50    7.12
   9  -6   7   26.31    9.54
   9  -6   8   -1.69    4.23
   9  -5  -9   38.89   11.31
   9  -5  -8   24.58    8.59
   9  -5  -7    8.36    5.13
   9  -5  -6    0.61    3.71
   9  -5  -5   39.07   10.38
   9  -5  -4   12.77    6.56
   9  -5  -3   32.12   10.39
   9  -5  -2  295.72   28.23
   9  -5  -1  280.84   19.62
   9  -5  -1  294.22   28.05
   9  -5   0  177.73   15.91
   9  -5   0  177.89   22.37
   9  -5   1   86.58   11.47
   9  -5   2  320.46   22.87
   9  -5   2  239.20   27.94
   9  -5   3   -0.09    2.60
   9  -5   3    0.29    4.72
   9  -5   4  339.53   25.63
   9  -5   4  328.61   33.08
   9  -5   5    0.87    3.86
   9  -5   5   13.42    8.43
   9  -5   6  443.14   32.22
   9  -5   6  454.95   39.40
   9  -5   7   68.58   13.46
   9  -5   7   50.12   12.92
   9  -5   8  528.33   38.69
   9  -5   8  511.84   41.61
   9  -5   9  190.44   24.17
   9  -4 -11    8.75    6.15
   9  -4 -10  188.12   25.60
   9  -4  -9    4.85    4.91
   9  -4  -8  182.20   23.91
   9  -4  -7   83.20   16.23
   9  -4  -6  535.75   39.67
   9  -4  -5  265.79   27.63
   9  -4  -4  328.21   30.46
   9  -4  -3  428.00   34.17
   9  -4  -2   99.48   16.62
   9  -4  -1  681.70   43.73
   9  -4   0  105.94   17.37
   9  -4   0  116.04   14.45
   9  -4   1 1137.97   45.88
   9  -4   1 1123.24   56.86
   9  -4   2   -0.62    2.62
   9  -4   3 1398.75   53.33
   9  -4   4   11.70    4.82
   9  -4   4   16.71    7.66
   9  -4   5 1014.06   48.25
   9  -4   5 1039.02   57.43
   9  -4   6   14.83    6.23
   9  -4   6   16.31    8.15
   9  -4   7  506.09   36.73
   9  -4   7  594.22   43.64
   9  -4   8  108.16   18.16
   9  -4   8  112.05   18.51
   9  -4   9  375.39   34.75
   9  -3 -11  308.03   34.69
   9  -3 -10   72.29   16.54
   9  -3  -9  679.14   48.70
   9  -3  -8  108.46   19.17
   9  -3  -7  368.43   34.39
   9  -3  -6  267.77   28.67
   9  -3  -5  592.77   41.85
   9  -3  -4  547.72   40.09
   9  -3  -3  372.05   32.68
   9  -3  -2  573.03   40.49
   9  -3  -1  313.95   30.04
   9  -3   0  557.68   40.16
   9  -3   1  150.65   20.97
   9  -3   1  133.16   16.45
   9  -3   2  285.60   24.93
   9  -3   3   30.76    8.85
   9  -3   4   82.80   14.08
   9  -3   5   65.05   12.84
   9  -3   5   49.40   12.61
   9  -3   6   30.38    9.82
   9  -3   6   25.68    9.63
   9  -3   7   46.23   11.60
   9  -3   7   65.32   14.28
   9  -3   8    6.88    4.81
   9  -2 -11   15.82    9.67
   9  -2 -10  142.08   23.34
   9  -2  -9    3.05    5.64
   9  -2  -8   96.46   18.49
   9  -2  -7    7.69    4.22
   9  -2  -6  139.83   21.50
   9  -2  -5   17.80    7.88
   9  -2  -4    6.23    5.59
   9  -2  -3   79.38   15.26
   9  -2  -2    2.06    2.96
   9  -2  -1  147.30   20.91
   9  -2   0    3.39    5.86
   9  -2   1  399.48   34.69
   9  -2   2    7.97    5.08
   9  -2   2    5.63    4.16
   9  -2   3  648.92   40.50
   9  -2   4    3.26    2.76
   9  -2   5  547.56   38.59
   9  -2   6   30.01   10.36
   9  -2   6   24.39    9.12
   9  -2   7  383.97   34.16
   9  -2   7  363.64   32.74
   9  -2   8   48.26   13.29
   9  -1 -10   12.75    7.48
   9  -1  -9  181.98   26.62
   9  -1  -8  128.83   22.13
   9  -1  -7  265.58   30.67
   9  -1  -6  253.55   29.48
   9  -1  -5  359.96   34.49
   9  -1  -4  451.83   37.95
   9  -1  -3  395.50   35.14
   9  -1  -2  817.23   50.14
   9  -1  -1  131.70   19.95
   9  -1   0  972.68   54.70
   9  -1   1   70.00   15.00
   9  -1   2  776.00   45.56
   9  -1   2  939.49   54.67
   9  -1   3    9.90    6.52
   9  -1   4  618.61   42.14
   9  -1   5  101.71   17.54
   9  -1   6  387.81   35.06
   9  -1   7  277.80   30.46
   9   0  -9  218.84   30.17
   9   0  -8  622.01   48.87
   9   0  -7  177.46   25.43
   9   0  -6  412.82   38.26
   9   0  -5  461.10   39.57
   9   0  -4  192.28   25.38
   9   0  -3  759.94   49.93
   9   0  -2   71.65   15.25
   9   0  -1  653.44   45.46
   9   0   0   38.38   11.12
   9   0   1  474.70   39.09
   9   0   2   28.56    9.43
   9   0   3  604.40   42.79
   9   0   3  648.00   46.24
   9   0   4   42.94   11.72
   9   0   5  275.83   30.05
   9   0   6    5.28    2.58
   9   1  -8   38.65   12.52
   9   1  -7   54.51   14.87
   9   1  -6  136.40   22.73
   9   1  -5  102.65   19.45
   9   1  -4   48.92   13.15
   9   1  -3  106.10   19.31
   9   1  -2   -0.27    2.89
   9   1  -1    8.96    5.89
   9   1   0   -3.18    4.86
   9   1   1   17.09    7.82
   9   1   2   59.05   14.03
   9   1   3  130.23   21.30
   9   1   3  128.39   20.61
   9   1   4  105.37   18.67
   9   1   5  110.59   19.60
   9   2  -7  349.35   38.00
   9   2  -6   60.72   15.68
   9   2  -5  343.46   36.00
   9   2  -4  222.58   28.22
   9   2  -3  620.47   47.07
   9   2  -2   40.57   11.93
   9   2  -1  865.42   54.69
   9   2   0    7.40    6.29
   9   2   1  922.86   56.09
   9   2   2   13.44    7.10
   9   2   3 1000.07   59.44
   9   2   3  961.10   58.36
   9   2   4   24.89   10.89
   9   3  -6  313.83   36.20
   9   3  -5  346.60   37.19
   9   3  -4  452.87   41.62
   9   3  -3  117.08   20.93
   9   3  -2  581.53   45.92
   9   3  -1   17.90    8.73
   9   3   0  605.37   46.33
   9   3   1   12.19    6.69
   9   3   2  285.60   31.68
   9   3   3   42.16   12.22
   9   4  -4   48.28   14.46
   9   4  -3  120.24   21.62
   9   4  -2   21.68    9.79
   9   4  -1    2.75    3.78
   9   4   0   11.32    7.07
   9   4   1   38.01   12.10
   9   4   2   -2.44    4.01
  10  -7  -6  272.64   32.76
  10  -7  -5  350.01   37.52
  10  -7  -5  411.19   34.23
  10  -7  -4  172.78   26.36
  10  -7  -4  203.90   24.16
  10  -7  -3  343.81   36.79
  10  -7  -3  380.98   33.23
  10  -7  -2   92.02   18.84
  10  -7  -1  186.52   27.54
  10  -7   0   16.84    8.78
  10  -7   1   98.69   19.88
  10  -7   2    2.42    6.26
  10  -6  -7   16.27    8.76
  10  -6  -6   11.28    5.68
  10  -6  -5    6.45    3.74
  10  -6  -4   69.15   14.34
  10  -6  -3   34.46   10.39
  10  -6  -2   48.09   12.16
  10  -6  -2   36.25   12.40
  10  -6  -1   -1.60    3.84
  10  -6   0  170.02   25.63
  10  -6   1    7.08    6.28
  10  -6   2  164.85   25.28
  10  -6   3   14.26    8.88
  10  -6   4  151.86   24.93
  10  -6   5   71.19   17.13
  10  -5  -9   75.27   17.38
  10  -5  -8   53.43   15.10
  10  -5  -7  214.51   26.64
  10  -5  -6   42.83   11.63
  10  -5  -5  292.38   30.36
  10  -5  -4   26.55    9.82
  10  -5  -3  566.62   42.20
  10  -5  -2    4.98    4.31
  10  -5  -1  440.33   37.52
  10  -5   0  140.44   21.29
  10  -5   2  203.35   27.17
  10  -5   3  393.17   38.24
  10  -5   4  409.86   39.52
  10  -5   5  470.77   42.76
  10  -5   6  643.28   50.00
  10  -5   7  123.96   21.96
  10  -4 -10  275.21   33.08
  10  -4  -9  190.08   26.85
  10  -4  -8  489.41   42.12
  10  -4  -7  116.95   19.92
  10  -4  -6  586.92   44.57
  10  -4  -5   24.60    8.93
  10  -4  -4  727.88   48.52
  10  -4  -3    1.15    4.08
  10  -4  -2  788.27   50.69
  10  -4  -1   16.47    7.27
  10  -4   0  974.39   44.96
  10  -4   0  960.02   56.00
  10  -4   1    8.55    3.67
  10  -4   2  499.28   33.33
  10  -4   3   52.27   11.37
  10  -4   4  196.94   22.10
  10  -4   4  200.87   27.19
  10  -4   5   12.43    6.15
  10  -4   5   13.74    7.09
  10  -4   6   59.50   12.98
  10  -4   6   41.31   13.34
  10  -4   7   -8.93    5.73
  10  -4   7   -1.33    7.20
  10  -3  -9   82.50   17.79
  10  -3  -8   89.91   18.85
  10  -3  -7   44.38   12.22
  10  -3  -6   77.50   16.09
  10  -3  -5   51.20   13.50
  10  -3  -4   53.51   13.32
  10  -3  -3   23.36    9.02
  10  -3  -2  130.23   21.14
  10  -3  -1   80.50   16.66
  10  -3   0   46.53   12.67
  10  -3   0   13.91    5.86
  10  -3   1  132.76   21.32
  10  -3   1   88.58   14.74
  10  -3   2  127.04   18.20
  10  -3   3   53.30   11.69
  10  -3   4  145.39   20.51
  10  -3   5   72.55   14.55
  10  -3   5   68.44   15.54
  10  -3   6  176.60   23.17
  10  -3   6  132.25   21.65
  10  -3   7   97.37   18.19
  10  -2  -8  174.52   26.43
  10  -2  -7   23.44   10.47
  10  -2  -6  472.15   41.70
  10  -2  -5   20.83    8.89
  10  -2  -4  546.96   44.03
  10  -2  -3    5.36    3.05
  10  -2  -2  766.90   51.21
  10  -2  -1   32.57   10.89
  10  -2   0  574.81   44.44
  10  -2   1  101.78   19.01
  10  -2   1   72.68   14.12
  10  -2   2  423.82   34.71
  10  -2   2  531.39   43.69
  10  -2   3  251.36   27.02
  10  -2   4  369.30   33.25
  10  -2   5  509.33   40.13
  10  -2   6  221.02   26.95
  10  -2   6  194.81   25.83
  10  -1  -7  406.42   40.51
  10  -1  -6    6.88    4.37
  10  -1  -5  464.36   41.87
  10  -1  -4    2.40    4.44
  10  -1  -3  641.23   47.88
  10  -1  -2   61.01   15.12
  10  -1  -1  421.21   38.68
  10  -1   0  210.08   27.39
  10  -1   1  552.16   44.63
  10  -1   2  301.22   30.51
  10  -1   2  316.73   33.90
  10  -1   3  127.58   19.82
  10  -1   4  262.03   29.33
  10  -1   5  139.44   21.56
  10   0  -6  282.26   34.23
  10   0  -5    5.93    4.73
  10   0  -4  115.93   20.95
  10   0  -3   20.34    9.55
  10   0  -2  161.98   24.35
  10   0  -1   -6.69    5.41
  10   0   0   69.97   16.20
  10   0   1    0.30    5.36
  10   0   2   31.97   11.44
  10   0   2   29.88   10.34
  10   0   3  121.35   20.64
  10   0   4    8.36    7.87
  10   1  -5  189.15   28.24
  10   1  -4   86.55   18.92
  10   1  -3  168.87   26.25
  10   1  -2   78.54   17.57
  10   1  -1  441.62   41.01
  10   1   0  274.56   32.08
  10   1   1  453.19   41.62
  10   1   3  481.99   42.37
  11  -7  -4    8.61    6.07
  11  -7  -3    4.03    5.01
  11  -6  -6   -3.45    5.79
  11  -6  -5   84.95   17.29
  11  -6  -4   38.81   10.25
  11  -6  -3  157.52   23.34
  11  -6  -2  284.70   31.65
  11  -5  -7   34.94   11.01
  11  -5  -6  476.97   41.99
  11  -5  -5  171.48   24.99
  11  -5  -4  517.24   42.92
  11  -5  -3  182.71   25.40
  11  -5  -2  529.73   43.80
  11  -5  -1  251.12   30.10
  11  -4  -6  -12.36    7.46
  11  -4  -5  171.81   25.71
  11  -4  -4   16.28    7.23
  11  -4  -3   55.83   14.83
  11  -4  -2    2.30    3.78
  11  -4  -1   86.17   18.25
  11  -4   0  126.46   22.00
  11  -3  -5   94.38   19.19
  11  -3  -4  222.31   29.40
  11  -3  -3  143.95   23.68
  11  -3  -2  331.09   35.86
  11  -3  -1  219.80   28.82
  11  -3   0  208.08   28.49
  11  -3   0  214.89   24.32
  11  -3   1  274.10   27.96
  11  -3   2  181.90   22.75
  11  -3   3  438.71   36.14
  11  -3   4   -3.32    6.20
  11  -3   5  345.21   33.30
  11  -2  -2  233.56   30.55
  11  -2   1   13.72    6.82
  11  -2   2  429.20   37.24
  11  -2   3   18.40    8.24
  11  -2   4  356.69   34.83
  11  -1   1   37.11   11.87
  11  -1   2   22.33    8.43
  11  -1   3   20.95    9.53
   0   0   0    0.00    0.00


TITL sERC019-R1-rf in P1
REM P1 (#1 in standard setting)
CELL 0.71073   8.718521   9.808521  11.566340  94.4314  95.6026 104.8368
ZERR    2.00   0.000253   0.000258   0.000295   0.0021   0.0022   0.0024
LATT -1
SFAC C H O P I
UNIT 38.00 34.00 2.00 2.00 4.00
TREF
HKLF 4
END
_computing_structure_solution     'SHELXT 2014/5 (Sheldrick, 2014)'
;
_shelx_hkl_checksum              13731
_olex2_submission_special_instructions 'No special instructions were received'
_oxdiff_exptl_absorpt_empirical_details
;
Empirical correction (ABSPACK) includes:
- Absorption correction using spherical harmonics
- Frame scaling
;
_oxdiff_exptl_absorpt_empirical_full_max 1.236
_oxdiff_exptl_absorpt_empirical_full_min 0.693
loop_
_space_group_symop_operation_xyz
'x, y, z'
'-x, -y, -z'
loop_
_atom_site_label
_atom_site_type_symbol
_atom_site_fract_x
_atom_site_fract_y
_atom_site_fract_z
_atom_site_U_iso_or_equiv
_atom_site_adp_type
_atom_site_occupancy
_atom_site_site_symmetry_order
_atom_site_calc_flag
_atom_site_refinement_flags_posn
I1 I 0.26596(2) 0.39487(2) 0.24583(2) 0.01264(5) Uani 1 1 d .
I2 I 0.01855(2) 0.08713(2) 0.22017(2) 0.01734(6) Uani 1 1 d .
P1 P 0.45107(8) 0.63580(7) 0.26814(6) 0.01157(14) Uani 1 1 d .
O1 O 0.1851(2) 0.67216(19) 0.11207(15) 0.0167(4) Uani 1 1 d .
C1 C 0.4640(3) 0.7171(3) 0.1344(2) 0.0136(5) Uani 1 1 d .
C15 C 0.3403(3) 0.8624(3) 0.3506(2) 0.0152(6) Uani 1 1 d .
H15 H 0.3404 0.8885 0.2750 0.018 Uiso 1 1 calc R
C6 C 0.3236(3) 0.7262(3) 0.0674(2) 0.0139(6) Uani 1 1 d .
C2 C 0.6123(3) 0.7736(3) 0.0973(2) 0.0165(6) Uani 1 1 d .
H2 H 0.7050 0.7687 0.1420 0.020 Uiso 1 1 calc R
C5 C 0.3342(3) 0.7913(3) -0.0359(2) 0.0176(6) Uani 1 1 d .
H5 H 0.2426 0.7989 -0.0804 0.021 Uiso 1 1 calc R
C13 C 0.7028(3) 0.5156(3) 0.2548(2) 0.0148(6) Uani 1 1 d .
H13 H 0.6383 0.4570 0.1920 0.018 Uiso 1 1 calc R
C8 C 0.6472(3) 0.6177(3) 0.3161(2) 0.0129(5) Uani 1 1 d .
C14 C 0.3909(3) 0.7441(3) 0.3782(2) 0.0121(5) Uani 1 1 d .
C16 C 0.2897(3) 0.9413(3) 0.4367(2) 0.0182(6) Uani 1 1 d .
H16 H 0.2540 1.0195 0.4183 0.022 Uiso 1 1 calc R
C17 C 0.2921(3) 0.9044(3) 0.5489(2) 0.0200(6) Uani 1 1 d .
H17 H 0.2589 0.9582 0.6063 0.024 Uiso 1 1 calc R
C3 C 0.6227(3) 0.8371(3) -0.0057(2) 0.0191(6) Uani 1 1 d .
H3 H 0.7218 0.8742 -0.0307 0.023 Uiso 1 1 calc R
C19 C 0.3911(3) 0.7057(3) 0.4919(2) 0.0168(6) Uani 1 1 d .
H19 H 0.4228 0.6256 0.5103 0.020 Uiso 1 1 calc R
C9 C 0.7438(3) 0.7051(3) 0.4102(2) 0.0174(6) Uani 1 1 d .
H9 H 0.7067 0.7732 0.4511 0.021 Uiso 1 1 calc R
C11 C 0.9510(3) 0.5899(3) 0.3817(2) 0.0198(6) Uani 1 1 d .
H11 H 1.0533 0.5812 0.4033 0.024 Uiso 1 1 calc R
C12 C 0.8549(3) 0.5022(3) 0.2882(2) 0.0174(6) Uani 1 1 d .
H12 H 0.8925 0.4342 0.2477 0.021 Uiso 1 1 calc R
C10 C 0.8954(3) 0.6903(3) 0.4429(2) 0.0219(6) Uani 1 1 d .
H10 H 0.9598 0.7481 0.5062 0.026 Uiso 1 1 calc R
C18 C 0.3439(3) 0.7875(3) 0.5769(2) 0.0203(6) Uani 1 1 d .
H18 H 0.3470 0.7640 0.6533 0.024 Uiso 1 1 calc R
C7 C 0.0410(3) 0.6933(3) 0.0535(2) 0.0240(7) Uani 1 1 d .
H7A H 0.0212 0.6461 -0.0245 0.036 Uiso 1 1 calc GR
H7B H 0.0529 0.7930 0.0504 0.036 Uiso 1 1 calc GR
H7C H -0.0472 0.6551 0.0955 0.036 Uiso 1 1 calc GR
C4 C 0.4843(4) 0.8445(3) -0.0709(2) 0.0191(6) Uani 1 1 d .
H4 H 0.4916 0.8865 -0.1403 0.023 Uiso 1 1 calc R
loop_
_atom_site_aniso_label
_atom_site_aniso_U_11
_atom_site_aniso_U_22
_atom_site_aniso_U_33
_atom_site_aniso_U_23
_atom_site_aniso_U_13
_atom_site_aniso_U_12
I1 0.01066(9) 0.01338(9) 0.01398(9) 0.00034(7) 0.00001(7) 0.00423(7)
I2 0.01638(10) 0.01590(10) 0.01801(10) 0.00292(7) 0.00058(7) 0.00141(7)
P1 0.0097(3) 0.0129(3) 0.0126(3) 0.0004(3) 0.0004(3) 0.0045(3)
O1 0.0114(10) 0.0217(10) 0.0176(9) 0.0057(8) -0.0021(8) 0.0057(8)
C1 0.0155(14) 0.0124(13) 0.0123(12) -0.0016(10) 0.0010(11) 0.0038(11)
C15 0.0122(14) 0.0158(13) 0.0155(13) 0.0002(11) -0.0025(11) 0.0021(11)
C6 0.0151(14) 0.0119(13) 0.0141(13) -0.0023(10) 0.0012(11) 0.0037(11)
C2 0.0179(15) 0.0136(13) 0.0191(14) -0.0006(11) 0.0024(12) 0.0067(11)
C5 0.0229(16) 0.0155(14) 0.0127(13) -0.0023(11) -0.0034(12) 0.0052(12)
C13 0.0148(14) 0.0145(13) 0.0138(13) -0.0001(11) 0.0001(11) 0.0025(11)
C8 0.0090(13) 0.0127(13) 0.0163(13) 0.0023(11) 0.0006(11) 0.0019(11)
C14 0.0077(13) 0.0150(13) 0.0122(12) -0.0017(10) 0.0011(10) 0.0014(10)
C16 0.0139(14) 0.0164(14) 0.0248(15) -0.0033(12) -0.0026(12) 0.0083(11)
C17 0.0130(14) 0.0196(15) 0.0235(15) -0.0081(12) 0.0035(12) -0.0001(12)
C3 0.0222(16) 0.0146(14) 0.0217(14) -0.0006(11) 0.0115(12) 0.0045(12)
C19 0.0166(15) 0.0119(13) 0.0208(14) 0.0028(11) 0.0003(12) 0.0027(11)
C9 0.0144(14) 0.0162(14) 0.0206(14) -0.0023(11) 0.0030(12) 0.0033(11)
C11 0.0080(14) 0.0301(16) 0.0238(15) 0.0109(13) 0.0046(12) 0.0064(12)
C12 0.0151(14) 0.0191(14) 0.0215(14) 0.0061(11) 0.0071(12) 0.0080(12)
C10 0.0139(15) 0.0274(16) 0.0197(14) -0.0030(12) -0.0043(12) 0.0007(12)
C18 0.0211(16) 0.0201(15) 0.0163(14) -0.0006(11) 0.0045(12) -0.0008(12)
C7 0.0150(15) 0.0327(17) 0.0258(16) 0.0097(13) -0.0007(13) 0.0086(13)
C4 0.0323(17) 0.0134(14) 0.0117(13) 0.0008(11) 0.0064(12) 0.0049(12)
loop_
_atom_type_symbol
_atom_type_description
_atom_type_scat_dispersion_real
_atom_type_scat_dispersion_imag
_atom_type_scat_source
C C 0.0033 0.0016 'International Tables Vol C Tables 4.2.6.8 and 6.1.1.4'
H H 0.0000 0.0000 'International Tables Vol C Tables 4.2.6.8 and 6.1.1.4'
O O 0.0106 0.0060 'International Tables Vol C Tables 4.2.6.8 and 6.1.1.4'
P P 0.1023 0.0942 'International Tables Vol C Tables 4.2.6.8 and 6.1.1.4'
I I -0.4742 1.8119 'International Tables Vol C Tables 4.2.6.8 and 6.1.1.4'
loop_
_exptl_crystal_face_index_h
_exptl_crystal_face_index_k
_exptl_crystal_face_index_l
_exptl_crystal_face_perp_dist
0 0 1 0.0415
0 1 0 0.0592
0 0 -1 0.0361
0 -1 0 0.0222
-3 1 -1 0.0527
3 -1 0 0.0836
loop_
_geom_angle_atom_site_label_1
_geom_angle_atom_site_label_2
_geom_angle_atom_site_label_3
_geom_angle
C1 P1 I1 113.58(8)
C1 P1 C8 107.17(12)
C1 P1 C14 110.88(12)
C8 P1 I1 106.86(8)
C14 P1 I1 108.73(9)
C14 P1 C8 109.49(12)
C6 O1 C7 117.4(2)
C6 C1 P1 119.9(2)
C2 C1 P1 120.4(2)
C2 C1 C6 119.7(2)
C14 C15 H15 120.2
C16 C15 H15 120.2
C16 C15 C14 119.5(2)
O1 C6 C1 115.5(2)
O1 C6 C5 124.6(2)
C5 C6 C1 119.8(2)
C1 C2 H2 119.7
C3 C2 C1 120.5(3)
C3 C2 H2 119.7
C6 C5 H5 120.6
C4 C5 C6 118.8(3)
C4 C5 H5 120.6
C8 C13 H13 120.2
C12 C13 H13 120.2
C12 C13 C8 119.5(2)
C13 C8 P1 118.46(19)
C9 C8 P1 121.38(19)
C9 C8 C13 120.1(2)
C15 C14 P1 120.91(19)
C15 C14 C19 120.0(2)
C19 C14 P1 119.06(19)
C15 C16 H16 119.8
C17 C16 C15 120.3(3)
C17 C16 H16 119.8
C16 C17 H17 119.9
C16 C17 C18 120.2(2)
C18 C17 H17 119.9
C2 C3 H3 120.4
C4 C3 C2 119.2(3)
C4 C3 H3 120.4
C14 C19 H19 120.2
C18 C19 C14 119.5(2)
C18 C19 H19 120.2
C8 C9 H9 120.1
C10 C9 C8 119.8(2)
C10 C9 H9 120.1
C12 C11 H11 119.9
C10 C11 H11 119.9
C10 C11 C12 120.3(3)
C13 C12 C11 120.1(2)
C13 C12 H12 119.9
C11 C12 H12 119.9
C9 C10 H10 119.9
C11 C10 C9 120.1(3)
C11 C10 H10 119.9
C17 C18 H18 119.8
C19 C18 C17 120.3(3)
C19 C18 H18 119.8
O1 C7 H7A 109.5
O1 C7 H7B 109.5
O1 C7 H7C 109.5
H7A C7 H7B 109.5
H7A C7 H7C 109.5
H7B C7 H7C 109.5
C5 C4 H4 119.0
C3 C4 C5 122.0(2)
C3 C4 H4 119.0
loop_
_geom_bond_atom_site_label_1
_geom_bond_atom_site_label_2
_geom_bond_distance
I1 P1 2.4752(7)
P1 C1 1.794(3)
P1 C8 1.803(3)
P1 C14 1.797(2)
O1 C6 1.357(3)
O1 C7 1.439(3)
C1 C6 1.410(4)
C1 C2 1.393(4)
C15 H15 0.9300
C15 C14 1.391(4)
C15 C16 1.388(4)
C6 C5 1.397(4)
C2 H2 0.9300
C2 C3 1.387(4)
C5 H5 0.9300
C5 C4 1.391(4)
C13 H13 0.9300
C13 C8 1.395(3)
C13 C12 1.386(4)
C8 C9 1.391(3)
C14 C19 1.396(4)
C16 H16 0.9300
C16 C17 1.374(4)
C17 H17 0.9300
C17 C18 1.385(4)
C3 H3 0.9300
C3 C4 1.381(4)
C19 H19 0.9300
C19 C18 1.380(4)
C9 H9 0.9300
C9 C10 1.385(4)
C11 H11 0.9300
C11 C12 1.387(4)
C11 C10 1.382(4)
C12 H12 0.9300
C10 H10 0.9300
C18 H18 0.9300
C7 H7A 0.9600
C7 H7B 0.9600
C7 H7C 0.9600
C4 H4 0.9300
loop_
_exptl_oxdiff_crystal_face_indexfrac_h
_exptl_oxdiff_crystal_face_indexfrac_k
_exptl_oxdiff_crystal_face_indexfrac_l
_exptl_oxdiff_crystal_face_x
_exptl_oxdiff_crystal_face_y
_exptl_oxdiff_crystal_face_z
0.0003 -0.0001 0.9993 0.0066 -0.0543 0.0291
-0.0002 0.9998 0.0001 0.0080 -0.0415 -0.0622
-0.0003 0.0001 -0.9993 -0.0066 0.0543 -0.0291
0.0002 -0.9998 -0.0001 -0.0080 0.0415 0.0622
-2.9947 0.9988 -1.0013 0.2330 0.1037 -0.0408
2.9944 -0.9986 0.0019 -0.2396 -0.0494 0.0117
