#------------------------------------------------------------------------------
#$Date: 2017-04-04 16:05:38 +0300 (Tue, 04 Apr 2017) $
#$Revision: 194820 $
#$URL: file:///home/coder/svn-repositories/cod/cif/4/34/55/4345504.cif $
#------------------------------------------------------------------------------
#
# This file is available in the Crystallography Open Database (COD),
# http://www.crystallography.net/
#
# All data on this site have been placed in the public domain by the
# contributors.
#
data_4345504
loop_
_publ_author_name
'Sun, Xiao-Fen'
'Wang, Zhongxia'
'Li, Peng-Fei'
'Liao, Wei-Qiang'
'Ye, Heng-Yun'
'Zhang, Yi'
_publ_section_title
;
 Tunable Dielectric Responses Triggered by Dimensionality Modification in
 Organic-Inorganic Hybrid Phase Transition Compounds (C5H6N)CdnCl2n+1 (n =
 1 and 2).
;
_journal_issue                   6
_journal_name_full               'Inorganic chemistry'
_journal_page_first              3506
_journal_page_last               3511
_journal_paper_doi               10.1021/acs.inorgchem.6b03074
_journal_volume                  56
_journal_year                    2017
_chemical_formula_moiety         '2(Cd Cl2.50), C5 H6 N'
_chemical_formula_sum            'C5 H6 Cd2 Cl5 N'
_chemical_formula_weight         482.18
_space_group_crystal_system      orthorhombic
_space_group_IT_number           59
_space_group_name_Hall           '-P 2c 2bc'
_space_group_name_H-M_alt        'P n m m'
_symmetry_space_group_name_Hall  '-P 2c 2bc'
_symmetry_space_group_name_H-M   'P n m m :2'
_atom_sites_solution_hydrogens   geom
_audit_creation_method           SHELXL-2014/7
_cell_angle_alpha                90
_cell_angle_beta                 90
_cell_angle_gamma                90
_cell_formula_units_Z            2
_cell_length_a                   10.262(2)
_cell_length_b                   15.262(3)
_cell_length_c                   3.8035(8)
_cell_measurement_reflns_used    2323
_cell_measurement_temperature    293(2)
_cell_measurement_theta_max      27.448
_cell_measurement_theta_min      3.327
_cell_volume                     595.7(2)
_computing_structure_refinement  'SHELXL-2014/7 (Sheldrick, 2014)'
_diffrn_ambient_temperature      293(2)
_diffrn_measured_fraction_theta_full 0.995
_diffrn_measured_fraction_theta_max 0.996
_diffrn_measurement_device_type  'Rigaku, SCXmini'
_diffrn_measurement_method       '\w scans'
_diffrn_radiation_type           MoK\a
_diffrn_radiation_wavelength     0.71073
_diffrn_reflns_av_R_equivalents  0.0238
_diffrn_reflns_av_unetI/netI     0.0171
_diffrn_reflns_Laue_measured_fraction_full 0.995
_diffrn_reflns_Laue_measured_fraction_max 0.996
_diffrn_reflns_limit_h_max       13
_diffrn_reflns_limit_h_min       -9
_diffrn_reflns_limit_k_max       19
_diffrn_reflns_limit_k_min       -19
_diffrn_reflns_limit_l_max       4
_diffrn_reflns_limit_l_min       -4
_diffrn_reflns_number            4010
_diffrn_reflns_point_group_measured_fraction_full 0.995
_diffrn_reflns_point_group_measured_fraction_max 0.996
_diffrn_reflns_theta_full        25.242
_diffrn_reflns_theta_max         27.448
_diffrn_reflns_theta_min         3.327
_diffrn_source                   'fine-focus sealed tube'
_exptl_absorpt_coefficient_mu    4.644
_exptl_crystal_colour            colourless
_exptl_crystal_density_diffrn    2.688
_exptl_crystal_description       ribbon
_exptl_crystal_F_000             474
_refine_diff_density_max         0.548
_refine_diff_density_min         -0.824
_refine_diff_density_rms         0.108
_refine_ls_extinction_coef       0.0014(4)
_refine_ls_extinction_expression Fc^*^=kFc[1+0.001xFc^2^\l^3^/sin(2\q)]^-1/4^
_refine_ls_extinction_method     'SHELXL-2014/7 (Sheldrick 2014'
_refine_ls_goodness_of_fit_ref   1.179
_refine_ls_hydrogen_treatment    constr
_refine_ls_matrix_type           full
_refine_ls_number_parameters     44
_refine_ls_number_reflns         807
_refine_ls_number_restraints     0
_refine_ls_restrained_S_all      1.179
_refine_ls_R_factor_all          0.0213
_refine_ls_R_factor_gt           0.0199
_refine_ls_shift/su_max          0.001
_refine_ls_shift/su_mean         0.000
_refine_ls_structure_factor_coef Fsqd
_refine_ls_weighting_details
'w=1/[\s^2^(Fo^2^)+(0.0206P)^2^+0.4234P] where P=(Fo^2^+2Fc^2^)/3'
_refine_ls_weighting_scheme      calc
_refine_ls_wR_factor_gt          0.0462
_refine_ls_wR_factor_ref         0.0466
_reflns_Friedel_coverage         0.000
_reflns_number_gt                778
_reflns_number_total             807
_reflns_threshold_expression     'I > 2\s(I)'
_cod_data_source_file            ic6b03074_si_004.cif
_cod_data_source_block           new
_cod_depositor_comments
'Adding full bibliography for 4345502--4345505.cif.'
_cod_database_code               4345504
_shelx_shelxl_version_number     2014/7
_shelx_space_group_comment
;
The symmetry employed for this shelxl refinement is uniquely defined
by the following loop, which should always be used as a source of
symmetry information in preference to the above space-group names.
They are only intended as comments.
;
_shelx_res_file
;

    new.res created by SHELXL-2014/7

TITL 1 in Pmmn
CELL   0.71073 10.2621 15.2622  3.8035   90.000   90.000   90.000
ZERR   6        0.0021  0.0031  0.0008    0.000    0.000    0.000
LATT 1
SYMM  x, 0.5-y, 0.5-z
SYMM -x, -y, 0.5+z
SYMM  -x, 0.5+y, -z
SFAC C  H  N  Cl Cd
UNIT 6  6  6  6  6
L.S. 20
ACTA
BOND $H
FMAP 2
PLAN 20
HTAB C2 Cl2_$1
HTAB C2 Cl3_$1
HTAB N1 Cl1
HTAB C2 Cl2_$1
HTAB C2 Cl3_$1
HTAB N1 Cl1
HTAB C2 Cl2_$1
HTAB C2 Cl3_$1
HTAB N1 Cl1
HTAB C2 Cl2_$1
HTAB C2 Cl3_$1
HTAB N1 Cl1
HTAB C2 Cl2_$1
HTAB C2 Cl3_$1
HTAB N1 Cl1
HTAB C2 Cl2_$1
HTAB C2 Cl3_$1
HTAB N1 Cl1
HTAB C2 Cl2_$1
HTAB C2 Cl3_$1
HTAB N1 Cl1
HTAB C2 Cl2_$1
HTAB C2 Cl3_$1
HTAB N1 Cl1
HTAB C2 Cl2_$1
HTAB C2 Cl3_$1
HTAB N1 Cl1
HTAB C2 Cl2_$1
HTAB C2 Cl3_$1
EQIV $1 -x+1, -y+1, -z
HTAB N1 Cl1
HTAB
CONF
HTAB N1 Cl1
HTAB C2 Cl3_$1
HTAB C2 Cl2_$1
HTAB N1 Cl1
HTAB C2 Cl3_$1
HTAB C2 Cl2_$1
HTAB N1 Cl1
HTAB C2 Cl3_$1
HTAB C2 Cl2_$1
HTAB N1 Cl1
HTAB C2 Cl3_$1
HTAB C2 Cl2_$1
HTAB N1 Cl1
HTAB C2 Cl3_$1
HTAB C2 Cl2_$1
HTAB N1 Cl1
HTAB C2 Cl3_$1
HTAB C2 Cl2_$1
HTAB N1 Cl1
HTAB C2 Cl3_$1
HTAB C2 Cl2_$1
WGHT    0.020600    0.423400
EXTI    0.001399
FVAR       0.13442
MOLE 1
CD1   5    0.877670    0.583913    0.250000    10.50000    0.02482    0.02170 =
         0.02207    0.00000    0.00000    0.00260
CL3   4    0.939203    0.410599    0.250000    10.50000    0.02166    0.02159 =
         0.02377    0.00000    0.00000   -0.00033
CL2   4    0.710882    0.558004   -0.250000    10.50000    0.02192    0.03392 =
         0.02537    0.00000    0.00000   -0.00022
CL1   4    0.853863    0.750000    0.250000    10.25000    0.06581    0.01727 =
         0.05555    0.00000    0.00000    0.00000
C1    1    0.453741    0.671799    0.250000    10.50000    0.06474    0.07499 =
         0.10255    0.00000    0.00000    0.03337
AFIX  43
H1    2    0.498217    0.618707    0.250000    10.50000   -1.20000
AFIX   0
N1    3    0.521521    0.750000    0.250000    10.25000    0.03866    0.17139 =
         0.14680    0.00000    0.00000    0.00000
AFIX  43
H1A   2    0.605325    0.750000    0.250000    10.25000   -1.20000
AFIX   0
C2    1    0.323457    0.673304    0.250000    10.50000    0.04520    0.04041 =
         0.04899    0.00000    0.00000    0.00203
AFIX  43
H2    2    0.276700    0.621106    0.250000    10.50000   -1.20000
AFIX   0
C3    1    0.260584    0.750000    0.250000    10.25000    0.03083    0.05703 =
         0.07563    0.00000    0.00000    0.00000
AFIX  43
H3    2    0.169959    0.749999    0.250000    10.25000   -1.20000
AFIX   0
HKLF 4

REM  1 in Pmmn
REM R1 =  0.0199 for     778 Fo > 4sig(Fo)  and  0.0213 for all     807 data
REM     44 parameters refined using      0 restraints

END

WGHT      0.0196      0.3955

REM Instructions for potential hydrogen bonds
HTAB N1 Cl1
HTAB C2 Cl3_$1
HTAB C2 Cl2_$1

REM Highest difference peak  0.548,  deepest hole -0.824,  1-sigma level  0.108
Q1    1   0.8381  0.5861  0.0456  11.00000  0.05    0.55
Q2    1   0.9292  0.7500  0.2500  10.25000  0.05    0.51
Q3    1   0.9343  0.5881  0.0385  11.00000  0.05    0.48
Q4    1   1.0975  0.4192  0.2500  10.50000  0.05    0.33
Q5    1   0.9129  0.4040 -0.2500  10.50000  0.05    0.32
Q6    1   0.9056  0.4100  0.0110  11.00000  0.05    0.31
Q7    1   0.9968  0.4222  0.0840  11.00000  0.05    0.30
Q8    1   0.3768  0.6783  0.1606  11.00000  0.05    0.30
Q9    1   0.3018  0.7081  0.2500  10.50000  0.05    0.29
Q10   1   0.7719  0.5541 -0.0039  11.00000  0.05    0.27
Q11   1   0.8138  0.7115  0.2500  10.50000  0.05    0.26
Q12   1   0.6583  0.6720 -0.2500  10.50000  0.05    0.26
Q13   1   0.4754  0.6424 -0.2500  10.50000  0.05    0.26
Q14   1   0.8648  0.7500  0.0386  10.50000  0.05    0.25
Q15   1   0.9552  0.3706  0.2500  10.50000  0.05    0.25
Q16   1   0.2601  0.7500  0.0926  10.50000  0.05    0.25
Q17   1   0.4978  0.5582 -0.0889  11.00000  0.05    0.25
Q18   1   1.0032  0.7500  0.2500  10.25000  0.05    0.25
Q19   1   0.6741  0.5638 -0.0415  11.00000  0.05    0.24
Q20   1   0.9815  0.7500  0.0021  10.50000  0.05    0.24
;
_shelx_res_checksum              82579
_shelx_hkl_file
;
   0  -3   0    0.71    0.07
   0   3   0    0.80    0.06
   0   4   0  125.66    1.54
   0  -4   0  124.96    1.66
   0   5   0    0.42    0.09
   0  -5   0    0.20    0.08
   0   6   0  996.70   11.50
   0  -6   0  978.01   12.76
   0  -7   0    0.60    0.12
   0   7   0    0.43    0.12
   0  -8   0  133.36    2.57
   0   8   0  131.58    2.34
   0  -9   0    0.46    0.12
   0   9   0    0.13    0.09
   0 -10   0   20.75    0.68
   0  10   0   18.55    0.60
   0 -11   0   -0.16    0.14
   0  11   0    0.19    0.11
   0  12   0  288.97    6.04
   0 -12   0  291.58    6.33
   0  13   0    1.63    0.29
   0 -13   0    1.42    0.26
   0 -14   0    7.41    0.54
   0  14   0    8.20    0.50
   0 -15   0    0.88    0.21
   0  15   0   -0.01    0.21
   0  16   0   12.80    0.73
   0 -16   0   11.90    0.72
   0 -17   0    0.71    0.23
   0  17   0   -0.13    0.28
   0 -18   0   59.21    2.37
   0  18   0   59.41    2.32
   0  19   0    0.06    0.25
   0 -19   0    0.32    0.28
   1   2   0  133.44    1.13
   1  -2   0  136.79    1.59
   1  -2   0  136.79    1.17
  -1  -2   0  134.34    1.11
  -1   2   0  125.59    1.18
   1   2   0  131.31    1.44
   1   3   0  314.97    3.51
   1  -3   0  321.89    3.92
  -1   3   0  326.79    2.92
  -1  -3   0  324.75    2.93
   1   4   0  102.13    1.50
  -1  -4   0   99.69    1.26
   1  -4   0  102.77    1.66
  -1   4   0  102.39    1.25
  -1  -5   0  264.74    3.30
   1   5   0  255.47    3.54
   1  -5   0  267.55    4.07
  -1   5   0  262.29    3.17
  -1   6   0  494.06    6.01
   1  -6   0  477.11    7.48
  -1  -6   0  488.97    6.28
   1   6   0  499.48    6.72
   1   7   0   25.89    0.66
  -1  -7   0   26.33    0.62
  -1   7   0   26.78    0.59
   1  -7   0   25.83    0.69
   1   8   0   10.97    0.42
  -1  -8   0   11.15    0.37
  -1   8   0   11.70    0.35
   1  -8   0   10.36    0.45
  -1  -9   0   62.33    1.41
   1  -9   0   60.02    1.50
  -1   9   0   60.68    1.30
   1   9   0   59.42    1.41
   1 -10   0   67.58    1.78
  -1  10   0   67.76    1.53
  -1 -10   0   65.09    1.57
   1  10   0   65.11    1.65
  -1  11   0   51.55    1.33
   1 -11   0   53.66    1.59
  -1 -11   0   53.75    1.43
   1  11   0   54.77    1.57
  -1 -12   0  144.91    3.42
  -1  12   0  139.63    3.19
   1  12   0  147.17    3.58
   1 -12   0  141.14    3.65
   1 -13   0    1.25    0.28
  -1  13   0    1.10    0.20
   1  13   0    0.65    0.24
  -1 -13   0    1.40    0.22
  -1  14   0    4.49    0.35
   1  14   0    5.34    0.43
   1 -14   0    5.16    0.43
  -1 -14   0    5.22    0.39
   1 -15   0   11.42    0.63
  -1  15   0    9.15    0.55
   1  15   0    8.15    0.63
  -1 -15   0    8.21    0.54
   1  16   0   22.98    1.09
   1 -16   0   22.68    1.09
  -1 -16   0   22.60    1.01
  -1  16   0   23.98    1.09
   1  17   0    9.58    0.79
  -1  17   0    9.99    0.76
  -1 -17   0   10.08    0.66
   1 -17   0    9.78    0.72
   1  18   0   54.30    2.22
  -1 -18   0   55.65    2.12
   1 -18   0   53.69    2.23
  -1  18   0   55.35    2.17
   1  19   0    2.93    0.61
   1 -19   0    3.37    0.51
  -2   0   0    1.03    0.06
   2   0   0    1.15    0.06
   2   0   0    1.07    0.08
  -2  -1   0  173.07    1.63
   2  -1   0  180.96    1.93
   2   1   0  186.06    2.17
   2  -1   0  181.33    2.14
  -2  -2   0    3.28    0.08
   2   2   0    3.61    0.17
   2  -2   0    3.60    0.17
   2  -2   0    3.37    0.11
   2   2   0    3.27    0.09
   2  -3   0  105.47    1.72
   2  -3   0  107.79    1.32
   2   3   0  106.81    1.67
   2  -4   0   27.94    0.47
  -2  -4   0   28.10    0.45
   2   4   0   28.56    0.62
   2  -4   0   27.11    0.67
   2  -5   0   36.02    0.87
   2   5   0   35.88    0.78
  -2  -5   0   35.64    0.59
   2   6   0    0.73    0.13
   2  -6   0    1.46    0.17
  -2   6   0    0.88    0.09
  -2  -6   0    0.73    0.09
   2  -7   0   70.35    1.67
   2   7   0   67.74    1.48
  -2  -7   0   68.78    1.23
  -2   7   0   68.29    1.22
  -2   8   0    4.42    0.20
  -2  -8   0    4.43    0.20
   2  -8   0    4.53    0.32
   2   8   0    3.85    0.30
   2   9   0   97.19    2.24
  -2  -9   0   98.12    1.94
  -2   9   0   96.86    1.90
   2  -9   0   99.73    2.53
   2 -10   0   36.92    1.22
  -2 -10   0   40.49    1.04
   2  10   0   37.37    1.19
  -2  10   0   39.54    1.00
  -2 -11   0   42.82    1.15
  -2  11   0   43.16    1.14
   2  11   0   42.66    1.36
   2 -11   0   42.41    1.36
  -2  12   0    7.70    0.40
  -2 -12   0    7.90    0.41
   2  12   0    6.95    0.53
   2 -12   0    7.45    0.57
   2 -13   0   50.30    1.83
   2  13   0   50.05    1.65
  -2  13   0   50.65    1.45
  -2 -13   0   50.47    1.47
   2  14   0   -0.18    0.20
   2 -14   0    0.13    0.20
  -2  14   0    0.58    0.16
  -2 -14   0    0.24    0.16
  -2  15   0   34.35    1.20
   2 -15   0   35.39    1.48
  -2 -15   0   38.25    1.28
   2  16   0   15.73    0.90
   2 -16   0   13.30    0.82
  -2  16   0   12.32    0.65
  -2 -16   0   14.37    0.71
   2 -17   0   17.92    1.04
  -2 -17   0   17.09    0.86
   2  17   0   19.45    1.12
  -2  17   0   18.96    0.92
   2  18   0    6.24    0.73
  -2 -18   0    4.94    0.48
  -2  18   0    4.90    0.52
   2 -18   0    5.75    0.61
   2 -19   0   10.62    0.92
   2  19   0    9.25    0.85
   3   0   0   94.91    1.34
   3   0   0   94.24    1.46
   3   1   0   21.55    0.49
   3  -1   0   21.11    0.44
   3  -1   0   22.13    0.49
   3   1   0   22.42    0.39
   3  -2   0    2.27    0.12
   3   2   0    1.61    0.16
   3  -2   0    1.89    0.16
   3   3   0    4.29    0.24
   3  -3   0    4.25    0.24
   3  -3   0    4.40    0.15
   3   3   0    5.00    0.13
   3  -4   0    2.56    0.22
   3  -4   0    3.11    0.13
   3   4   0    3.18    0.21
   3  -5   0   11.47    0.46
  -3  -5   0   12.47    0.29
   3  -5   0   11.96    0.29
   3   5   0   12.18    0.44
   3   6   0  119.03    2.48
   3  -6   0  118.48    2.64
  -3  -6   0  125.18    1.89
   3  -6   0  122.56    1.95
   3  -7   0   56.87    1.51
  -3  -7   0   57.95    1.07
  -3   7   0   55.37    1.06
   3   7   0   56.84    1.45
   3   8   0    0.58    0.20
  -3  -8   0    0.66    0.10
   3  -8   0    1.18    0.18
  -3   8   0    0.74    0.11
  -3   9   0   23.00    0.63
   3  -9   0   25.08    0.92
   3   9   0   24.88    0.88
  -3  -9   0   24.18    0.64
   3 -10   0   13.05    0.69
   3  10   0   12.35    0.64
  -3  10   0   12.26    0.44
  -3 -10   0   12.83    0.43
   3 -11   0    6.03    0.50
   3  11   0    6.09    0.49
  -3 -11   0    7.60    0.33
  -3  11   0    6.45    0.33
   3 -12   0   57.50    1.98
  -3 -12   0   60.94    1.57
   3  12   0   60.88    2.03
  -3  12   0   61.36    1.61
  -3 -13   0   18.92    0.74
   3  13   0   17.44    0.89
  -3  13   0   19.23    0.71
   3 -13   0   17.33    0.90
   3  14   0    1.29    0.37
   3 -14   0    2.19    0.38
  -3 -14   0    1.91    0.23
  -3  14   0    1.45    0.24
   3 -15   0   20.84    1.16
  -3 -15   0   19.78    0.81
   3  15   0   19.90    1.13
  -3  15   0   19.60    0.83
  -3  16   0    2.80    0.31
   3  16   0    3.30    0.46
  -3 -16   0    2.85    0.32
   3 -16   0    3.08    0.50
  -3  17   0    7.96    0.55
   3 -17   0    9.16    0.74
  -3 -17   0    9.48    0.58
   3  17   0    8.98    0.76
   3 -18   0   28.50    1.56
   3  18   0   29.07    1.58
   3  19   0    3.23    0.65
   3 -19   0    3.42    0.57
   4   0   0  239.13    3.75
   4   0   0  245.58    3.54
   4  -1   0    9.71    0.32
   4  -1   0   10.14    0.33
   4   1   0   10.41    0.27
   4   1   0   10.06    0.35
   4   2   0   34.83    0.84
   4  -2   0   36.22    0.75
   4  -2   0   35.07    0.82
   4   3   0    2.64    0.21
   4  -3   0    2.31    0.14
   4  -3   0    2.26    0.22
   4   3   0    2.86    0.13
   4   4   0   64.87    1.49
   4  -4   0   64.04    1.53
   4   4   0   67.39    1.05
   4  -4   0   65.06    1.17
  -4  -5   0    1.79    0.11
   4  -5   0    2.31    0.22
   4  -5   0    1.99    0.14
   4   5   0    2.51    0.23
   4  -6   0  225.93    3.47
   4   6   0  224.70    4.48
  -4  -6   0  225.62    3.19
   4  -6   0  219.20    4.62
  -4  -7   0   30.88    0.68
   4  -7   0   31.77    0.73
   4   7   0   29.32    0.99
   4  -7   0   30.54    1.04
  -4  -8   0   12.84    0.40
   4  -8   0   13.12    0.62
   4   8   0   11.92    0.61
   4  -9   0    1.81    0.33
  -4   9   0    1.99    0.17
   4   9   0    2.26    0.32
  -4  -9   0    2.27    0.19
  -4  10   0   42.93    1.10
  -4 -10   0   46.73    1.15
   4  10   0   44.50    1.48
   4 -10   0   43.86    1.61
   4  11   0    0.63    0.28
  -4  11   0    0.60    0.15
   4 -11   0    0.89    0.30
  -4 -11   0    0.65    0.15
   4 -12   0  134.00    4.15
  -4  12   0  133.71    3.13
  -4 -12   0  136.06    3.02
   4  12   0  136.76    3.94
  -4  13   0   21.62    0.86
   4 -13   0   20.47    1.05
   4  13   0   23.57    1.13
  -4 -13   0   22.64    0.82
  -4 -14   0    5.97    0.37
   4  14   0    6.28    0.56
   4 -14   0    6.47    0.63
  -4  14   0    6.90    0.42
   4  15   0    4.36    0.57
   4 -15   0    3.98    0.59
  -4 -15   0    4.34    0.33
  -4  15   0    3.42    0.35
  -4  16   0   13.70    0.70
   4  16   0   15.22    0.94
   4 -16   0   14.24    0.98
   4  17   0   -0.01    0.33
   4 -17   0    1.07    0.33
   4 -18   0   48.37    2.40
   4  18   0   49.29    2.42
   5   0   0  481.43    7.28
   5   0   0  504.99    7.92
   5  -1   0   99.57    1.97
   5   1   0  100.31    2.12
   5   1   0   98.46    1.77
   5  -1   0   98.36    1.93
   5   2   0   78.13    1.78
   5  -2   0   77.66    1.61
   5   2   0   82.26    1.45
   5  -2   0   78.40    1.71
   5  -3   0  139.83    2.56
   5  -3   0  136.22    2.93
   5   3   0  134.39    2.86
   5   4   0   41.95    0.82
   5   4   0   39.31    1.15
   5  -4   0   39.03    1.18
   5  -4   0   40.39    0.93
   5   5   0   45.66    0.88
   5  -5   0   45.42    1.01
   5   5   0   43.61    1.29
   5  -5   0   43.42    1.33
   5   6   0  215.78    3.25
   5  -6   0  218.49    3.81
   5  -6   0  206.97    4.78
   5   6   0  211.22    4.66
   5   7   0   90.44    2.38
   5  -7   0   88.87    2.46
   5  -7   0   92.38    1.85
  -5  -7   0   91.46    1.63
   5  -8   0   62.57    1.98
   5   8   0   61.65    1.90
  -5  -8   0   65.15    1.30
   5  -8   0   64.61    1.45
   5   9   0   80.12    2.36
  -5  -9   0   81.21    1.66
   5  -9   0   82.37    2.59
   5  10   0    8.76    0.61
  -5  10   0    7.35    0.35
   5 -10   0    7.24    0.63
  -5 -10   0    7.72    0.34
   5 -11   0   19.68    1.00
  -5  11   0   18.82    0.66
   5  11   0   18.80    1.00
  -5 -11   0   19.78    0.61
  -5 -12   0   60.06    1.56
   5  12   0   58.11    2.18
  -5  12   0   58.91    1.63
   5 -12   0   63.99    2.41
  -5  13   0   46.78    1.46
   5 -13   0   45.63    1.96
  -5 -13   0   48.62    1.41
   5  13   0   47.09    1.91
   5 -14   0    7.32    0.71
  -5  14   0    6.46    0.43
   5  14   0    7.62    0.68
   5  15   0   34.08    1.68
  -5  15   0   33.25    1.22
   5 -15   0   31.00    1.67
   5  16   0    4.10    0.54
   5 -16   0    3.58    0.65
   5  17   0    8.23    0.86
   5 -17   0    7.55    0.80
   5 -18   0   12.05    1.15
   5  18   0   13.22    1.14
   6   0   0    7.97    0.35
   6   0   0    7.79    0.41
   6  -1   0  121.04    2.59
   6   1   0  125.66    2.81
   6   1   0  122.16    2.39
   6  -1   0  120.83    2.58
   6  -2   0   15.15    0.53
   6  -2   0   15.29    0.60
   6   2   0   16.20    0.65
   6   2   0   14.63    0.45
   6  -3   0  399.17    7.89
   6  -3   0  415.65    7.22
   6   3   0  400.18    7.91
   6  -4   0   12.48    0.62
   6   4   0   11.48    0.56
   6   4   0   12.02    0.36
   6  -4   0   11.94    0.44
   6  -5   0  175.46    3.37
   6   5   0  172.24    2.86
   6  -5   0  166.65    4.10
   6   5   0  168.34    4.03
   6   6   0   12.40    0.68
   6   6   0   13.78    0.42
   6  -6   0   12.50    0.46
   6  -6   0   12.30    0.66
   6  -7   0   61.69    1.99
   6  -7   0   64.62    1.52
   6   7   0   64.47    1.31
   6   7   0   64.50    2.00
   6   8   0    0.89    0.34
   6  -8   0    1.93    0.18
   6  -8   0    2.13    0.37
   6   8   0    1.44    0.16
   6  -9   0  150.82    3.25
   6   9   0  147.75    4.15
   6  -9   0  151.23    4.47
  -6 -10   0    7.92    0.34
   6  10   0    7.48    0.59
   6 -10   0    7.53    0.61
  -6 -11   0   46.83    1.23
  -6  11   0   48.89    1.40
   6 -11   0   51.38    2.08
   6  11   0   49.26    1.88
   6  12   0    2.90    0.47
   6 -12   0    2.99    0.45
  -6  12   0    2.35    0.29
  -6  13   0   16.87    0.69
   6  13   0   15.84    1.04
   6 -13   0   16.98    1.15
   6 -14   0    0.73    0.36
   6  14   0    0.77    0.36
  -6  14   0    0.61    0.19
   6 -15   0   38.33    1.84
   6  15   0   39.63    1.96
   6 -16   0    5.77    0.80
   6  16   0    6.31    0.78
   6 -17   0    8.11    1.00
   6  17   0    9.20    0.96
   7   0   0   96.17    2.26
   7   0   0   97.25    2.41
   7   1   0   38.48    1.06
   7   1   0   39.38    1.26
   7  -1   0   38.24    1.16
   7  -1   0   39.26    1.21
   7   2   0   16.41    0.55
   7  -2   0   16.96    0.64
   7  -2   0   16.16    0.68
   7   2   0   18.13    0.74
   7  -3   0  137.03    3.46
   7   3   0  140.86    3.51
   7  -3   0  137.90    3.13
   7  -4   0   -0.02    0.21
   7  -4   0    0.51    0.14
   7   4   0    0.22    0.21
   7   4   0    0.39    0.13
   7  -5   0    8.26    0.40
   7   5   0    7.92    0.35
   7   5   0    7.61    0.55
   7  -5   0    8.07    0.57
   7  -6   0   46.53    1.29
   7   6   0   44.48    1.62
   7  -6   0   45.55    1.67
   7   6   0   47.43    1.09
   7  -7   0   20.66    0.71
   7   7   0   20.61    0.59
   7   7   0   18.83    0.95
   7  -7   0   19.51    1.01
   7  -8   0   19.03    0.68
   7   8   0   18.95    0.93
   7   8   0   17.95    0.56
   7  -8   0   18.19    1.04
   7  -9   0   92.71    3.15
   7   9   0   90.61    2.96
   7   9   0   84.64    1.86
   7  -9   0   89.61    2.29
   7  10   0    7.62    0.68
   7 -10   0    7.77    0.45
   7 -10   0    7.60    0.72
   7 -11   0    7.00    0.69
  -7  11   0    5.87    0.36
   7  11   0    6.58    0.63
   7  12   0    8.85    0.72
  -7  12   0    8.97    0.53
   7 -12   0   10.13    0.78
   7  13   0   21.62    1.28
   7 -13   0   22.62    1.39
  -7  13   0   19.44    0.86
   7  14   0    3.56    0.61
   7 -14   0    3.99    0.67
   7 -15   0   30.92    1.77
   7  15   0   31.30    1.74
   7  16   0    2.47    0.62
   7 -16   0    3.24    0.57
   8   0   0   39.84    1.24
   8   0   0   42.14    1.37
   8  -1   0    1.13    0.26
   8   1   0    1.68    0.29
   8  -1   0    1.44    0.24
   8   1   0    1.36    0.20
   8   2   0    6.06    0.34
   8   2   0    5.91    0.48
   8  -2   0    5.97    0.39
   8  -2   0    5.53    0.41
   8   3   0    0.73    0.25
   8  -3   0    0.43    0.21
   8  -3   0    0.36    0.19
   8   3   0    0.50    0.16
   8   4   0    3.86    0.28
   8   4   0    4.71    0.46
   8  -4   0    4.37    0.35
   8  -4   0    4.32    0.44
   8   5   0    5.61    0.53
   8  -5   0    4.87    0.37
   8  -5   0    5.93    0.52
   8   5   0    5.32    0.32
   8   6   0   54.32    1.37
   8  -6   0   55.20    2.00
   8  -6   0   56.11    1.60
   8   6   0   56.65    1.98
   8   7   0    6.60    0.34
   8  -7   0    6.54    0.41
   8  -7   0    7.82    0.64
   8   7   0    7.63    0.57
   8   8   0    2.94    0.45
   8  -8   0    2.94    0.32
   8  -8   0    3.17    0.44
   8   9   0    2.19    0.40
   8  -9   0    1.87    0.43
   8  -9   0    1.45    0.26
   8  10   0    5.16    0.64
   8 -10   0    6.28    0.70
   8 -10   0    6.48    0.40
   8 -11   0    4.57    0.63
   8 -11   0    3.86    0.37
   8  11   0    4.27    0.58
   8  12   0   23.89    1.35
   8 -12   0   29.95    1.60
   8  13   0    3.01    0.58
   8 -13   0    3.08    0.63
   8  14   0    5.16    0.73
   8 -14   0    4.73    0.71
   8 -15   0    5.00    0.70
   8  15   0    5.53    0.71
   9   0   0    5.30    0.41
   9   0   0    5.74    0.49
   9   1   0   10.40    0.54
   9   1   0   11.45    0.70
   9  -1   0   11.93    0.63
   9  -1   0   11.64    0.61
   9   2   0    1.20    0.23
   9   2   0    1.04    0.31
   9  -2   0    1.08    0.25
   9  -2   0    0.91    0.25
   9   3   0   16.53    0.69
   9  -3   0   16.93    0.77
   9   3   0   16.52    0.86
   9  -3   0   16.31    0.82
   9   4   0   10.17    0.69
   9  -4   0    9.92    0.65
   9  -4   0   10.41    0.55
   9   5   0    4.71    0.50
   9   5   0    3.66    0.30
   9  -5   0    3.87    0.35
   9  -5   0    3.43    0.48
   9   6   0    3.38    0.45
   9   6   0    3.22    0.25
   9  -6   0    3.82    0.34
   9  -6   0    3.84    0.49
   9   7   0   18.04    1.00
   9  -7   0   17.19    1.00
   9  -7   0   18.83    0.80
   9  -8   0    2.08    0.29
   9  -8   0    2.08    0.48
   9   8   0    1.60    0.45
   9  -9   0   18.34    1.18
   9   9   0   17.41    1.12
   9  -9   0   15.99    0.73
   9 -10   0   10.34    0.85
   9 -10   0   10.04    0.57
   9  10   0   10.16    0.90
   9 -11   0    3.48    0.64
   9  11   0    3.88    0.61
   9  12   0   14.34    1.03
   9 -12   0   13.90    1.20
   9  13   0   10.56    1.04
   9 -13   0   11.44    1.12
   9  14   0    1.24    0.47
   9 -14   0    1.66    0.59
  10   0   0    0.10    0.18
  10   0   0    0.35    0.20
  10  -1   0   15.71    0.84
  10   1   0   15.82    0.76
  10  -1   0   16.34    0.86
  10   1   0   17.38    0.91
  10   2   0    3.63    0.52
  10   2   0    3.69    0.35
  10  -2   0    4.76    0.50
  10  -2   0    4.64    0.44
  10   3   0   66.00    2.53
  10  -3   0   66.68    2.24
  10   3   0   60.45    1.85
  10  -3   0   64.97    2.29
  10   4   0    0.06    0.24
  10   4   0    0.12    0.15
  10  -4   0    0.17    0.17
  10  -4   0   -0.08    0.23
  10  -5   0    9.25    0.74
  10  -5   0    9.09    0.59
  10   5   0    8.73    0.72
  10  -6   0    0.25    0.17
  10  -6   0    0.19    0.24
  10   6   0   -0.19    0.28
  10  -7   0   31.69    1.55
  10  -7   0   31.59    1.27
  10   7   0   31.69    1.65
  10  -8   0    3.83    0.64
  10   8   0    3.67    0.55
  10  -8   0    3.40    0.46
  10  -9   0   58.50    2.63
  10  -9   0   52.06    1.88
  10   9   0   54.74    2.53
  10  10   0    1.05    0.43
  10 -10   0    0.59    0.44
  10  11   0    4.57    0.71
  10 -11   0    3.64    0.72
  10 -12   0    2.73    0.66
  10  12   0    2.36    0.62
  10 -13   0   20.33    1.61
  10  13   0   18.61    1.36
  11   0   0   17.73    0.94
  11   0   0   20.56    1.17
  11  -1   0   22.27    1.12
  11  -1   0   25.88    1.33
  11   1   0   22.72    1.05
  11   1   0   24.36    1.26
  11  -2   0    2.23    0.49
  11   2   0    2.00    0.33
  11  -2   0    2.73    0.40
  11   2   0    2.58    0.51
  11  -3   0   88.14    3.11
  11   3   0   94.37    3.50
  11  -3   0   83.64    3.09
  11  -4   0    6.02    0.54
  11   4   0    5.77    0.64
  11  -4   0    5.35    0.60
  11  -5   0   23.80    1.15
  11   5   0   23.70    1.43
  11  -5   0   23.01    1.29
  11  -6   0   16.69    0.91
  11   6   0   18.27    1.26
  11  -6   0   16.08    1.16
  11  -7   0   10.21    0.95
  11   7   0    9.25    0.94
  11  -7   0    8.59    0.65
  11  -8   0    1.30    0.52
  11   8   0    1.32    0.52
  11   9   0   38.78    2.19
  11  -9   0   39.76    2.25
  11 -10   0    5.83    0.88
  11  10   0    6.17    0.76
  11 -11   0    8.29    1.03
  11  11   0    7.74    0.90
  12   0   0   62.67    2.59
  12   0   0   56.82    2.28
  12  -1   0    1.65    0.40
  12   1   0    4.57    0.56
  12  -1   0    1.84    0.54
  12   2   0   22.36    1.39
  12  -2   0   18.60    1.14
  12  -2   0   21.52    1.30
  12  -3   0   15.38    1.01
  12  -3   0   13.99    1.06
  12   3   0   15.39    1.08
  12  -4   0    8.31    0.69
  12   4   0    9.71    0.90
  12  -4   0    7.59    0.76
  12  -5   0    0.32    0.29
  12  -5   0    0.93    0.33
  12   5   0    0.35    0.36
  12   6   0   39.06    2.07
  12  -6   0   39.30    1.96
  12  -7   0    1.77    0.57
  12   7   0    1.43    0.50
  12  -8   0   16.33    1.39
  12   8   0   19.03    1.47
  13   0   0   10.38    1.02
  13  -1   0    1.51    0.45
  13   1   0    1.34    0.50
  13   2   0    3.96    0.70
  13  -2   0    3.70    0.66
  13   3   0    7.06    0.79
  13   4   0    4.02    0.74
   0   0  -1    0.78    0.06
   0   0  -1    0.54    0.08
   0  -1  -1  220.99    2.57
   0  -1  -1  213.29    2.77
   0   2  -1    0.19    0.04
   0  -2  -1    0.03    0.08
   0  -2   1    0.10    0.05
   0  -2  -1    0.12    0.06
   0  -3   1    5.84    0.17
   0  -3  -1    6.49    0.24
   0   3  -1    5.14    0.13
   0   3   1    5.11    0.21
   0  -4  -1    0.07    0.08
   0  -4   1    0.08    0.06
   0   4   1   -0.04    0.06
   0  -5  -1   11.08    0.39
   0   5   1   11.21    0.35
   0   5  -1   11.34    0.25
   0  -5   1   10.63    0.29
   0  -6   1    0.08    0.10
   0   6   1    0.42    0.12
   0  -6  -1    0.17    0.13
   0   6  -1    0.46    0.07
   0   7   1   81.23    1.73
   0   7  -1   83.68    1.40
   0  -7   1   82.53    1.58
   0  -7  -1   83.34    1.86
   0  -8   1    0.62    0.11
   0  -8  -1    0.28    0.14
   0   8   1    0.00    0.12
   0   8  -1   -0.11    0.07
   0  -9   1   57.40    1.33
   0  -9  -1   53.42    1.53
   0   9   1   53.80    1.44
   0 -10   1    0.18    0.11
   0  10  -1    0.04    0.09
   0  10   1    0.17    0.16
   0 -10  -1    0.24    0.17
   0 -11   1   30.84    0.96
   0 -11  -1   30.78    1.14
   0  11  -1   31.39    0.90
   0  11   1   29.27    1.02
   0  12  -1   -0.22    0.15
   0 -12   1    0.07    0.13
   0  12   1    0.75    0.20
   0 -12  -1    0.47    0.21
   0  13   1   61.92    1.97
   0  13  -1   63.87    1.75
   0 -13  -1   65.96    2.17
   0 -13   1   62.77    1.82
   0 -14  -1    0.06    0.19
   0  14  -1   -0.02    0.13
   0  14   1    0.23    0.15
   0 -14   1   -0.02    0.13
   0  15  -1   34.28    1.22
   0 -15  -1   34.23    1.50
   0 -15   1   31.87    1.18
   0  15   1   29.93    1.22
   0  16   1    0.66    0.20
   0 -16   1   -0.15    0.18
   0  16  -1    0.27    0.19
   0 -16  -1    0.05    0.27
   0 -17  -1   20.43    1.17
   0  17   1   18.29    0.96
   0 -17   1   18.29    0.90
   0 -18  -1   -0.04    0.28
   0  18   1    0.34    0.29
   0  19   1    8.77    0.88
   0 -19  -1    9.13    0.88
   1   0  -1   90.15    1.32
  -1   0  -1   86.59    1.36
   1   0  -1   91.87    1.17
   1   0   1   85.39    0.96
   1   1  -1    7.84    0.23
   1   1  -1    7.89    0.16
  -1  -1  -1    7.73    0.26
   1  -1   1    8.06    0.14
   1  -1   1    7.60    0.12
   1  -1   1    8.16    0.25
   1  -1  -1    7.74    0.22
   1  -1  -1    8.47    0.24
   1   1   1    7.59    0.19
   1  -2   1    8.31    0.11
   1  -2   1    8.25    0.26
  -1  -2  -1    8.87    0.28
   1   2  -1    8.31    0.22
  -1  -2   1    8.26    0.16
   1  -2  -1    8.67    0.26
   1   2   1    8.14    0.24
  -1   2  -1    8.72    0.11
   1  -2  -1    8.55    0.26
  -1  -3  -1   78.71    1.40
   1   3  -1   76.41    1.17
   1  -3   1   76.78    0.58
   1  -3   1   81.21    1.34
   1  -3  -1   78.42    1.32
   1  -3  -1   79.88    1.39
  -1  -3   1   76.93    0.89
   1   3   1   77.07    1.25
  -1   3  -1   78.31    0.56
   1  -4   1   40.64    0.84
  -1  -4  -1   42.20    0.92
   1   4  -1   39.74    0.72
  -1  -4   1   39.85    0.57
   1  -4  -1   41.58    0.86
  -1   4  -1   40.68    0.42
   1   4   1   40.38    0.82
   1  -4  -1   39.86    0.89
   1   5  -1   73.08    1.25
  -1  -5  -1   71.96    1.47
   1  -5   1   72.03    1.41
  -1   5   1   71.74    1.39
   1   5   1   72.78    1.43
  -1  -5   1   75.32    1.07
   1  -5  -1   72.51    1.53
  -1   5  -1   73.47    0.82
   1   6  -1  195.40    3.04
  -1  -6  -1  193.72    3.55
   1  -6   1  198.49    3.44
  -1   6   1  196.08    3.42
   1  -6  -1  193.25    3.71
  -1  -6   1  202.54    2.69
  -1   6  -1  195.83    2.23
   1   6   1  198.06    3.47
  -1   7   1   21.61    0.64
   1  -7   1   21.35    0.63
  -1  -7  -1   20.97    0.69
   1   7  -1   21.60    0.55
  -1  -7   1   23.04    0.52
   1   7   1   21.19    0.65
  -1   7  -1   22.28    0.44
   1  -7  -1   21.86    0.74
  -1   8   1    0.40    0.16
   1   8  -1    0.69    0.11
   1  -8   1    0.51    0.13
  -1  -8  -1    0.47    0.15
   1  -8  -1    0.60    0.16
   1   8   1    0.38    0.16
  -1  -8   1    0.40    0.09
  -1   8  -1    0.62    0.09
   1   9  -1   26.67    0.75
  -1   9   1   25.37    0.84
   1  -9   1   27.72    0.83
  -1  -9  -1   26.33    0.89
   1   9   1   25.47    0.86
   1  -9  -1   26.89    0.98
  -1   9  -1   27.37    0.63
  -1  -9   1   28.27    0.72
  -1 -10  -1   59.50    1.69
   1 -10   1   63.04    1.68
  -1  10   1   57.56    1.55
   1  10  -1   60.18    1.46
   1 -10  -1   59.17    1.80
  -1 -10   1   58.92    1.32
   1  10   1   56.20    1.62
   1  11  -1   21.52    0.74
  -1 -11  -1   21.86    0.92
   1 -11   1   21.59    0.87
  -1  11   1   21.38    0.82
  -1 -11   1   23.47    0.73
  -1  11  -1   23.97    0.69
   1  11   1   22.06    0.90
   1 -11  -1   21.47    0.92
   1  12  -1   99.03    2.48
  -1  12   1  101.27    2.80
   1 -12   1  105.36    2.79
  -1 -12  -1  100.07    2.85
  -1 -12   1  101.07    2.36
   1 -12  -1  103.97    3.01
  -1  12  -1   97.93    2.24
   1  12   1   96.47    2.74
  -1 -13  -1    2.45    0.36
   1  13  -1    1.59    0.26
  -1  13   1    2.45    0.33
   1 -13   1    2.36    0.30
   1  13   1    1.82    0.29
  -1 -13   1    1.88    0.25
   1 -13  -1    1.31    0.37
  -1  14   1    2.31    0.32
   1  14  -1    2.43    0.29
  -1 -14  -1    2.49    0.34
   1 -14   1    2.65    0.30
   1 -14  -1    2.57    0.42
  -1  14  -1    2.11    0.24
   1  14   1    2.56    0.35
  -1 -14   1    2.36    0.24
   1  15  -1    8.20    0.52
   1 -15   1    9.01    0.56
  -1 -15  -1    7.31    0.64
  -1  15   1    7.60    0.61
   1 -15  -1    8.66    0.71
   1  15   1    7.22    0.59
  -1  15  -1    8.84    0.48
  -1 -15   1    7.47    0.45
  -1  16   1   19.00    0.96
  -1 -16  -1   19.51    1.01
   1  16  -1   18.33    0.91
   1 -16   1   18.84    0.93
   1 -16  -1   19.67    1.08
  -1 -16   1   17.48    0.79
   1  16   1   19.14    1.08
  -1  17   1    9.19    0.66
  -1 -17  -1    9.86    0.74
   1  17  -1    8.94    0.67
   1 -17   1    9.74    0.71
   1 -17  -1    8.60    0.77
   1  17   1    9.67    0.81
  -1 -18  -1   49.87    2.14
   1 -18   1   46.06    1.92
  -1  18   1   43.75    1.92
   1 -18  -1   50.00    2.32
   1  18   1   49.22    2.22
  -1  19   1    1.95    0.41
  -1 -19  -1    1.65    0.45
   1 -19  -1    1.71    0.48
   1  19   1    2.93    0.49
   2   0  -1  984.75   12.24
   2   0  -1  997.32    9.33
   2   0   1 1013.19    8.26
   2   0   1 1012.31   12.38
   2   1  -1    0.76    0.10
   2   1  -1    0.53    0.05
   2  -1   1    0.60    0.11
   2  -1   1    0.68    0.05
  -2  -1  -1    0.46    0.11
   2  -1  -1    0.61    0.10
   2  -1  -1    0.55    0.07
   2   1   1    0.71    0.07
   2   2  -1   99.10    1.68
   2   2  -1  101.36    0.86
  -2  -2  -1  101.48    1.76
   2  -2   1   98.07    0.64
   2  -2   1  100.24    0.68
   2  -2   1  100.05    1.74
   2  -2  -1  101.42    1.62
   2  -2  -1  102.32    1.74
   2   2   1   97.68    1.46
   2   3  -1    3.23    0.19
   2  -3   1    3.15    0.21
  -2  -3  -1    3.44    0.20
   2  -3  -1    3.05    0.19
   2  -3  -1    2.91    0.19
  -2  -3   1    3.02    0.06
   2   3   1    3.42    0.17
  -2  -3   1    3.08    0.06
   2   4  -1  103.08    1.82
   2  -4   1  103.44    2.00
  -2  -4  -1  102.79    1.89
   2  -4  -1  103.23    1.96
  -2  -4   1  103.56    0.85
   2   4   1  101.25    1.77
   2  -4  -1  100.67    1.81
   2   5  -1    6.63    0.27
   2  -5   1    6.31    0.33
  -2  -5  -1    6.47    0.28
   2  -5  -1    6.83    0.28
  -2  -5   1    7.15    0.14
   2  -5  -1    7.52    0.36
   2   5   1    6.08    0.31
   2   6  -1  471.56    7.28
   2  -6   1  466.65    7.91
  -2  -6  -1  477.90    7.78
  -2  -6   1  476.48    4.52
   2  -6  -1  466.08    7.47
  -2   6  -1  472.04    3.93
   2   6   1  463.25    7.43
   2  -6  -1  451.51    8.06
   2   7  -1   25.61    0.70
  -2   7   1   25.16    0.74
   2  -7   1   25.82    0.78
  -2  -7  -1   25.48    0.75
   2  -7  -1   24.70    0.86
  -2  -7   1   25.95    0.46
  -2   7  -1   24.38    0.41
   2   7   1   22.51    0.72
  -2   8   1   71.66    1.68
   2   8  -1   69.00    1.59
   2  -8   1   69.69    1.78
  -2  -8  -1   69.03    1.64
   2  -8  -1   69.84    1.83
  -2  -8   1   69.02    1.13
   2   8   1   63.14    1.53
  -2   8  -1   68.63    1.04
  -2   9   1    1.04    0.20
   2   9  -1    1.28    0.19
  -2  -9  -1    1.35    0.21
   2  -9   1    1.31    0.21
   2   9   1    1.32    0.21
  -2  -9   1    1.32    0.12
   2  -9  -1    1.52    0.26
  -2   9  -1    1.15    0.11
  -2  10   1   28.61    0.97
   2  10  -1   28.60    0.91
   2 -10   1   28.81    1.04
  -2 -10  -1   28.81    0.94
   2 -10  -1   29.70    1.13
   2  10   1   25.27    0.94
  -2 -10   1   29.16    0.69
  -2  10  -1   29.12    0.66
   2  11  -1    1.18    0.26
  -2  11   1    1.36    0.23
   2 -11   1    2.20    0.29
  -2 -11  -1    1.13    0.28
  -2 -11   1    1.61    0.17
   2 -11  -1    1.00    0.33
   2  11   1    1.45    0.26
  -2  11  -1    1.22    0.16
  -2  12   1  195.04    4.73
   2  12  -1  196.06    4.69
  -2 -12  -1  202.03    4.98
   2 -12   1  203.40    5.12
   2 -12  -1  202.75    5.51
  -2  12  -1  204.63    3.86
   2  12   1  196.32    4.95
  -2 -12   1  204.10    3.89
   2 -13   1   17.90    0.91
  -2  13   1   17.15    0.85
   2  13  -1   17.62    0.83
  -2 -13  -1   17.63    0.83
   2 -13  -1   17.44    1.01
  -2  13  -1   17.86    0.66
   2  13   1   15.98    0.91
  -2 -13   1   18.31    0.61
  -2  14   1    6.55    0.51
  -2 -14  -1    8.65    0.54
   2 -14   1    7.41    0.60
   2  14  -1    7.63    0.54
   2 -14  -1    7.49    0.65
  -2 -14   1    6.77    0.36
   2  14   1    6.91    0.61
  -2  15   1    4.03    0.42
  -2 -15  -1    4.42    0.44
   2 -15   1    4.07    0.42
   2  15  -1    3.68    0.42
   2 -15  -1    4.42    0.57
  -2 -15   1    3.60    0.29
   2  15   1    3.87    0.51
  -2  16   1   12.09    0.76
   2  16  -1   12.28    0.75
  -2 -16  -1   13.64    0.81
   2 -16   1   12.69    0.83
   2  16   1   12.89    0.93
   2 -16  -1   14.16    0.91
  -2  17   1    0.27    0.26
   2  17  -1    0.11    0.23
  -2 -17  -1   -0.01    0.26
   2 -17   1    0.18    0.27
   2 -17  -1    0.10    0.30
   2  17   1    0.29    0.29
   2  18  -1   51.88    2.28
  -2  18   1   48.29    2.08
   2 -18   1   47.87    2.08
  -2 -18  -1   49.13    2.11
   2 -18  -1   52.94    2.39
   2  18   1   50.19    2.30
  -2  19   1    2.73    0.52
  -2 -19  -1    3.24    0.49
   2 -19   1    2.93    0.49
   2  19   1    3.07    0.63
   2 -19  -1    3.00    0.63
   3   0  -1  668.14    9.87
   3   0  -1  667.90    6.95
   3   0   1  656.11    7.15
   3   0   1  656.11    9.52
   3   1  -1  138.48    1.50
   3   1  -1  135.81    2.48
   3  -1   1  138.80    2.48
   3  -1   1  138.16    1.62
   3  -1  -1  137.30    2.45
   3  -1  -1  135.30    1.99
   3   1   1  142.94    2.49
   3   1   1  137.85    1.99
   3   2  -1  109.55    0.93
   3   2  -1  110.07    2.09
   3  -2   1  109.55    1.11
   3  -2   1  114.25    2.18
   3   2   1  110.59    1.81
   3  -2  -1  113.44    2.13
   3  -2  -1  108.93    1.83
   3   3  -1  220.75    3.88
   3  -3   1  226.44    1.63
  -3  -3  -1  216.29    3.76
   3  -3   1  221.57    4.01
   3  -3  -1  224.66    3.85
   3  -3  -1  222.95    3.66
   3   3   1  228.51    3.61
   3   4  -1   51.88    1.23
  -3  -4  -1   52.61    1.18
   3  -4   1   51.91    1.28
   3  -4  -1   50.06    1.20
   3  -4  -1   52.87    1.19
   3   4   1   49.36    1.09
   3   5  -1  151.08    2.97
  -3  -5  -1  155.00    2.93
   3  -5   1  152.17    3.14
   3  -5  -1  151.73    3.05
   3  -5  -1  145.70    2.73
   3   5   1  147.27    2.80
  -3   5  -1  146.11    1.04
   3   6  -1  379.21    6.72
  -3  -6  -1  367.03    6.31
   3  -6   1  381.49    7.07
   3  -6  -1  377.62    6.45
   3  -6  -1  375.62    7.11
  -3  -6   1  368.38    2.27
   3   6   1  376.42    6.59
  -3   6  -1  376.33    2.96
   3   7  -1   52.41    1.34
  -3  -7  -1   51.74    1.27
   3  -7   1   54.83    1.50
   3  -7  -1   53.70    1.31
  -3  -7   1   51.18    0.60
   3  -7  -1   53.60    1.50
   3   7   1   51.80    1.40
  -3   7  -1   50.09    0.66
   3   8  -1   43.88    1.24
  -3  -8  -1   44.57    1.17
   3  -8   1   45.68    1.35
   3  -8  -1   44.93    1.41
  -3  -8   1   44.48    0.65
   3   8   1   43.19    1.27
  -3   8  -1   40.17    0.62
  -3   9   1   73.13    1.88
   3   9  -1   72.46    1.90
  -3  -9  -1   75.78    1.88
   3  -9   1   73.05    2.09
   3  -9  -1   75.17    2.19
  -3  -9   1   72.00    1.14
   3   9   1   72.93    1.99
  -3   9  -1   72.97    1.18
   3  10  -1   18.94    0.79
  -3  10   1   18.61    0.75
  -3 -10  -1   19.10    0.73
   3 -10   1   19.15    0.88
  -3 -10   1   18.95    0.45
   3 -10  -1   18.22    0.86
   3  10   1   18.61    0.79
  -3  10  -1   18.96    0.47
   3  11  -1   40.09    1.40
  -3  11   1   39.99    1.33
  -3 -11  -1   40.37    1.33
   3 -11   1   41.51    1.55
   3 -11  -1   40.23    1.51
  -3 -11   1   40.38    0.88
   3  11   1   39.20    1.45
  -3  11  -1   41.32    0.92
   3  12  -1   99.94    2.90
  -3  12   1   98.17    2.71
  -3 -12  -1  101.36    2.83
   3 -12   1   99.13    3.03
  -3 -12   1   99.15    1.99
   3 -12  -1  101.24    3.24
   3  12   1  100.91    3.06
  -3  12  -1  106.51    2.17
  -3  13   1   13.11    0.70
   3  13  -1   11.48    0.66
  -3 -13  -1   12.69    0.67
   3 -13   1   11.35    0.73
   3 -13  -1   12.78    0.85
   3  13   1   11.89    0.80
  -3  14   1    6.86    0.50
   3  14  -1    6.55    0.52
  -3 -14  -1    7.39    0.57
   3 -14   1    7.26    0.63
   3 -14  -1    7.48    0.61
   3  14   1    7.21    0.64
  -3  15   1   16.69    0.89
   3  15  -1   17.21    0.90
  -3 -15  -1   17.11    0.95
   3 -15   1   17.03    1.05
   3 -15  -1   17.96    1.11
   3  15   1   16.84    0.97
   3  16  -1    9.84    0.70
  -3  16   1    7.97    0.66
  -3 -16  -1    9.14    0.67
   3 -16   1    9.10    0.77
   3 -16  -1   11.03    0.89
   3  16   1    9.38    0.80
  -3  17   1    7.43    0.62
   3  17  -1    7.52    0.66
  -3 -17  -1    8.16    0.65
   3 -17   1    7.86    0.74
   3 -17  -1    7.72    0.84
   3  17   1    6.84    0.80
   3  18  -1   25.69    1.42
  -3  18   1   23.93    1.38
  -3 -18  -1   27.40    1.39
   3 -18   1   27.34    1.48
   3 -18  -1   26.21    1.67
   3  18   1   25.58    1.49
   4   0  -1    0.10    0.07
   4   0  -1    0.92    0.14
   4   0   1    0.12    0.08
   4   1  -1  109.54    1.44
   4   1  -1  105.62    2.23
   4  -1   1  106.16    2.20
   4  -1   1  106.07    1.57
   4  -1  -1  107.16    2.27
   4  -1  -1  105.17    1.77
   4   1   1  109.09    1.85
   4   1   1  110.32    2.23
   4   2  -1    1.54    0.06
   4   2  -1    1.40    0.18
   4  -2   1    1.67    0.09
   4  -2   1    1.89    0.19
   4  -2  -1    1.89    0.20
   4  -2  -1    1.70    0.15
   4   2   1    1.78    0.19
   4   2   1    1.86    0.16
   4   3  -1  334.02    6.16
   4  -3   1  339.54    3.51
   4  -3   1  331.40    6.18
   4  -3  -1  337.03    5.63
   4  -3  -1  339.00    5.92
   4   3   1  335.03    5.74
   4   3   1  343.80    5.68
   4   4  -1   31.55    0.94
  -4  -4  -1   29.94    0.81
   4  -4   1   29.90    0.92
   4  -4   1   29.74    0.42
   4  -4  -1   29.96    0.87
   4  -4  -1   30.83    0.88
   4   4   1   27.99    0.79
   4   5  -1  117.12    2.66
  -4  -5  -1  116.45    2.45
   4  -5   1  116.50    2.76
   4  -5   1  119.23    1.25
   4  -5  -1  119.10    2.56
   4  -5  -1  121.02    2.75
   4   5   1  115.09    2.52
   4   6  -1    4.87    0.34
  -4  -6  -1    4.99    0.28
   4  -6   1    5.21    0.39
   4  -6  -1    5.00    0.37
   4  -6  -1    4.94    0.31
   4   6   1    4.71    0.34
  -4   6  -1    4.49    0.12
   4   7  -1   46.29    1.37
  -4  -7  -1   48.39    1.27
   4  -7   1   46.64    1.51
   4  -7  -1   50.65    1.53
   4  -7  -1   46.82    1.24
   4   7   1   45.66    1.35
  -4   7  -1   45.88    0.66
   4   8  -1    1.00    0.22
  -4  -8  -1    1.08    0.17
   4  -8   1    1.86    0.29
   4  -8  -1    0.87    0.26
   4  -8  -1    1.20    0.20
   4   8   1    1.12    0.27
  -4   8  -1    1.35    0.09
   4   9  -1  128.68    3.23
  -4  -9  -1  127.73    2.98
   4  -9   1  125.30    3.49
   4  -9  -1  128.78    3.47
   4   9   1  129.79    3.27
  -4   9  -1  124.22    1.86
  -4  10   1   38.67    1.25
   4  10  -1   38.74    1.39
  -4 -10  -1   40.34    1.26
   4 -10   1   37.42    1.49
   4 -10  -1   38.40    1.52
   4  10   1   39.37    1.45
  -4  11   1   49.23    1.58
   4  11  -1   47.16    1.63
  -4 -11  -1   49.03    1.48
   4 -11   1   48.60    1.76
   4 -11  -1   50.10    1.86
   4  11   1   49.37    1.77
  -4  12   1    9.82    0.60
   4  12  -1   10.02    0.62
  -4 -12  -1    9.56    0.52
   4 -12   1    9.18    0.73
   4 -12  -1    9.80    0.68
   4  12   1    9.08    0.67
  -4  13   1   19.17    0.86
   4  13  -1   19.07    0.99
  -4 -13  -1   20.46    0.85
   4 -13   1   19.93    1.04
   4 -13  -1   18.46    1.12
   4  13   1   20.26    1.05
   4  14  -1   -0.04    0.20
  -4  14   1    0.02    0.18
  -4 -14  -1    0.12    0.16
   4 -14   1    0.02    0.19
   4 -14  -1   -0.04    0.19
   4  14   1    0.01    0.21
   4  15  -1   33.40    1.48
  -4  15   1   34.45    1.39
  -4 -15  -1   32.25    1.33
   4 -15   1   34.49    1.62
   4 -15  -1   33.35    1.71
   4  15   1   34.57    1.63
  -4  16   1   17.96    0.98
   4  16  -1   17.10    1.08
  -4 -16  -1   17.38    0.92
   4 -16   1   18.10    1.13
   4 -16  -1   18.03    1.14
   4  16   1   17.75    1.14
   4  17  -1   10.52    0.89
  -4  17   1   10.84    0.85
  -4 -17  -1   11.08    0.73
   4 -17   1    9.80    0.81
   4 -17  -1    9.97    1.01
   4  17   1   11.17    0.98
  -4  18   1    6.20    0.68
   4  18  -1    6.07    0.69
   4 -18   1    5.18    0.77
   4 -18  -1    5.87    0.77
   4  18   1    6.94    0.84
   5   0  -1   88.69    2.13
   5   0  -1   91.65    1.63
   5   0   1   88.07    2.05
   5   0   1   86.53    1.64
   5   1  -1   29.01    0.94
   5   1  -1   30.97    0.61
   5  -1   1   29.37    0.67
   5  -1   1   31.45    0.96
   5  -1  -1   30.38    0.94
   5  -1  -1   32.23    0.78
   5   1   1   29.67    0.75
   5   1   1   30.27    0.89
   5   2  -1    4.86    0.35
   5  -2   1    5.25    0.36
   5  -2   1    4.96    0.19
   5   2   1    4.65    0.26
   5  -2  -1    5.47    0.33
   5  -2  -1    4.85    0.26
   5   2   1    5.10    0.29
   5   3  -1   28.08    0.97
   5  -3   1   29.30    0.97
   5  -3   1   28.77    0.57
   5   3   1   29.42    0.87
   5  -3  -1   30.01    0.85
   5  -3  -1   28.74    0.93
   5   3   1   29.14    0.85
   5   4  -1    0.04    0.16
   5  -4   1    0.24    0.17
   5   4   1    0.13    0.13
   5  -4  -1    0.04    0.12
   5  -4  -1    0.29    0.14
   5   4   1    0.51    0.15
   5   5  -1    1.11    0.23
   5  -5   1    0.81    0.25
   5  -5   1    0.87    0.08
   5  -5  -1    0.98    0.20
   5  -5  -1    1.22    0.19
   5   5   1    0.79    0.21
  -5  -6  -1   55.35    1.41
   5   6  -1   52.32    1.59
   5  -6   1   51.70    0.80
   5  -6   1   50.82    1.66
   5   6   1   53.41    1.57
   5  -6  -1   50.75    1.54
   5  -6  -1   55.55    1.49
   5  -7   1   35.70    1.32
   5   7  -1   36.87    1.28
  -5  -7  -1   38.88    1.11
   5  -7  -1   36.16    1.28
   5  -7  -1   35.64    1.10
   5   7   1   38.39    1.30
  -5  -8  -1    6.90    0.38
   5   8  -1    6.45    0.49
   5  -8   1    5.85    0.50
   5   8   1    6.42    0.53
   5  -8  -1    6.91    0.54
   5  -8  -1    7.03    0.40
  -5  -9  -1   47.42    1.40
   5   9  -1   44.51    1.62
   5  -9   1   45.88    1.76
   5  -9  -1   48.11    1.77
   5  -9  -1   45.96    1.41
   5   9   1   49.79    1.70
   5  10  -1    1.60    0.34
  -5 -10  -1    2.14    0.25
   5 -10   1    1.46    0.39
   5  10   1    2.00    0.39
   5 -10  -1    2.32    0.38
  -5 -11  -1    2.61    0.29
   5 -11   1    2.80    0.43
  -5  11   1    2.63    0.28
   5  11  -1    1.94    0.39
   5 -11  -1    3.04    0.38
   5  11   1    2.25    0.43
   5 -12   1   17.80    1.01
   5  12  -1   17.33    0.97
  -5  12   1   18.17    0.82
  -5 -12  -1   17.76    0.74
   5 -12  -1   18.10    1.05
   5  12   1   19.47    1.05
  -5  13   1   27.87    1.12
   5  13  -1   28.09    1.26
   5 -13   1   28.11    1.44
  -5 -13  -1   26.42    1.03
   5 -13  -1   27.78    1.34
   5  13   1   28.99    1.35
   5 -14   1    3.09    0.51
   5  14  -1    2.66    0.47
  -5  14   1    2.35    0.35
  -5 -14  -1    2.40    0.33
   5 -14  -1    2.27    0.50
   5  14   1    2.11    0.49
   5 -15   1   29.91    1.63
  -5  15   1   28.50    1.34
   5  15  -1   29.07    1.50
  -5 -15  -1   28.94    1.22
   5 -15  -1   29.00    1.53
   5  15   1   29.29    1.51
   5 -16   1    2.10    0.44
  -5  16   1    1.19    0.33
   5  16  -1    1.10    0.44
  -5 -16  -1    1.14    0.31
   5 -16  -1    1.65    0.50
   5  16   1    2.06    0.47
   5 -17   1    4.39    0.65
  -5  17   1    4.19    0.52
   5  17  -1    3.43    0.65
   5 -17  -1    3.05    0.69
   5  17   1    4.01    0.69
   6   0   1   43.53    1.08
   6   0  -1   43.71    0.99
   6   0  -1   42.12    1.30
   6   0   1   43.03    1.28
   6  -1   1    7.38    0.30
   6  -1   1    6.41    0.44
   6   1  -1    5.90    0.40
   6   1  -1    7.26    0.27
   6   1   1    6.33    0.37
   6   1   1    6.52    0.32
   6  -1  -1    6.73    0.45
   6  -1  -1    6.83    0.30
   6  -2   1    2.64    0.19
   6   2  -1    2.80    0.14
   6   2  -1    3.26    0.31
   6  -2   1    2.78    0.33
   6   2   1    2.74    0.27
   6   2   1    3.10    0.23
   6  -2  -1    3.22    0.30
   6  -2  -1    3.01    0.23
   6  -3   1    0.24    0.18
   6  -3   1    0.39    0.09
   6   3  -1    0.30    0.06
   6   3  -1    0.24    0.19
   6   3   1    0.57    0.15
   6   3   1    0.35    0.16
   6  -3  -1    0.31    0.14
   6  -4   1   13.73    0.39
   6   4  -1   13.17    0.67
   6  -4   1   13.44    0.70
   6   4   1   14.50    0.59
   6  -4  -1   14.29    0.61
   6  -4  -1   14.23    0.62
   6   4   1   13.44    0.54
   6  -5   1    1.74    0.12
   6   5  -1    1.64    0.28
   6  -5   1    2.51    0.33
   6   5   1    1.60    0.21
   6  -5  -1    1.60    0.24
   6  -5  -1    1.10    0.29
   6   5   1    1.86    0.28
   6   6  -1   79.94    2.40
   6  -6   1   82.19    1.42
   6  -6   1   77.50    2.46
   6   6   1   80.84    2.04
   6   6   1   80.19    2.29
   6  -6  -1   80.33    2.23
   6  -6  -1   75.12    2.23
   6   7  -1    0.85    0.27
   6  -7   1    0.72    0.30
   6  -7   1    0.72    0.09
   6   7   1    0.80    0.27
   6   7   1    0.75    0.20
   6  -7  -1    0.77    0.22
   6  -7  -1    0.67    0.22
  -6  -8  -1    0.29    0.15
   6   8  -1   -0.05    0.21
   6  -8   1    0.43    0.21
   6   8   1    0.12    0.19
   6  -8  -1   -0.02    0.21
   6  -8  -1    0.10    0.16
   6  -9   1    0.43    0.32
   6   9  -1    1.49    0.28
  -6  -9  -1    0.51    0.18
   6   9   1    0.57    0.29
   6  -9  -1    0.69    0.25
   6  -9  -1    0.45    0.21
  -6 -10  -1   22.58    0.87
   6 -10   1   22.04    1.20
   6  10  -1   23.12    1.05
   6  10   1   23.43    1.14
   6 -10  -1   22.70    0.91
   6 -10  -1   22.11    1.16
   6  11  -1    0.78    0.34
   6 -11   1    0.94    0.32
  -6 -11  -1    0.76    0.22
   6  11   1    1.25    0.33
   6 -11  -1    0.88    0.32
  -6 -12  -1   57.96    1.82
   6  12  -1   54.23    2.09
  -6  12   1   51.86    1.80
   6 -12   1   52.92    2.27
   6  12   1   56.76    2.25
   6 -12  -1   55.81    2.32
   6 -13   1    1.55    0.48
  -6  13   1    1.83    0.31
   6  13  -1    1.91    0.39
  -6 -13  -1    1.48    0.29
   6 -13  -1    2.09    0.41
   6  13   1    1.32    0.44
  -6 -14  -1    4.41    0.43
   6  14  -1    4.02    0.59
  -6  14   1    4.24    0.49
   6 -14   1    4.29    0.58
   6 -14  -1    4.61    0.64
   6  14   1    4.76    0.56
  -6 -15  -1    0.18    0.20
   6 -15   1    0.15    0.29
   6  15  -1    0.14    0.29
  -6  15   1    0.12    0.24
   6 -15  -1    0.42    0.33
   6  15   1    0.02    0.31
  -6  16   1    6.75    0.60
   6  16  -1    6.70    0.79
   6 -16   1    7.70    0.91
   6  16   1    7.64    0.76
   6 -16  -1    7.20    0.76
   6 -17   1    0.04    0.39
   6  17  -1   -0.08    0.36
   6 -17  -1    0.33    0.39
   6  17   1    0.62    0.37
   7   0   1   80.04    1.87
   7   0  -1   80.43    2.33
   7   0   1   82.21    2.30
   7   0  -1   65.31    1.63
   7   1  -1   29.06    1.16
   7   1  -1   30.05    0.80
   7  -1   1   29.39    0.89
   7  -1   1   28.47    1.13
   7   1   1   29.62    0.94
   7  -1  -1   29.91    0.89
   7  -1  -1   31.45    1.16
   7   1   1   30.45    1.06
   7  -2   1   18.55    0.61
   7  -2   1   19.57    0.88
   7   2  -1   18.47    0.52
   7   2  -1   18.89    0.87
   7   2   1   18.26    0.75
   7  -2  -1   20.04    0.87
   7  -2  -1   19.97    0.71
   7   2   1   19.54    0.75
   7  -3   1   39.46    1.45
   7   3  -1   40.07    1.39
   7  -3   1   37.59    0.95
   7   3  -1   36.34    0.78
   7   3   1   39.62    1.21
   7  -3  -1   38.35    1.34
   7   3   1   39.79    1.24
   7  -3  -1   38.22    1.22
   7  -4   1   20.87    0.62
   7  -4   1   23.13    1.06
   7   4  -1   21.99    1.02
   7   4   1   21.61    0.80
   7  -4  -1   21.80    0.88
   7  -4  -1   21.95    0.93
   7   4   1   22.18    0.91
   7  -5   1    4.95    0.25
   7  -5   1    5.38    0.48
   7   5  -1    4.98    0.50
   7  -5  -1    4.85    0.47
   7   5   1    5.03    0.40
   7  -5  -1    4.71    0.43
   7   5   1    4.98    0.36
   7  -6   1   30.71    1.40
   7   6  -1   33.57    1.39
   7  -6   1   31.80    0.78
   7   6   1   33.00    1.29
   7  -6  -1   33.34    1.28
   7   6   1   31.02    1.06
   7  -6  -1   33.03    1.19
   7  -7   1   61.16    2.25
   7  -7   1   56.91    1.20
   7   7  -1   58.59    2.15
   7  -7  -1   59.10    1.87
   7  -7  -1   55.25    1.94
   7   7   1   58.23    1.98
   7   7   1   57.33    1.67
   7   8  -1   20.36    1.08
   7  -8   1   21.88    1.18
   7  -8  -1   21.50    0.93
   7  -8  -1   19.38    0.98
   7   8   1   21.62    0.84
   7   8   1   21.53    1.08
   7   9  -1   41.06    1.73
   7  -9   1   42.51    1.87
   7  -9  -1   39.84    1.69
   7   9   1   42.33    1.38
   7  -9  -1   38.44    1.44
   7   9   1   43.26    1.73
   7  10  -1    7.40    0.71
   7 -10   1    7.22    0.74
   7 -10  -1    7.03    0.62
   7  10   1    8.02    0.68
   7 -10  -1    8.10    0.52
   7  11  -1    4.31    0.52
   7 -11   1    5.12    0.56
  -7 -11  -1    3.96    0.42
   7  11   1    4.48    0.58
   7 -11  -1    5.38    0.46
   7 -11  -1    4.32    0.63
  -7  12   1   20.07    0.99
   7  12  -1   21.65    1.21
   7 -12   1   22.75    1.39
  -7 -12  -1   23.55    0.97
   7  12   1   23.51    1.34
   7 -12  -1   25.35    1.35
   7 -13   1   39.15    2.08
   7  13  -1   37.28    1.88
  -7 -13  -1   39.90    1.48
  -7  13   1   37.39    1.55
   7  13   1   38.49    1.89
   7 -13  -1   39.08    1.99
   7  14  -1    4.86    0.66
  -7  14   1    4.30    0.47
   7 -14   1    5.84    0.75
   7  14   1    3.26    0.67
   7 -14  -1    4.29    0.69
  -7  15   1   26.50    1.31
   7  15  -1   30.84    1.74
   7 -15   1   30.28    1.84
   7  15   1   28.49    1.74
   7 -15  -1   29.78    1.78
   7  16  -1    2.56    0.63
   7 -16   1    2.62    0.60
   7 -16  -1    2.38    0.63
   7  16   1    3.08    0.62
   8   0  -1    8.90    0.42
   8   0  -1   10.35    0.65
   8   0   1    9.62    0.64
   8   0   1   10.29    0.50
   8   1  -1   58.40    1.49
   8   1  -1   59.64    2.02
   8  -1   1   58.68    1.66
   8  -1   1   57.09    1.92
   8   1   1   59.14    1.76
   8  -1  -1   56.90    1.62
   8   1   1   60.53    1.91
   8  -1  -1   63.75    2.17
   8   2  -1   11.90    0.78
   8  -2   1   10.60    0.48
   8  -2   1   11.63    0.74
   8   2  -1   10.43    0.43
   8   2   1   11.45    0.59
   8   2   1   11.91    0.63
   8  -2  -1   12.07    0.58
   8  -2  -1   12.05    0.74
   8   3  -1  188.59    5.22
   8  -3   1  188.16    5.21
   8  -3   1  182.16    3.94
   8  -3  -1  184.03    4.86
   8   3   1  190.84    4.83
   8   3   1  187.13    4.68
   8  -3  -1  187.39    4.66
   8  -4   1    1.25    0.33
   8  -4   1    0.90    0.15
   8   4  -1    0.63    0.33
   8   4   1    0.82    0.21
   8   4   1    0.34    0.25
   8  -4  -1    0.13    0.27
   8  -4  -1    0.74    0.29
   8   5  -1   63.54    2.29
   8  -5   1   65.05    1.58
   8  -5   1   66.21    2.41
   8  -5  -1   64.45    2.15
   8   5   1   64.99    1.92
   8   5   1   65.03    2.19
   8  -5  -1   66.24    2.17
   8  -6   1    6.85    0.61
   8  -6   1    6.26    0.33
   8   6  -1    5.46    0.63
   8   6   1    7.20    0.45
   8   6   1    6.97    0.59
   8  -6  -1    6.67    0.51
   8  -6  -1    6.31    0.55
   8  -7   1   53.13    2.20
   8   7  -1   53.77    2.17
   8  -7  -1   52.97    2.07
   8   7   1   50.70    1.65
   8   7   1   52.02    2.00
   8  -7  -1   50.68    1.82
   8   8  -1    6.14    0.68
   8  -8   1    6.89    0.71
   8   8   1    6.09    0.44
   8   8   1    5.49    0.65
   8  -8  -1    6.56    0.54
   8  -8  -1    5.84    0.55
   8   9  -1   97.25    3.54
   8  -9   1   97.26    3.68
   8  -9  -1   91.96    2.85
   8  -9  -1   94.67    3.33
   8   9   1   95.61    2.73
   8   9   1  100.65    3.38
   8 -10   1    1.25    0.35
   8  10  -1    0.70    0.34
   8 -10  -1    0.65    0.27
   8 -10  -1    0.01    0.29
   8  10   1    0.29    0.19
   8  10   1    0.23    0.34
   8 -11   1   17.43    1.14
   8  11  -1   17.47    1.10
   8  11   1   19.67    1.21
   8  11   1   17.66    0.84
   8 -11  -1   18.59    0.93
   8 -11  -1   18.78    1.23
   8  12  -1    1.06    0.32
   8 -12   1    0.48    0.38
   8 -12  -1   -0.01    0.34
   8  12   1    0.46    0.36
   8 -12  -1    0.18    0.27
   8  13  -1   19.90    1.33
   8 -13   1   18.50    1.43
  -8  13   1   17.30    1.03
   8 -13  -1   21.02    1.41
   8  13   1   18.63    1.21
   8 -14   1    2.10    0.55
   8  14  -1    0.80    0.52
  -8  14   1    1.75    0.39
   8  14   1    1.66    0.47
   8 -14  -1    1.25    0.53
   8 -15   1   36.16    2.08
   8  15  -1   33.12    2.01
   8 -15  -1   32.40    2.01
   8  15   1   34.10    1.90
   9   0  -1   52.32    1.99
   9   0   1   49.83    1.62
   9   0   1   49.57    1.86
   9   1  -1   36.79    1.61
   9  -1   1   33.81    1.17
   9  -1   1   35.07    1.53
   9   1  -1   35.27    1.12
   9  -1  -1   35.78    1.23
   9  -1  -1   38.32    1.56
   9   1   1   35.60    1.30
   9   1   1   33.85    1.35
   9   2  -1    9.91    0.71
   9  -2   1    9.21    0.48
   9  -2   1    9.18    0.75
   9  -2  -1    8.72    0.55
   9  -2  -1   10.32    0.68
   9   2   1    8.90    0.59
   9   2   1    9.20    0.62
   9   3  -1  157.38    4.84
   9  -3   1  155.16    4.86
   9  -3   1  152.82    3.87
   9   3   1  155.63    4.44
   9   3   1  151.79    4.22
   9  -3  -1  160.39    4.31
   9  -3  -1  153.24    4.50
   9  -4   1    1.25    0.43
   9  -4   1    2.25    0.26
   9   4  -1    1.45    0.38
   9  -4  -1    1.63    0.39
   9   4   1    1.65    0.30
   9   4   1    1.78    0.39
   9  -4  -1    1.82    0.33
   9  -5   1   25.04    1.35
   9  -5   1   23.78    0.87
   9   5  -1   26.87    1.38
   9  -5  -1   26.84    1.24
   9  -5  -1   25.19    1.21
   9   5   1   24.80    1.01
   9   5   1   27.20    1.24
   9   6  -1   30.21    1.43
   9  -6   1   28.91    1.56
   9  -6  -1   30.00    1.37
   9  -6  -1   29.12    1.30
   9   6   1   29.22    1.39
   9   6   1   29.19    1.13
   9   7  -1    9.61    0.77
   9  -7   1   10.80    0.91
   9  -7  -1   10.99    0.75
   9   7   1    9.26    0.57
   9   7   1    9.18    0.78
   9  -7  -1    9.95    0.74
   9   8  -1    8.42    0.83
   9  -8   1    8.06    0.87
   9  -8  -1    8.17    0.74
   9  -8  -1    9.37    0.63
   9   8   1    7.83    0.52
   9   8   1    8.77    0.72
   9   9  -1   70.92    2.99
   9  -9   1   70.62    3.08
   9  -9  -1   71.40    2.57
   9  -9  -1   66.36    2.65
   9   9   1   70.46    2.74
   9   9   1   67.73    2.31
   9  10  -1    0.03    0.25
   9 -10   1   -0.12    0.22
   9 -10  -1    0.38    0.23
   9 -10  -1    0.06    0.16
   9  10   1   -0.08    0.14
   9  10   1   -0.05    0.21
   9  11  -1   10.79    0.92
   9 -11   1   11.69    1.05
   9 -11  -1   11.12    0.74
   9 -11  -1   11.02    0.90
   9  11   1   11.25    0.95
   9  12  -1    8.73    0.82
   9 -12   1    8.66    0.98
   9 -12  -1    9.80    0.99
   9  12   1    9.50    0.93
   9 -12  -1    8.69    0.74
  -9  13   1    6.89    0.62
   9 -13   1    7.48    0.98
   9  13  -1    8.38    0.92
   9 -13  -1    8.27    0.87
   9  13   1    7.54    0.89
   9 -14   1    3.19    0.76
   9  14  -1    2.69    0.70
   9 -14  -1    3.52    0.71
   9  14   1    3.18    0.68
  10   0  -1   61.44    2.48
  10   0   1   53.53    1.86
  10   0   1   56.25    2.12
  10   1  -1    0.28    0.26
  10  -1   1    0.19    0.24
  10  -1   1    0.00    0.17
  10  -1  -1    0.19    0.21
  10  -1  -1    0.28    0.25
  10   1   1    0.70    0.20
  10   1   1    0.16    0.23
  10   2  -1   19.74    1.10
  10  -2   1   19.94    1.15
  10  -2   1   19.16    0.83
  10  -2  -1   17.06    0.88
  10  -2  -1   20.39    1.14
  10   2   1   19.60    1.04
  10   2   1   19.83    1.01
  10   3  -1    4.53    0.55
  10  -3   1    4.39    0.59
  10  -3   1    4.68    0.43
  10  -3  -1    4.24    0.45
  10  -3  -1    4.57    0.55
  10   3   1    4.38    0.48
  10   3   1    4.68    0.46
  10   4  -1    6.02    0.69
  10  -4   1    5.31    0.40
  10  -4   1    6.40    0.62
  10  -4  -1    6.46    0.63
  10  -4  -1    6.36    0.59
  10   4   1    6.29    0.55
  10   4   1    5.50    0.49
  10  -5   1    1.91    0.42
  10   5  -1    1.67    0.40
  10  -5  -1    1.56    0.35
  10  -5  -1    1.71    0.40
  10   5   1    1.62    0.41
  10   5   1    1.16    0.31
  10   6  -1   41.44    2.04
  10  -6   1   45.50    2.13
  10  -6  -1   43.60    1.84
  10  -6  -1   42.30    1.79
  10   6   1   39.64    1.57
  10   6   1   41.89    1.92
  10  -7   1    7.05    0.79
  10   7  -1    6.09    0.76
  10  -7  -1    6.86    0.61
  10  -7  -1    6.10    0.64
  10   7   1    6.14    0.49
  10   7   1    6.10    0.70
  10   8  -1   14.70    1.06
  10  -8   1   14.37    1.16
  10  -8  -1   14.82    0.91
  10   8   1   15.48    0.99
  10   8   1   14.01    0.83
  10  -8  -1   14.43    1.01
  10   9  -1    8.16    0.90
  10  -9   1    9.74    0.95
  10  -9  -1    7.25    0.73
  10  -9  -1    8.95    0.75
  10   9   1    7.99    0.82
  10  10  -1    0.63    0.44
  10 -10   1    1.41    0.44
  10 -10  -1    1.39    0.32
  10 -10  -1    0.72    0.43
  10  10   1    1.11    0.45
  10  11  -1    1.88    0.52
  10 -11   1    2.29    0.60
  10 -11  -1    1.69    0.38
  10 -11  -1    2.27    0.48
  10  11   1    1.73    0.56
  10  12  -1   12.29    1.12
  10 -12   1   13.51    1.17
  10 -12  -1   13.85    1.22
  10  12   1   12.65    1.08
  11   0   1    3.06    0.44
  11   0   1    2.62    0.37
  11   0  -1    2.08    0.48
  11   1  -1    3.65    0.59
  11  -1   1    3.70    0.50
  11  -1   1    3.19    0.39
  11  -1  -1    3.87    0.58
  11   1   1    3.82    0.43
  11   1   1    2.75    0.46
  11   2  -1    0.43    0.29
  11  -2   1    1.22    0.32
  11  -2   1   -0.03    0.24
  11  -2  -1    0.36    0.30
  11   2   1    0.24    0.25
  11  -2  -1    0.24    0.24
  11   2   1    0.15    0.27
  11   3  -1   10.40    0.94
  11  -3   1   11.05    0.83
  11  -3  -1   10.01    0.69
  11  -3  -1   10.21    0.88
  11   3   1   10.63    0.77
  11   3   1   11.17    0.77
  11   4  -1    3.73    0.63
  11  -4   1    3.87    0.64
  11  -4  -1    3.57    0.46
  11  -4  -1    4.51    0.53
  11   4   1    4.10    0.56
  11   4   1    3.32    0.44
  11   5  -1    5.71    0.74
  11  -5   1    5.70    0.70
  11  -5  -1    4.93    0.57
  11  -5  -1    5.98    0.61
  11   5   1    6.54    0.63
  11   5   1    5.60    0.51
  11   6  -1    4.20    0.67
  11  -6   1    3.34    0.70
  11  -6  -1    5.03    0.61
  11  -6  -1    4.09    0.55
  11   6   1    4.03    0.56
  11   7  -1   -0.25    0.35
  11  -7   1    0.52    0.35
  11  -7  -1    0.57    0.29
  11  -7  -1    0.16    0.29
  11   7   1    0.39    0.30
  11   8  -1    0.13    0.33
  11  -8   1    0.05    0.35
  11  -8  -1    0.27    0.25
  11  -8  -1    0.19    0.25
  11   8   1   -0.09    0.32
  11   9  -1    3.78    0.72
  11  -9   1    4.77    0.78
  11  -9  -1    3.81    0.53
  11  -9  -1    4.16    0.66
  11   9   1    4.04    0.64
  11  10  -1    4.55    0.71
  11 -10   1    6.17    0.77
  11 -10  -1    4.73    0.58
  11 -10  -1    4.56    0.73
  11  10   1    5.22    0.71
  12   0  -1    2.14    0.54
  12   0   1    2.04    0.49
  12   0   1    1.92    0.38
  12   1  -1    2.64    0.65
  12  -1   1    2.35    0.58
  12  -1  -1    3.40    0.60
  12   1   1    3.66    0.49
  12   1   1    3.33    0.46
  12   2  -1    0.15    0.31
  12  -2   1    0.15    0.28
  12  -2  -1    0.03    0.28
  12   2   1    0.18    0.29
  12   2   1    0.43    0.26
  12   3  -1   14.56    1.18
  12  -3   1   12.32    1.05
  12  -3  -1   13.43    1.09
  12   3   1   13.37    0.91
  12   3   1   14.25    1.02
  12   4  -1   -0.08    0.27
  12  -4   1    0.17    0.26
  12  -4  -1    0.01    0.25
  12   4   1    0.12    0.28
  12   5  -1    0.59    0.35
  12  -5   1    0.61    0.41
  12  -5  -1    0.15    0.35
  12   5   1    0.19    0.33
  12   6  -1    1.86    0.54
  12  -6   1    2.49    0.61
  12  -6  -1    1.90    0.48
  12   6   1    2.10    0.51
  12   7  -1    8.72    1.00
  12  -7   1    9.32    0.95
  12  -7  -1    8.13    0.83
  12  -7  -1    7.72    0.80
  12   7   1    9.09    0.88
  13   0  -1    8.10    0.98
  13   1  -1    4.11    0.72
  13  -1   1    4.00    0.65
  13  -1  -1    3.78    0.72
   0   0  -2  940.09   13.71
   0   0  -2  931.40   11.94
   0  -1  -2    0.59    0.12
   0  -1  -2    0.76    0.16
   0   1  -2    0.64    0.10
   0   1  -2    0.54    0.12
   0  -2   2   86.99    1.73
   0  -2  -2   89.83    1.78
   0  -2  -2   88.82    1.95
   0  -3  -2    0.29    0.14
   0   3   2    0.65    0.12
   0   3  -2    0.34    0.08
   0  -3   2   -0.03    0.10
   0  -4  -2   62.72    1.63
   0   4   2   67.11    1.52
   0   4  -2   69.08    1.18
   0  -4   2   64.11    1.35
   0  -5  -2    1.05    0.21
   0   5   2    0.04    0.17
   0   5  -2    0.47    0.09
   0  -5   2    0.73    0.15
   0   6   2  416.44    7.63
   0   6  -2  381.24    5.56
   0  -6   2  408.65    6.69
   0  -6  -2  398.46    7.91
   0  -7  -2    0.03    0.18
   0   7   2    0.07    0.19
   0   7  -2    0.54    0.10
   0  -7   2    0.59    0.15
   0  -8  -2   70.28    2.07
   0   8   2   72.85    1.99
   0   8  -2   70.85    1.38
   0  -8   2   71.65    1.66
   0  -9  -2    0.08    0.19
   0   9   2    0.63    0.18
   0   9  -2    0.01    0.09
   0  -9   2    0.05    0.13
   0 -10  -2   14.93    0.80
   0 -10   2   13.16    0.59
   0  10   2   14.42    0.73
   0  10  -2   14.08    0.46
   0 -11  -2    1.03    0.28
   0  11   2    0.17    0.25
   0  11  -2    0.14    0.14
   0 -11   2    0.63    0.15
   0 -12  -2  166.15    4.98
   0  12   2  167.09    4.66
   0 -12   2  162.92    3.91
   0 -13  -2   -0.27    0.25
   0  13   2    0.12    0.22
   0 -13   2   -0.10    0.14
   0 -14  -2    7.91    0.69
   0  14   2    6.09    0.55
   0 -14   2    6.47    0.43
   0 -15  -2   -0.05    0.25
   0  15   2    0.17    0.23
   0 -16  -2    8.49    0.82
   0  16   2    8.29    0.77
   0 -17  -2   -0.07    0.33
   0  17   2   -0.26    0.30
   0 -18  -2   38.19    2.09
   0  18   2   34.40    1.81
  -1   0  -2  201.57    3.82
   1   0  -2  212.02    3.62
   1   0   2  202.32    2.99
   1   0  -2  201.34    3.44
   1   1  -2   38.99    0.90
   1   1  -2   40.16    0.87
  -1  -1  -2   38.43    1.04
   1  -1   2   39.38    1.03
   1  -1  -2   38.98    0.95
   1  -1  -2   40.29    0.97
   1   1   2   40.61    0.85
   1   2  -2   44.16    0.95
   1  -2   2   44.49    1.08
  -1  -2  -2   42.85    1.14
  -1  -2   2   43.47    0.91
   1  -2  -2   42.97    1.03
   1  -2  -2   44.01    1.07
   1   2   2   44.08    0.98
  -1   2  -2   44.77    0.74
   1  -3   2  137.93    2.74
   1   3  -2  141.69    2.45
  -1  -3  -2  135.87    2.91
   1  -3  -2  137.23    2.72
   1  -3  -2  140.14    2.94
  -1  -3   2  139.19    2.31
   1   3   2  139.58    2.57
  -1   3  -2  138.08    1.76
  -1  -4  -2   45.89    1.30
   1   4  -2   46.53    1.02
   1  -4   2   46.42    1.15
   1  -4  -2   44.59    1.21
  -1  -4   2   46.31    0.94
   1   4   2   47.55    1.17
  -1   4  -2   47.56    0.70
   1  -4  -2   46.88    1.20
  -1   5   2   95.60    2.18
  -1  -5  -2   97.51    2.37
   1  -5   2   97.46    2.14
   1  -5  -2   97.17    2.31
  -1  -5   2   97.77    1.76
   1   5   2   98.39    2.16
  -1   5  -2   94.14    1.22
  -1  -6  -2  204.11    4.52
  -1   6   2  202.05    4.18
   1  -6   2  202.26    4.06
   1  -6  -2  208.91    4.61
   1   6   2  207.60    4.23
  -1   6  -2  194.30    2.30
  -1  -6   2  208.63    3.40
  -1   7   2   12.09    0.57
   1   7  -2   12.66    0.42
  -1  -7  -2   11.67    0.62
   1  -7   2   11.44    0.49
   1  -7  -2   11.67    0.63
  -1  -7   2   11.73    0.39
   1   7   2   11.15    0.56
  -1   7  -2   11.11    0.26
  -1   8   2    7.50    0.46
   1   8  -2    8.14    0.32
  -1  -8  -2    7.02    0.52
   1  -8   2    7.03    0.39
   1  -8  -2    7.16    0.52
   1   8   2    6.88    0.47
  -1  -8   2    6.98    0.31
  -1   9   2   33.92    1.20
   1   9  -2   34.65    0.93
  -1  -9  -2   36.82    1.38
   1  -9   2   37.10    1.14
   1  -9  -2   34.57    1.28
  -1  -9   2   34.07    0.90
   1   9   2   36.60    1.28
  -1 -10  -2   37.21    1.45
  -1  10   2   39.67    1.39
   1  10  -2   39.47    1.13
   1 -10   2   38.53    1.25
  -1 -10   2   37.94    0.99
   1  10   2   39.78    1.42
   1 -10  -2   39.18    1.51
   1 -11   2   29.64    1.05
  -1  11   2   30.00    1.15
   1  11  -2   29.46    0.94
  -1 -11  -2   28.82    1.22
   1 -11  -2   31.14    1.29
  -1 -11   2   30.32    0.91
   1  11   2   29.77    1.23
  -1 -12  -2   84.52    2.86
  -1  12   2   85.32    2.70
   1  12  -2   82.29    2.17
   1 -12   2   84.49    2.42
   1 -12  -2   86.05    2.89
  -1 -12   2   84.10    2.07
   1  12   2   87.21    2.73
  -1  13   2    0.73    0.26
   1  13  -2    0.65    0.20
  -1 -13  -2    0.19    0.26
   1 -13   2    0.15    0.21
   1 -13  -2    0.45    0.28
  -1 -13   2    0.75    0.19
   1  13   2    0.95    0.29
  -1  14   2    4.31    0.51
   1 -14   2    3.41    0.38
  -1 -14  -2    3.72    0.46
   1  14   2    3.86    0.49
   1 -14  -2    3.65    0.55
  -1  15   2    6.46    0.58
  -1 -15  -2    6.18    0.62
   1 -15   2    5.82    0.50
   1 -15  -2    6.31    0.72
   1  15   2    6.14    0.64
  -1  16   2   16.10    1.04
  -1 -16  -2   16.25    1.12
   1 -16  -2   17.01    1.21
   1  16   2   14.28    0.97
  -1  17   2    6.28    0.72
  -1 -17  -2    6.43    0.77
   1 -17  -2    6.69    0.73
   1  17   2    5.18    0.67
  -1  18   2   33.46    1.72
  -1 -18  -2   34.21    1.93
   1 -18  -2   36.54    2.09
   1  18   2   30.99    1.70
   2   0  -2    0.84    0.14
   2   0   2    0.75    0.18
   2   0  -2    0.55    0.10
   2   0   2    0.79    0.10
  -2  -1  -2   68.41    1.68
   2  -1   2   67.00    1.66
   2  -1   2   68.89    1.07
   2   1  -2   69.97    1.57
   2  -1  -2   69.88    1.61
   2  -1  -2   67.20    1.41
   2   1   2   66.29    1.24
  -2  -2  -2    1.17    0.18
   2   2  -2    0.97    0.13
   2   2  -2    0.86    0.10
   2  -2   2    0.57    0.07
   2  -2   2    0.63    0.16
   2  -2  -2    0.76    0.13
   2   2   2    0.71    0.11
   2  -2  -2    0.57    0.16
   2   3  -2   70.11    1.57
  -2  -3  -2   67.20    1.70
   2  -3   2   67.72    0.81
   2  -3   2   67.57    1.64
   2  -3  -2   66.32    1.58
   2  -3  -2   67.81    1.60
  -2  -3   2   68.59    1.16
   2   3   2   67.22    1.42
   2   4  -2   10.88    0.42
  -2  -4  -2   10.18    0.49
   2  -4   2    9.77    0.48
   2  -4  -2   10.79    0.49
  -2  -4   2   10.04    0.27
   2   4   2   10.83    0.42
   2  -4  -2   10.15    0.44
   2   5  -2   21.37    0.65
   2  -5   2   22.33    0.76
  -2  -5  -2   22.38    0.76
   2  -5  -2   21.86    0.75
   2  -5  -2   22.52    0.76
  -2  -5   2   20.69    0.47
   2   5   2   23.48    0.76
  -2  -6  -2    0.96    0.19
   2   6  -2    1.22    0.15
   2  -6  -2    0.58    0.18
  -2  -6   2    0.57    0.09
   2   6   2    0.60    0.18
   2  -6  -2    0.62    0.17
  -2   7   2   38.45    1.18
  -2  -7  -2   38.84    1.29
   2  -7   2   38.48    1.24
   2   7  -2   37.22    1.03
   2  -7  -2   38.53    1.29
  -2  -7   2   37.17    0.74
   2   7   2   39.84    1.20
   2   8  -2    2.96    0.26
  -2  -8  -2    2.49    0.31
   2  -8   2    2.36    0.28
  -2   8   2    2.65    0.30
   2  -8  -2    2.48    0.34
  -2  -8   2    2.24    0.14
   2   8   2    2.52    0.28
   2  -9   2   56.54    1.72
  -2   9   2   56.29    1.74
   2   9  -2   53.65    1.50
  -2  -9  -2   54.04    1.80
   2  -9  -2   55.32    1.88
  -2  -9   2   54.69    1.11
   2   9   2   55.42    1.74
  -2 -10  -2   21.35    0.98
  -2  10   2   20.74    0.88
   2  10  -2   20.93    0.83
   2 -10   2   22.04    0.90
   2 -10  -2   20.79    1.01
   2  10   2   21.26    0.90
  -2  11   2   22.11    0.96
   2  11  -2   23.17    0.86
  -2 -11  -2   23.03    1.08
   2 -11   2   23.09    1.01
   2 -11  -2   22.31    1.11
   2  11   2   22.87    1.03
   2  12  -2    5.23    0.42
  -2 -12  -2    4.79    0.55
   2 -12   2    5.34    0.44
  -2  12   2    5.13    0.52
   2 -12  -2    4.95    0.55
   2  12   2    4.79    0.52
  -2  13   2   28.86    1.29
   2  13  -2   25.57    1.02
  -2 -13  -2   32.13    1.36
   2 -13   2   27.27    1.17
   2 -13  -2   28.79    1.44
   2  13   2   27.54    1.29
   2  14  -2    0.14    0.16
  -2 -14  -2   -0.34    0.21
   2 -14   2    0.15    0.19
  -2  14   2    0.41    0.23
   2 -14  -2   -0.07    0.27
   2  14   2    0.34    0.21
  -2  15   2   25.22    1.28
  -2 -15  -2   26.73    1.36
   2 -15   2   26.43    1.23
   2 -15  -2   26.19    1.47
   2  15   2   22.25    1.16
  -2  16   2    8.76    0.84
  -2 -16  -2   10.99    0.81
   2 -16   2    9.13    0.71
   2 -16  -2    9.01    0.84
   2  16   2    8.71    0.73
  -2  17   2   12.09    0.99
  -2 -17  -2   13.39    0.96
   2 -17  -2   11.38    1.07
   2  17   2   11.41    1.00
   3   0  -2   45.02    1.23
   3   0   2   42.83    0.83
   3   0   2   43.35    1.27
   3   1  -2   10.73    0.32
   3  -1   2    9.61    0.24
   3  -1   2   11.46    0.52
   3   1  -2    9.63    0.45
   3  -1  -2   10.32    0.47
   3  -1  -2   10.82    0.36
   3   1   2   10.79    0.34
   3   1   2   11.28    0.51
   3   2  -2    0.39    0.14
   3   2  -2    0.17    0.06
  -3  -2  -2    0.07    0.13
   3  -2   2    1.06    0.16
   3  -2   2    0.19    0.05
   3  -2  -2    0.37    0.10
   3   2   2    0.46    0.09
   3  -2  -2    0.28    0.15
   3   3  -2    8.77    0.43
  -3  -3  -2    7.66    0.43
   3  -3   2    7.74    0.14
   3  -3   2    8.57    0.42
   3  -3  -2    8.33    0.36
   3  -3  -2    9.08    0.45
  -3  -3   2    7.61    0.21
   3   3   2    8.35    0.33
   3   4  -2    4.20    0.31
  -3  -4  -2    4.40    0.34
   3  -4   2    4.48    0.36
   3  -4  -2    4.57    0.30
   3  -4  -2    4.40    0.31
  -3  -4   2    3.82    0.12
   3   4   2    4.14    0.28
   3   5  -2    4.82    0.30
  -3  -5  -2    4.16    0.35
   3  -5   2    5.11    0.39
   3  -5  -2    4.07    0.33
   3  -5  -2    5.19    0.36
  -3  -5   2    3.97    0.12
   3   5   2    4.27    0.29
   3   6  -2   55.10    1.50
  -3  -6  -2   52.51    1.59
   3  -6   2   53.70    1.60
   3  -6  -2   54.00    1.59
   3  -6  -2   53.93    1.59
   3   6   2   53.03    1.48
   3   7  -2   23.34    0.86
  -3  -7  -2   23.64    0.88
   3  -7   2   24.05    0.99
   3  -7  -2   23.94    0.90
   3  -7  -2   23.31    0.93
   3   7   2   23.89    0.89
   3   8  -2    0.56    0.14
  -3  -8  -2    0.41    0.19
   3  -8   2   -0.05    0.20
   3  -8  -2    0.06    0.21
   3   8   2   -0.08    0.16
  -3   9   2   14.47    0.73
   3   9  -2   15.29    0.66
  -3  -9  -2   16.44    0.78
   3  -9   2   15.34    0.82
   3  -9  -2   17.68    0.82
   3   9   2   14.30    0.66
  -3  10   2    8.08    0.57
   3  10  -2    8.47    0.49
  -3 -10  -2    8.23    0.60
   3 -10   2    8.56    0.58
   3 -10  -2    8.98    0.62
   3  10   2   10.20    0.56
  -3  11   2    3.82    0.42
   3  11  -2    3.54    0.34
  -3 -11  -2    3.65    0.40
   3 -11   2    4.13    0.46
   3 -11  -2    3.73    0.45
   3  11   2    3.32    0.40
  -3  12   2   34.14    1.39
   3  12  -2   34.53    1.28
  -3 -12  -2   33.50    1.40
   3 -12   2   33.21    1.38
   3 -12  -2   37.66    1.65
   3  12   2   32.13    1.33
  -3  13   2   10.81    0.77
   3  13  -2   10.55    0.61
  -3 -13  -2   11.14    0.79
   3 -13   2   10.42    0.71
   3 -13  -2   11.21    0.90
   3  13   2   10.40    0.66
  -3  14   2    2.18    0.39
   3  14  -2    1.32    0.29
  -3 -14  -2    1.18    0.35
   3 -14   2    2.25    0.36
   3 -14  -2    1.08    0.45
   3  14   2    1.82    0.41
  -3  15   2   13.64    0.95
   3  15  -2   12.67    0.79
  -3 -15  -2   14.81    0.89
   3 -15   2   12.18    0.93
   3 -15  -2   14.79    1.02
   3  15   2   14.16    0.96
  -3  16   2    2.12    0.51
  -3 -16  -2    2.48    0.45
   3 -16   2    2.48    0.45
   3  16   2    2.52    0.45
   3 -16  -2    2.13    0.50
  -3  17   2    5.28    0.64
  -3 -17  -2    5.44    0.63
   3 -17   2    5.24    0.71
   3 -17  -2    4.86    0.77
   3  17   2    5.11    0.74
   4   0  -2  143.60    3.43
   4   0  -2  141.72    2.46
   4   0   2  143.00    2.37
   4   0   2  141.44    3.43
   4   1  -2    2.64    0.28
   4   1  -2    3.30    0.17
   4  -1   2    2.99    0.16
   4  -1   2    3.41    0.35
   4  -1  -2    3.32    0.19
   4  -1  -2    3.31    0.32
   4   1   2    4.19    0.23
   4   1   2    3.25    0.30
   4   2  -2   19.25    0.76
   4   2  -2   18.47    0.39
   4  -2   2   18.45    0.36
   4  -2   2   17.55    0.73
   4  -2  -2   18.05    0.57
   4  -2  -2   19.18    0.72
   4   2   2   18.06    0.54
   4   2   2   18.77    0.77
   4   3  -2    0.04    0.20
   4  -3   2    1.49    0.22
   4  -3  -2    0.72    0.23
   4  -3  -2    1.05    0.18
   4   3   2    0.98    0.15
   4   3   2    1.11    0.23
   4   4  -2   33.99    1.12
  -4  -4  -2   34.85    1.22
   4  -4   2   35.67    1.26
   4  -4  -2   36.96    1.22
   4  -4  -2   33.53    1.03
   4   4   2   35.65    1.03
   4   5  -2    1.78    0.24
  -4  -5  -2    1.57    0.27
   4  -5   2    1.46    0.30
   4  -5  -2    2.41    0.28
   4  -5  -2    1.31    0.26
   4   5   2    1.39    0.22
   4   6  -2  125.05    3.26
  -4  -6  -2  120.77    3.15
   4  -6   2  125.92    3.48
   4  -6  -2  123.20    3.15
   4  -6  -2  129.57    3.35
   4   6   2  128.62    3.11
  -4  -7  -2   13.86    0.71
   4  -7   2   14.23    0.75
   4   7  -2   14.36    0.70
   4  -7  -2   15.17    0.75
   4  -7  -2   15.20    0.72
   4   7   2   13.78    0.66
   4   8  -2    6.83    0.50
  -4  -8  -2    6.62    0.46
   4  -8   2    6.88    0.58
   4  -8  -2    7.55    0.51
   4  -8  -2    6.84    0.57
   4   8   2    7.82    0.53
   4   9  -2    2.36    0.29
  -4  -9  -2    1.79    0.30
   4  -9   2    1.90    0.34
   4  -9  -2    1.89    0.27
   4  -9  -2    1.57    0.38
   4   9   2    2.21    0.36
  -4  10   2   25.68    1.06
   4  10  -2   24.97    1.06
  -4 -10  -2   27.75    1.14
   4 -10   2   28.16    1.29
   4 -10  -2   28.70    1.32
   4  10   2   27.41    1.18
  -4  11   2    0.83    0.29
   4  11  -2    0.75    0.24
  -4 -11  -2    0.70    0.25
   4 -11   2    1.06    0.33
   4 -11  -2    0.72    0.34
   4  11   2    0.58    0.31
  -4  12   2   79.71    2.73
   4  12  -2   75.24    2.57
  -4 -12  -2   80.75    2.70
   4 -12   2   79.78    2.93
   4 -12  -2   84.21    3.14
   4  12   2   82.50    2.76
  -4  13   2   12.41    0.82
   4  13  -2   12.43    0.87
  -4 -13  -2   18.80    0.93
   4 -13   2   13.32    0.88
   4 -13  -2   13.01    1.06
   4  13   2   14.74    0.92
  -4  14   2    4.13    0.49
   4  14  -2    4.07    0.48
  -4 -14  -2    4.84    0.56
   4 -14   2    4.16    0.53
   4 -14  -2    4.55    0.66
   4  14   2    4.85    0.55
  -4  15   2    2.86    0.44
   4  15  -2    2.64    0.43
  -4 -15  -2    2.67    0.44
   4 -15   2    2.20    0.53
   4 -15  -2    3.27    0.58
   4  15   2    2.49    0.55
  -4 -16  -2    8.80    0.79
   4 -16   2   10.49    0.88
  -4  16   2   10.59    0.80
   4 -16  -2   10.78    1.03
   4  16   2   11.26    0.95
  -4  17   2   -0.09    0.29
  -4 -17  -2    0.13    0.28
   4 -17   2    0.60    0.30
   4 -17  -2    0.03    0.38
   4  17   2    0.33    0.35
   5   0  -2  243.84    4.08
   5   0   2  246.55    4.14
   5   0   2  246.05    5.86
   5   0  -2  239.96    5.64
   5   1  -2   45.88    0.94
   5   1  -2   51.05    1.62
   5  -1   2   51.45    1.01
   5  -1   2   47.86    1.55
   5  -1  -2   48.79    1.62
   5   1   2   50.47    1.23
   5   1   2   50.33    1.69
   5   2  -2   46.53    0.79
   5   2  -2   49.65    1.65
   5  -2   2   47.81    1.58
   5  -2   2   44.57    0.82
   5  -2  -2   47.86    1.56
   5  -2  -2   47.19    1.22
   5   2   2   47.26    1.18
   5   2   2   49.19    1.56
   5   3  -2   81.78    2.37
   5  -3   2   81.79    2.42
   5  -3  -2   75.60    1.93
   5   3   2   77.63    2.32
   5   3   2   79.05    1.89
   5  -3  -2   80.35    2.35
   5   4  -2   24.86    1.03
   5  -4   2   23.85    1.08
   5  -4  -2   23.74    1.01
   5  -4  -2   22.52    0.84
   5   4   2   23.37    1.01
   5   4   2   24.10    0.82
   5   5  -2   25.03    1.01
   5  -5   2   23.16    1.09
   5  -5  -2   26.03    1.05
   5  -5  -2   22.93    0.94
   5   5   2   23.83    0.95
   5   6  -2  121.08    3.46
  -5  -6  -2  123.71    3.50
   5  -6   2  119.63    3.62
   5  -6  -2  123.42    3.40
   5  -6  -2  122.42    3.33
   5   6   2  122.95    3.24
   5   7  -2   52.21    1.78
  -5  -7  -2   48.94    1.71
   5  -7   2   53.27    1.90
   5  -7  -2   52.53    1.86
   5   7   2   53.07    1.76
   5  -7  -2   50.29    1.67
   5   8  -2   37.40    1.49
  -5  -8  -2   37.19    1.40
   5  -8   2   39.38    1.57
   5  -8  -2   38.30    1.47
   5  -8  -2   39.51    1.59
   5   8   2   39.72    1.47
   5   9  -2   51.02    1.83
  -5  -9  -2   50.20    1.81
   5  -9   2   52.79    1.98
   5  -9  -2   50.71    1.84
   5  -9  -2   55.09    2.09
   5   9   2   56.39    1.95
   5  10  -2    5.01    0.45
  -5 -10  -2    4.45    0.49
   5 -10   2    4.66    0.54
   5 -10  -2    5.17    0.42
   5 -10  -2    4.48    0.59
   5  10   2    5.11    0.56
  -5  11   2   10.20    0.65
   5  11  -2   11.80    0.77
  -5 -11  -2   10.31    0.68
   5 -11   2   10.87    0.81
   5 -11  -2   12.48    0.84
   5  11   2   11.13    0.75
  -5  12   2   36.44    1.59
   5  12  -2   37.24    1.60
  -5 -12  -2   36.81    1.53
   5 -12   2   37.59    1.82
   5 -12  -2   38.42    1.86
   5  12   2   39.40    1.73
  -5  13   2   28.04    1.40
   5  13  -2   27.11    1.36
  -5 -13  -2   27.84    1.30
   5 -13   2   29.03    1.49
   5  13   2   28.75    1.42
   5 -13  -2   31.97    1.69
  -5  14   2    4.27    0.54
   5  14  -2    5.24    0.58
  -5 -14  -2    4.74    0.53
   5 -14   2    4.82    0.67
   5 -14  -2    6.08    0.74
   5  14   2    5.35    0.60
  -5  15   2   23.11    1.27
   5  15  -2   23.70    1.34
  -5 -15  -2   23.64    1.33
   5 -15   2   23.27    1.41
   5  15   2   24.43    1.47
   5 -15  -2   25.17    1.52
  -5  16   2    3.18    0.49
  -5 -16  -2    2.60    0.53
   5 -16   2    3.37    0.64
   5 -16  -2    2.27    0.59
   5  16   2    3.09    0.60
   6   0  -2    6.72    0.54
   6   0  -2    6.31    0.30
   6   0   2    6.18    0.30
   6   0   2    6.62    0.50
   6   1  -2   68.57    1.34
   6   1  -2   73.41    2.35
   6  -1   2   67.62    1.42
   6  -1   2   71.69    2.23
   6  -1  -2   73.24    2.33
   6  -1  -2   73.14    1.69
   6   1   2   71.43    1.73
   6   1   2   70.74    2.20
   6   2  -2    7.55    0.56
   6  -2   2    6.73    0.56
   6  -2  -2    5.47    0.39
   6   2   2    7.77    0.45
   6   2   2    7.72    0.60
   6  -2  -2    7.93    0.59
   6  -3   2  241.76    6.35
   6   3  -2  252.13    6.55
   6  -3  -2  242.98    6.13
   6  -3  -2  237.08    5.21
   6   3   2  247.84    5.34
   6   3   2  242.74    6.17
   6   4  -2    6.95    0.59
   6  -4   2    6.86    0.62
   6  -4  -2    6.72    0.58
   6  -4  -2    6.31    0.44
   6   4   2    6.97    0.45
   6   4   2    6.30    0.56
   6   5  -2   97.47    3.04
   6  -5   2   96.07    3.19
   6  -5  -2  102.04    3.04
   6  -5  -2   97.68    2.79
   6   5   2   99.34    3.03
   6   5   2  101.95    2.80
   6   6  -2    7.69    0.67
   6  -6   2    8.46    0.72
   6  -6  -2    8.66    0.56
   6   6   2    8.39    0.64
   6   6   2    8.60    0.57
   6  -6  -2    9.00    0.59
   6   7  -2   38.31    1.56
   6  -7   2   35.29    1.61
   6  -7  -2   37.09    1.45
   6  -7  -2   37.18    1.52
   6   7   2   37.62    1.44
   6   8  -2    0.72    0.35
  -6  -8  -2    1.19    0.34
   6  -8   2    1.07    0.34
   6  -8  -2    1.47    0.33
   6  -8  -2    1.28    0.36
   6   8   2    1.57    0.35
   6   9  -2   96.22    3.32
  -6  -9  -2  102.21    3.32
   6  -9   2   99.27    3.53
   6  -9  -2   95.51    3.18
   6  -9  -2  101.87    3.41
   6   9   2   99.02    3.18
   6  10  -2    4.95    0.57
  -6 -10  -2    5.15    0.51
   6 -10   2    5.16    0.65
   6 -10  -2    4.98    0.52
   6 -10  -2    4.40    0.63
   6  10   2    4.71    0.58
   6  11  -2   31.42    1.41
  -6 -11  -2   30.45    1.29
   6 -11   2   31.22    1.55
   6 -11  -2   25.87    1.22
   6 -11  -2   31.69    1.53
   6  11   2   30.14    1.50
  -6  12   2    1.57    0.39
   6  12  -2    2.12    0.41
  -6 -12  -2    1.67    0.36
   6 -12   2    2.62    0.50
   6  12   2    2.30    0.46
   6 -12  -2    1.58    0.49
  -6  13   2    9.90    0.75
   6  13  -2   10.66    0.83
  -6 -13  -2   10.48    0.73
   6 -13   2   10.57    0.98
   6 -13  -2   11.53    1.00
   6  13   2   11.86    0.95
  -6  14   2    1.03    0.29
   6  14  -2    0.03    0.33
  -6 -14  -2    0.38    0.27
   6 -14   2    0.38    0.36
   6 -14  -2    1.13    0.40
   6  14   2    0.26    0.39
  -6  15   2   23.54    1.44
   6  15  -2   26.44    1.62
  -6 -15  -2   23.81    1.40
   6 -15   2   28.88    1.66
   6 -15  -2   28.02    1.75
   6  15   2   26.94    1.70
   7   0  -2   55.37    1.99
   7   0  -2   54.41    1.33
   7   0   2   55.26    1.41
   7   0   2   56.03    1.93
   7   1  -2   22.84    1.14
   7  -1   2   22.42    0.68
   7  -1   2   22.14    1.14
   7  -1  -2   22.70    1.10
   7  -1  -2   22.83    0.76
   7   1   2   22.57    1.10
   7   1   2   22.73    0.76
   7   2  -2   11.93    0.80
   7  -2   2    9.83    0.37
   7  -2   2   10.12    0.78
   7  -2  -2   11.32    0.75
   7  -2  -2   11.18    0.49
   7   2   2   10.00    0.50
   7   2   2   10.78    0.73
   7   3  -2   85.96    2.98
   7  -3   2   80.77    2.80
   7  -3  -2   82.44    2.68
   7  -3  -2   80.74    2.27
   7   3   2   81.91    2.28
   7   3   2   84.57    2.70
   7   4  -2    0.16    0.26
   7  -4   2    0.53    0.28
   7  -4  -2    0.76    0.23
   7  -4  -2    0.19    0.19
   7   4   2    0.26    0.18
   7   4   2   -0.09    0.24
   7   5  -2    6.91    0.61
   7  -5   2    6.23    0.65
   7  -5  -2    6.63    0.59
   7  -5  -2    5.56    0.45
   7   5   2    6.13    0.52
   7   5   2    6.72    0.52
   7   6  -2   26.93    1.34
   7  -6   2   29.26    1.39
   7  -6  -2   29.55    1.36
   7  -6  -2   27.20    1.21
   7   6   2   29.47    1.20
   7   6   2   28.88    1.23
   7   7  -2   14.13    0.85
   7  -7   2   14.08    0.99
   7  -7  -2   14.68    0.87
   7   7   2   14.33    0.88
   7   7   2   14.80    0.88
   7  -7  -2   14.15    0.88
   7   8  -2   12.39    0.89
   7  -8   2   14.05    0.90
   7  -8  -2   12.69    0.82
   7  -8  -2   12.06    0.88
   7   8   2   13.37    0.83
   7   8   2   13.07    0.84
   7   9  -2   54.83    2.23
   7  -9   2   57.14    2.55
   7  -9  -2   55.07    2.11
   7  -9  -2   56.50    2.27
   7   9   2   59.19    2.27
   7   9   2   58.54    2.28
   7  10  -2    4.01    0.61
   7 -10   2    5.13    0.61
   7 -10  -2    4.27    0.55
   7 -10  -2    4.86    0.63
   7  10   2    5.06    0.55
   7  11  -2    5.28    0.57
  -7 -11  -2    5.42    0.58
   7 -11   2    4.34    0.69
   7 -11  -2    4.04    0.59
   7  11   2    4.45    0.64
   7 -11  -2    5.41    0.57
   7  12  -2    5.46    0.69
  -7 -12  -2    5.94    0.60
   7 -12   2    5.57    0.76
   7 -12  -2    5.96    0.68
   7  12   2    6.29    0.66
  -7  13   2   12.24    0.93
   7  13  -2   13.83    1.11
  -7 -13  -2   14.44    0.94
   7 -13   2   13.89    1.17
   7 -13  -2   14.71    1.17
   7  13   2   13.93    1.04
  -7  14   2    2.90    0.50
   7  14  -2    3.18    0.55
  -7 -14  -2    3.76    0.52
   7 -14   2    3.22    0.69
   7 -14  -2    3.36    0.68
   7  14   2    3.40    0.66
   8   0  -2   24.31    1.23
   8   0   2   22.67    0.84
   8   0   2   26.40    1.21
   8   1  -2    1.28    0.33
   8  -1   2    0.72    0.18
   8  -1   2    0.87    0.34
   8  -1  -2    0.69    0.18
   8   1   2    0.80    0.28
   8   1   2    0.72    0.18
   8  -1  -2    0.83    0.28
   8   2  -2    4.28    0.49
   8  -2   2    4.52    0.55
   8  -2  -2    4.42    0.51
   8  -2  -2    2.91    0.32
   8   2   2    4.25    0.34
   8   2   2    3.80    0.49
   8   3  -2    0.16    0.24
   8  -3   2   -0.09    0.24
   8  -3  -2    1.01    0.23
   8  -3  -2    0.13    0.16
   8   3   2    0.13    0.22
   8   3   2    0.27    0.17
   8  -4   2    4.32    0.56
   8   4  -2    4.01    0.53
   8  -4  -2    3.51    0.51
   8  -4  -2    3.47    0.35
   8   4   2    4.27    0.43
   8   4   2    4.36    0.45
   8   5  -2    4.04    0.56
   8  -5   2    4.69    0.59
   8  -5  -2    4.51    0.54
   8  -5  -2    3.96    0.41
   8   5   2    3.74    0.42
   8   5   2    4.57    0.53
   8   6  -2   33.99    1.63
   8  -6   2   30.91    1.56
   8  -6  -2   32.69    1.48
   8  -6  -2   32.03    1.34
   8   6   2   33.75    1.43
   8   6   2   31.54    1.50
   8   7  -2    4.55    0.59
   8  -7   2    5.24    0.64
   8  -7  -2    4.25    0.47
   8   7   2    4.79    0.49
   8   7   2    3.75    0.54
   8  -7  -2    4.46    0.56
   8  -8   2    2.39    0.54
   8   8  -2    2.05    0.50
   8  -8  -2    2.51    0.47
   8  -8  -2    3.04    0.42
   8   8   2    2.94    0.41
   8   8   2    2.23    0.41
   8   9  -2    1.97    0.44
   8  -9   2    1.65    0.50
   8  -9  -2    0.78    0.35
   8  -9  -2    1.29    0.42
   8   9   2    1.40    0.36
   8   9   2    1.34    0.34
   8  10  -2    3.88    0.56
   8 -10   2    4.47    0.72
   8 -10  -2    4.50    0.56
   8 -10  -2    3.27    0.55
   8  10   2    4.23    0.62
   8  10   2    4.93    0.56
   8  11  -2    1.42    0.53
   8 -11   2    2.53    0.60
   8 -11  -2    2.18    0.48
   8 -11  -2    2.83    0.50
   8  11   2    2.94    0.47
   8  11   2    2.36    0.43
   8  12  -2   17.77    1.29
   8 -12   2   17.35    1.27
   8 -12  -2   18.06    1.19
   8 -12  -2   17.43    1.31
   8  12   2   17.42    1.08
   8  12   2   19.02    1.21
  -8  13   2    1.62    0.51
   8  13  -2    3.67    0.65
   8 -13   2    3.53    0.61
   8 -13  -2    2.59    0.65
   8  13   2    2.74    0.57
   8  13   2    3.46    0.56
   9   0  -2    4.15    0.55
   9   0   2    4.57    0.52
   9   0   2    3.67    0.37
   9  -1   2    7.14    0.63
   9   1  -2    6.80    0.70
   9  -1  -2    6.13    0.68
   9   1   2    6.20    0.49
   9   1   2    7.53    0.63
   9   2  -2    1.11    0.30
   9  -2   2    0.01    0.26
   9  -2  -2    0.63    0.25
   9  -2  -2   -0.16    0.14
   9   2   2    0.35    0.18
   9   2   2    0.08    0.27
   9   3  -2   13.06    0.90
   9  -3   2   11.72    0.86
   9  -3  -2   11.76    0.89
   9  -3  -2   12.12    0.63
   9   3   2   11.58    0.67
   9   3   2   11.76    0.86
   9   4  -2    6.54    0.70
   9  -4   2    6.07    0.64
   9  -4  -2    5.61    0.58
   9  -4  -2    5.42    0.46
   9   4   2    5.29    0.48
   9   4   2    5.60    0.55
   9   5  -2    1.91    0.45
   9  -5   2    2.23    0.46
   9  -5  -2    2.66    0.48
   9  -5  -2    2.08    0.34
   9   5   2    1.76    0.36
   9   5   2    3.23    0.44
   9   6  -2    3.76    0.58
   9  -6   2    3.62    0.54
   9  -6  -2    2.91    0.42
   9   6   2    3.04    0.46
   9   6   2    3.13    0.44
   9  -6  -2    3.61    0.49
   9   7  -2   10.25    0.94
   9  -7   2   11.15    0.92
   9  -7  -2   11.13    0.91
   9  -7  -2   10.75    0.78
   9   7   2   10.91    0.84
   9   7   2   11.21    0.80
   9   8  -2    0.48    0.38
   9  -8   2    0.72    0.40
   9  -8  -2    1.07    0.33
   9   8   2    0.76    0.39
   9   8   2    0.93    0.33
   9  -8  -2    1.12    0.38
   9  -9   2   12.60    1.06
   9   9  -2   12.57    1.09
   9  -9  -2   11.43    0.94
   9  -9  -2   12.02    1.00
   9   9   2   13.69    0.89
   9   9   2   12.99    1.01
   9 -10   2    6.33    0.81
   9  10  -2    6.86    0.74
   9 -10  -2    6.14    0.72
   9 -10  -2    6.04    0.77
   9  10   2    6.88    0.79
   9  10   2    6.74    0.70
   9  11  -2    2.23    0.57
   9 -11   2    1.94    0.63
   9 -11  -2    2.31    0.45
   9 -11  -2    1.98    0.50
   9  11   2    2.27    0.51
   9  11   2    2.07    0.44
   9  12  -2    9.87    1.01
   9 -12   2    9.95    1.13
   9 -12  -2    8.78    0.90
   9 -12  -2    9.04    0.93
   9  12   2    9.86    0.99
  10   0   2    0.15    0.24
  10   0  -2   -0.10    0.24
  10  -1   2   12.01    0.97
  10   1  -2   12.22    1.02
  10   1   2   11.83    0.89
  10   1   2   11.35    0.66
  10  -1  -2   11.83    0.95
  10  -2   2    2.29    0.55
  10   2  -2    2.40    0.56
  10   2   2    2.15    0.35
  10   2   2    2.40    0.53
  10  -2  -2    2.73    0.55
  10  -3   2   42.20    2.10
  10   3  -2   46.79    2.23
  10  -3  -2   43.47    2.14
  10   3   2   42.74    1.71
  10   3   2   44.44    2.02
  10  -4   2   -0.02    0.25
  10   4  -2   -0.07    0.25
  10  -4  -2   -0.15    0.23
  10   4   2    0.05    0.22
  10  -4  -2    0.09    0.15
  10   4   2    0.02    0.20
  10  -5   2    6.32    0.80
  10   5  -2    6.82    0.78
  10   5   2    5.94    0.69
  10   5   2    5.44    0.57
  10  -5  -2    5.44    0.66
  10  -5  -2    5.55    0.54
  10   6  -2    0.39    0.28
  10  -6  -2    0.10    0.26
  10   6   2    0.05    0.23
  10   6   2   -0.35    0.20
  10  -6  -2   -0.04    0.19
  10  -7   2   21.87    1.44
  10   7  -2   20.47    1.48
  10   7   2   20.20    1.21
  10  -7  -2   21.34    1.31
  10  -7  -2   21.06    1.30
  10   7   2   19.87    1.18
  10  -8   2    2.52    0.71
  10   8  -2    4.78    0.68
  10  -8  -2    3.37    0.58
  10  -8  -2    2.48    0.51
  10   8   2    2.09    0.52
  10   8   2    2.45    0.58
  10  -9   2   41.08    2.38
  10   9  -2   36.15    2.21
  10   9   2   37.63    1.88
  10  -9  -2   38.17    1.90
  10  -9  -2   37.78    1.94
  10   9   2   39.91    2.06
  10 -10   2    1.40    0.49
  10  10  -2    0.59    0.40
  10 -10  -2    0.35    0.39
  10 -10  -2    0.48    0.36
  10  10   2    0.10    0.44
  11   0   2   12.16    1.11
  11   0  -2   12.66    1.02
  11  -1   2   15.02    1.15
  11   1  -2   16.22    1.31
  11  -1  -2   14.51    1.19
  11   1   2   14.57    1.09
  11   2  -2    2.22    0.59
  11  -2   2    1.98    0.58
  11   2   2    1.34    0.49
  11  -2  -2    2.15    0.58
  11   3  -2   67.88    3.31
  11  -3   2   62.31    2.95
  11   3   2   62.22    2.91
  11  -3  -2   62.31    2.95
  11  -4   2    4.58    0.81
  11   4  -2    4.65    0.73
  11   4   2    4.48    0.72
  11   4   2    3.75    0.54
  11  -4  -2    4.53    0.64
  11  -5   2   16.43    1.29
  11   5  -2   17.26    1.31
  11   5   2   15.12    1.21
  11   5   2   16.11    1.06
  11  -5  -2   16.50    1.19
  11  -6   2   11.64    1.22
  11   6  -2   11.08    1.06
  11   6   2   11.37    0.93
  11  -6  -2   12.85    1.13
  11   6   2   11.11    1.04
  11   7  -2    6.09    0.94
  11  -7   2    7.02    0.90
  11   7   2    6.53    0.73
  11  -7  -2    6.55    0.89
  11   7   2    6.53    0.78
  12   0  -2   47.79    2.43
  12   0   2   41.71    2.34
  12  -1   2    2.15    0.64
  12   1  -2    1.62    0.62
  12  -1  -2    2.03    0.65
  12   1   2    2.23    0.56
  12   2  -2   14.03    1.26
  12  -2   2   16.19    1.35
  12   2   2   13.58    1.16
  12  -2  -2   15.03    1.34
  12   3  -2    9.92    1.06
  12  -3   2    9.34    1.06
  12  -3  -2   11.04    1.11
  12   3   2    9.70    0.95
   0   0  -3    0.71    0.20
   0   0  -3    0.47    0.14
   0   1  -3   26.83    0.77
   0  -1  -3   25.74    0.93
   0  -1   3   26.03    0.91
   0   2   3    0.47    0.12
   0   2  -3    0.11    0.09
   0  -2   3    0.10    0.14
   0  -2  -3   -0.08    0.18
   0  -3  -3   13.15    0.66
   0   3   3   12.68    0.59
   0  -3   3   12.28    0.55
   0   3  -3   12.54    0.45
   0  -4  -3   -0.12    0.19
   0   4   3    0.17    0.15
   0   4  -3    0.37    0.11
   0  -4   3    0.17    0.14
   0  -5  -3    4.04    0.42
   0   5   3    3.91    0.37
   0  -5   3    3.73    0.30
   0   5  -3    3.98    0.22
   0  -6  -3    0.51    0.22
   0   6   3    0.59    0.19
   0   6  -3    0.12    0.10
   0  -6   3    0.17    0.15
   0  -7   3   23.58    0.90
   0  -7  -3   25.46    1.10
   0   7   3   24.57    0.97
   0  -8  -3    0.24    0.26
   0   8   3    0.18    0.23
   0  -8   3    0.50    0.16
   0  -9  -3   22.31    1.10
   0   9   3   24.49    1.09
   0  -9   3   22.64    0.90
   0 -10  -3   -0.29    0.23
   0  10   3    0.44    0.24
   0 -10   3    0.33    0.15
   0 -11  -3    7.36    0.62
   0  11   3    7.83    0.66
   0 -12  -3    0.23    0.32
   0  12   3    0.40    0.27
   0 -13  -3   21.33    1.27
   0  13   3   20.92    1.17
   0 -14  -3    0.19    0.30
   0  14   3    0.02    0.23
   0 -15  -3   19.87    1.39
   0  15   3   16.35    1.10
   1   0  -3   36.42    1.07
   1   0  -3   39.60    1.23
   1   0   3   37.82    1.32
   1   0   3   37.01    1.01
   1   1  -3    7.80    0.38
  -1  -1  -3    8.32    0.49
   1  -1   3    9.45    0.53
   1  -1   3    7.07    0.35
   1  -1  -3    8.13    0.48
   1   1   3    8.24    0.41
   1  -1  -3    8.49    0.43
  -1  -2  -3    2.97    0.32
   1   2  -3    2.66    0.23
   1  -2   3    2.54    0.17
   1  -2   3    2.55    0.29
   1  -2  -3    3.24    0.27
   1  -2  -3    2.70    0.29
   1   2   3    2.98    0.27
  -1  -2   3    3.15    0.26
   1  -3   3   26.07    1.01
   1   3  -3   29.38    0.85
  -1  -3  -3   26.54    1.08
   1  -3  -3   24.98    0.94
  -1  -3   3   24.86    0.82
   1   3   3   25.72    0.90
   1  -3  -3   25.86    0.91
  -1   4   3   15.06    0.68
   1   4  -3   13.65    0.56
  -1  -4  -3   15.12    0.74
   1  -4   3   15.38    0.66
   1  -4  -3   15.64    0.73
   1   4   3   15.61    0.69
  -1   4  -3   14.68    0.42
  -1  -4   3   13.68    0.58
  -1   5   3   16.47    0.73
   1   5  -3   14.73    0.55
  -1  -5  -3   17.44    0.86
   1  -5   3   18.94    0.77
   1  -5  -3   17.47    0.81
  -1  -5   3   16.62    0.60
   1   5   3   18.88    0.80
  -1  -6  -3   53.37    1.87
  -1   6   3   56.77    1.80
   1   6  -3   51.65    1.38
   1  -6   3   54.86    1.73
   1  -6  -3   55.03    1.92
  -1  -6   3   53.19    1.44
   1   6   3   57.84    1.81
  -1   7   3    5.28    0.45
   1   7  -3    5.14    0.32
  -1  -7  -3    5.04    0.52
   1  -7   3    5.09    0.39
   1  -7  -3    5.49    0.51
  -1  -7   3    4.38    0.29
   1   7   3    4.47    0.45
  -1   8   3   -0.07    0.18
   1   8  -3    0.11    0.11
   1  -8   3    0.07    0.16
  -1  -8  -3    0.04    0.23
   1  -8  -3    0.30    0.23
  -1  -8   3    0.12    0.14
   1   8   3    0.76    0.18
  -1   9   3   10.71    0.70
  -1  -9  -3   11.19    0.79
   1  -9   3   10.85    0.60
   1  -9  -3   10.52    0.74
   1   9   3   11.57    0.69
  -1  10   3   23.80    1.13
   1 -10   3   21.31    0.97
  -1 -10  -3   24.14    1.19
   1 -10  -3   24.88    1.25
   1  10   3   24.67    1.15
  -1 -11  -3    8.29    0.70
   1 -11   3    8.02    0.62
  -1  11   3    8.56    0.70
   1 -11  -3    8.33    0.80
   1  11   3    9.87    0.73
  -1  12   3   39.91    1.79
  -1 -12  -3   41.05    1.93
   1 -12   3   38.06    1.51
   1 -12  -3   41.93    2.07
   1  12   3   42.13    1.83
  -1  13   3    0.87    0.40
  -1 -13  -3    0.72    0.45
   1 -13  -3    1.46    0.49
   1  13   3    2.69    0.43
  -1  14   3    1.83    0.40
  -1 -14  -3    1.97    0.48
   1 -14  -3    1.28    0.53
   1  14   3    1.26    0.44
  -1  15   3    4.94    0.67
  -1 -15  -3    4.31    0.72
   1 -15  -3    5.15    0.80
   1  15   3    4.40    0.58
   2   0  -3  270.40    5.64
   2   0   3  277.81    6.71
   2   0  -3  266.99    5.92
   2   0   3  269.34    4.93
   2   1  -3    0.50    0.16
   2   1  -3    0.81    0.20
   2  -1   3    0.42    0.25
   2  -1   3    0.45    0.16
   2   1   3    1.03    0.27
   2  -1  -3    0.73    0.23
   2  -1  -3    0.80    0.19
   2   1   3    0.75    0.16
   2   2  -3   38.33    1.19
  -2  -2  -3   36.52    1.40
   2  -2   3   39.42    1.37
   2  -2   3   37.20    0.87
   2  -2  -3   35.39    1.20
   2  -2  -3   37.48    1.23
  -2  -2   3   35.71    1.03
   2   2   3   38.42    1.09
   2  -3   3    0.80    0.24
   2   3  -3    1.03    0.20
  -2  -3  -3    0.49    0.25
   2  -3   3    1.02    0.11
  -2  -3   3    0.53    0.15
   2  -3  -3    0.74    0.23
   2   3   3    1.00    0.19
   2  -3  -3    0.92    0.22
   2   4  -3   30.17    1.00
  -2  -4  -3   32.36    1.31
   2  -4   3   33.23    1.21
   2  -4  -3   31.83    1.21
   2  -4  -3   33.14    1.23
  -2  -4   3   32.01    0.93
   2   4   3   32.97    1.07
  -2  -5  -3    3.13    0.38
   2   5  -3    2.79    0.28
   2  -5   3    2.97    0.40
   2  -5  -3    2.71    0.39
   2  -5  -3    2.80    0.35
   2   5   3    2.46    0.33
  -2  -5   3    2.86    0.23
  -2   6   3  157.47    4.19
   2   6  -3  163.23    3.82
  -2  -6  -3  158.45    4.54
   2  -6   3  162.22    4.37
   2  -6  -3  165.96    4.64
  -2  -6   3  146.25    3.14
   2   6   3  174.52    4.33
  -2   7   3    7.23    0.59
   2   7  -3    7.28    0.46
  -2  -7  -3    7.86    0.65
   2  -7   3    7.72    0.54
   2   7   3    8.26    0.56
   2  -7  -3    8.28    0.67
  -2   8   3   24.54    1.08
  -2  -8  -3   24.45    1.18
   2  -8   3   25.74    1.16
   2  -8  -3   25.85    1.28
   2   8   3   27.13    1.17
  -2   9   3    1.30    0.30
   2   9  -3    0.40    0.22
   2  -9   3    0.94    0.28
  -2  -9  -3    0.97    0.32
   2  -9  -3    0.92    0.33
   2   9   3    0.79    0.31
  -2  10   3   12.64    0.83
  -2 -10  -3   13.96    0.92
   2 -10   3   13.16    0.75
   2 -10  -3   12.78    0.90
   2  10   3   13.80    0.85
  -2  11   3    1.01    0.33
  -2 -11  -3    1.67    0.42
   2 -11   3    1.33    0.35
   2  11   3    1.46    0.35
   2 -11  -3    1.05    0.44
  -2  12   3   72.88    2.75
  -2 -12  -3   75.48    3.04
   2 -12   3   73.45    2.65
   2 -12  -3   74.08    3.09
   2  12   3   75.97    2.84
  -2  13   3    7.28    0.66
  -2 -13  -3    6.91    0.80
   2 -13   3    6.80    0.60
   2 -13  -3    7.63    0.75
   2  13   3    6.95    0.67
  -2  14   3    4.30    0.62
  -2 -14  -3    4.31    0.67
   2 -14  -3    5.39    0.64
   2  14   3    4.33    0.64
  -2  15   3    1.86    0.53
  -2 -15  -3    2.66    0.52
   2 -15  -3    2.09    0.59
   2  15   3    2.90    0.51
   3   0  -3  190.49    4.71
   3   0   3  178.58    3.42
   3   0   3  186.10    5.05
   3   0  -3  180.35    3.91
   3   1  -3   34.33    1.26
   3  -1   3   32.54    0.82
   3  -1   3   33.94    1.39
   3  -1  -3   32.83    1.05
   3   1   3   34.10    0.99
   3   1   3   33.76    1.41
   3  -1  -3   32.55    1.26
   3   2  -3   37.34    1.30
   3  -2   3   38.52    1.47
   3  -2  -3   36.81    1.23
   3  -2  -3   38.75    1.40
   3   2   3   36.40    1.43
   3   2   3   39.83    1.16
   3   3  -3   79.47    2.31
  -3  -3  -3   77.50    2.43
   3  -3   3   79.05    2.52
   3  -3  -3   76.91    2.29
   3  -3  -3   80.34    2.28
  -3  -3   3   77.69    1.78
   3   3   3   81.14    2.05
   3   4  -3   22.92    0.91
  -3  -4  -3   22.14    1.07
   3  -4   3   20.91    1.04
   3  -4  -3   20.97    0.99
   3  -4  -3   22.06    0.98
  -3  -4   3   19.91    0.62
   3   4   3   22.40    0.85
  -3  -5  -3   42.04    1.67
   3  -5   3   40.96    1.60
   3  -5  -3   42.58    1.62
   3  -5  -3   42.76    1.60
   3   5   3   42.66    1.40
   3   6  -3  119.12    3.22
  -3  -6  -3  116.84    3.68
   3  -6   3  120.03    3.71
   3  -6  -3  124.91    3.64
   3  -6  -3  120.01    3.54
   3   6   3  124.21    3.34
   3   7  -3   15.39    0.73
  -3  -7  -3   16.13    0.87
   3  -7   3   14.72    0.82
   3  -7  -3   13.74    0.74
   3  -7  -3   14.47    0.83
   3   7   3   15.16    0.85
  -3   8   3   21.07    1.05
   3   8  -3   20.94    0.89
  -3  -8  -3   19.31    1.00
   3  -8   3   20.88    1.10
   3  -8  -3   21.02    1.05
   3   8   3   20.66    1.02
  -3   9   3   32.07    1.45
   3   9  -3   33.60    1.35
  -3  -9  -3   30.87    1.48
   3  -9   3   32.08    1.42
   3  -9  -3   33.98    1.55
   3   9   3   34.13    1.40
  -3  10   3    8.18    0.69
   3  10  -3    8.16    0.56
  -3 -10  -3    9.65    0.69
   3 -10   3    8.27    0.65
   3 -10  -3    9.44    0.72
   3  10   3    8.73    0.66
  -3  11   3   14.19    0.87
  -3 -11  -3   14.16    1.02
   3 -11   3   13.92    0.91
   3 -11  -3   15.53    1.11
   3  11   3   15.97    0.96
  -3  12   3   40.44    1.80
  -3 -12  -3   41.47    1.92
   3 -12   3   39.11    1.78
   3 -12  -3   42.88    2.14
   3  12   3   36.99    1.71
  -3  13   3    4.59    0.60
  -3 -13  -3    4.49    0.57
   3 -13   3    4.76    0.55
   3  13   3    3.96    0.57
   3 -13  -3    5.54    0.71
  -3  14   3    3.25    0.53
  -3 -14  -3    3.99    0.64
   3 -14   3    3.91    0.54
   3 -14  -3    5.41    0.71
   3  14   3    3.91    0.57
  -3  15   3    8.49    0.87
  -3 -15  -3    8.93    0.91
   3 -15  -3    9.51    1.01
   3  15   3    7.94    0.81
   4   0   3    0.28    0.12
   4   0   3    0.19    0.26
   4   0  -3    0.28    0.20
   4   1  -3   35.06    0.95
   4   1  -3   36.65    1.40
   4  -1   3   36.96    1.56
   4  -1  -3   37.78    1.47
   4   1   3   35.98    0.97
   4   1   3   39.00    1.57
   4  -1  -3   36.68    1.12
   4   2  -3    0.41    0.13
   4  -2   3    0.87    0.29
   4   2  -3    1.07    0.25
   4  -2  -3    0.28    0.27
   4  -2  -3    0.69    0.18
   4   2   3    0.17    0.14
   4   2   3    0.82    0.29
   4   3  -3  112.57    3.23
   4  -3   3  113.90    3.52
   4  -3  -3  114.35    3.07
   4   3   3  111.00    3.39
   4   3   3  100.92    2.48
   4  -3  -3  112.75    3.25
   4   4  -3    8.36    0.56
   4  -4   3    8.89    0.69
   4  -4  -3    8.65    0.62
   4  -4  -3    7.93    0.54
   4   4   3    7.39    0.44
   4   5  -3   38.37    1.43
  -4  -5  -3   39.60    1.63
   4  -5   3   42.35    1.70
   4  -5  -3   40.38    1.45
   4   5   3   39.94    1.27
   4  -5  -3   41.46    1.57
   4   6  -3    2.85    0.36
  -4  -6  -3    3.06    0.45
   4  -6   3    2.39    0.48
   4  -6  -3    3.34    0.43
   4  -6  -3    2.30    0.40
   4   6   3    3.26    0.32
   4   7  -3   16.56    0.90
  -4  -7  -3   17.32    1.01
   4  -7   3   18.30    0.97
   4  -7  -3   18.50    0.97
   4  -7  -3   17.51    0.92
   4   7   3   17.40    0.84
   4   8  -3    0.57    0.27
  -4  -8  -3    1.12    0.34
   4  -8   3    0.69    0.31
   4  -8  -3    1.19    0.33
   4  -8  -3    0.80    0.34
   4   8   3    0.96    0.26
  -4   9   3   51.84    2.01
   4   9  -3   53.05    1.97
  -4  -9  -3   49.23    2.04
   4  -9   3   50.95    2.17
   4  -9  -3   55.34    2.24
   4   9   3   49.69    1.81
  -4  10   3   15.09    0.94
   4  10  -3   14.32    0.83
  -4 -10  -3   15.36    1.02
   4 -10   3   15.30    1.04
   4 -10  -3   15.28    1.01
   4  10   3   15.15    0.90
  -4  11   3   16.71    1.11
   4  11  -3   19.36    1.00
  -4 -11  -3   19.39    1.18
   4 -11   3   18.51    1.12
   4 -11  -3   20.11    1.27
   4  11   3   17.99    1.03
  -4  12   3    3.95    0.62
  -4 -12  -3    4.80    0.66
   4 -12   3    5.51    0.61
   4 -12  -3    6.14    0.72
   4  12   3    5.02    0.65
  -4  13   3    7.03    0.75
  -4 -13  -3    7.68    0.77
   4 -13   3    7.22    0.73
   4 -13  -3    9.58    0.92
   4  13   3    7.96    0.82
  -4  14   3    0.05    0.23
  -4 -14  -3    0.03    0.25
   4 -14   3   -0.11    0.24
   4 -14  -3   -0.29    0.32
   4  14   3    0.63    0.28
   5   0  -3   25.76    1.13
   5   0   3   23.57    0.73
   5   0   3   26.21    1.28
   5   0  -3   25.55    0.83
   5   1  -3    6.68    0.33
   5   1  -3    6.98    0.54
   5  -1   3    7.12    0.63
   5  -1  -3    6.56    0.35
   5   1   3    7.43    0.39
   5   1   3    6.59    0.63
   5  -1  -3    9.05    0.62
   5   2  -3    2.96    0.43
   5  -2   3    3.16    0.47
   5  -2  -3    2.92    0.44
   5  -2  -3    3.38    0.29
   5   2   3    2.91    0.30
   5   2   3    3.27    0.46
   5   3  -3   13.39    0.80
   5  -3   3   12.81    0.87
   5  -3  -3   12.41    0.84
   5  -3  -3   13.59    0.65
   5   3   3   14.05    0.62
   5   3   3   11.90    0.84
   5   4  -3    0.12    0.20
   5  -4   3    1.03    0.28
   5  -4  -3    0.51    0.22
   5  -4  -3   -0.01    0.18
   5   4   3    0.24    0.17
   5   4   3    0.23    0.25
   5  -5   3    0.28    0.32
   5   5  -3   -0.05    0.23
   5  -5  -3    1.10    0.27
   5  -5  -3    0.66    0.22
   5   5   3    0.38    0.25
   5   5   3    0.63    0.20
   5   6  -3   17.57    0.99
   5  -6   3   16.97    1.00
   5  -6  -3   17.13    0.98
   5  -6  -3   16.58    0.88
   5   6   3   18.81    0.86
   5   7  -3   14.56    0.83
  -5  -7  -3   14.20    0.92
   5  -7   3   13.95    0.91
   5  -7  -3   13.60    0.88
   5  -7  -3   13.94    0.82
   5   7   3   14.40    0.81
   5   8  -3    4.63    0.47
  -5  -8  -3    3.77    0.52
   5  -8   3    3.95    0.53
   5  -8  -3    3.76    0.53
   5  -8  -3    3.33    0.47
   5   8   3    3.57    0.50
   5   9  -3   19.13    1.07
  -5  -9  -3   18.00    1.15
   5  -9   3   21.06    1.21
   5  -9  -3   19.78    1.15
   5   9   3   20.93    1.07
   5  -9  -3   20.97    1.15
  -5  10   3    0.96    0.31
   5  10  -3    0.37    0.27
  -5 -10  -3    0.93    0.33
   5 -10   3    0.52    0.32
   5 -10  -3    0.16    0.35
   5  10   3    0.30    0.33
  -5  11   3    1.01    0.39
   5  11  -3    1.38    0.34
  -5 -11  -3    1.01    0.36
   5 -11   3    2.03    0.45
   5 -11  -3    1.02    0.45
   5  11   3    1.36    0.38
  -5  12   3    6.82    0.72
   5  12  -3    6.49    0.64
  -5 -12  -3    6.89    0.68
   5 -12   3    6.49    0.84
   5 -12  -3    7.09    0.83
   5  12   3    6.51    0.77
  -5  13   3   12.32    0.98
  -5 -13  -3   11.13    0.92
   5 -13   3   11.46    1.02
   5 -13  -3   13.22    1.13
   5  13   3   13.64    1.09
   6   0  -3   17.31    0.93
   6   0   3   16.75    1.02
   6   1  -3    1.40    0.33
   6  -1   3    1.90    0.40
   6  -1  -3    1.93    0.34
   6  -1  -3    1.52    0.23
   6   1   3    1.26    0.22
   6   1   3    1.63    0.40
   6   2  -3    1.44    0.33
   6  -2   3    1.38    0.39
   6  -2  -3    1.54    0.26
   6   2   3    1.24    0.21
   6   2   3    1.53    0.40
   6  -2  -3    1.13    0.33
   6   3  -3    0.25    0.28
   6  -3   3    0.15    0.28
   6  -3  -3    0.38    0.30
   6  -3  -3    0.54    0.18
   6   3   3    0.49    0.17
   6   3   3    0.88    0.31
   6   4  -3    5.50    0.60
   6  -4   3    6.87    0.71
   6  -4  -3    7.09    0.63
   6  -4  -3    6.20    0.47
   6   4   3    6.17    0.44
   6   4   3    6.28    0.60
   6   5  -3    1.04    0.30
   6  -5   3    1.35    0.38
   6  -5  -3    0.85    0.33
   6  -5  -3    0.31    0.24
   6   5   3    0.32    0.23
   6   5   3    1.15    0.33
   6   6  -3   27.84    1.43
   6  -6   3   26.24    1.36
   6  -6  -3   21.09    1.17
   6  -6  -3   25.30    1.29
   6   6   3   28.25    1.16
   6   6   3   26.84    1.35
   6   7  -3    0.07    0.33
   6  -7   3    0.44    0.35
   6  -7  -3    0.33    0.29
   6  -7  -3    0.31    0.29
   6   7   3    0.42    0.27
   6   7   3    0.91    0.28
   6   8  -3    0.34    0.24
   6  -8   3   -0.10    0.31
   6  -8  -3    0.31    0.23
   6  -8  -3    0.10    0.26
   6   8   3   -0.02    0.27
   6   8   3    0.16    0.23
   6   9  -3    0.27    0.33
  -6  -9  -3    0.47    0.26
   6  -9   3    0.18    0.31
   6  -9  -3    0.51    0.28
   6  -9  -3    0.36    0.28
   6   9   3    0.58    0.28
   6  10  -3   10.42    0.84
  -6 -10  -3   10.39    0.82
   6 -10   3   10.66    1.02
   6 -10  -3   11.31    0.89
   6 -10  -3   11.44    0.93
   6  10   3   12.04    0.90
  -6  11   3    0.33    0.30
   6  11  -3    0.28    0.30
  -6 -11  -3    0.41    0.30
   6 -11   3    0.63    0.37
   6 -11  -3    1.22    0.38
   6  11   3    0.27    0.36
  -6  12   3   23.04    1.38
   6  12  -3   24.62    1.39
  -6 -12  -3   24.57    1.47
   6 -12   3   25.72    1.71
   6 -12  -3   25.16    1.63
   6  12   3   24.08    1.44
   7   0  -3   30.23    1.53
   7   0   3   30.57    1.59
   7   1  -3   11.43    0.89
   7  -1   3   10.70    0.89
   7  -1  -3   10.23    0.86
   7   1   3   10.59    0.88
   7   2  -3    7.89    0.67
   7  -2   3    8.09    0.79
   7  -2  -3    7.00    0.71
   7   2   3    6.53    0.43
   7   2   3    8.18    0.77
   7  -3   3   17.34    1.12
   7   3  -3   17.20    1.10
   7  -3  -3   17.24    1.12
   7  -3  -3   18.19    0.88
   7   3   3   17.16    0.81
   7   3   3   17.67    1.09
   7   4  -3    7.50    0.73
   7  -4   3    7.29    0.83
   7  -4  -3    7.79    0.76
   7  -4  -3    7.76    0.54
   7   4   3    7.66    0.53
   7   4   3    8.04    0.77
   7   5  -3    1.94    0.47
   7  -5   3    1.63    0.51
   7  -5  -3    1.58    0.32
   7  -5  -3    1.47    0.43
   7   5   3    1.72    0.33
   7   5   3    2.23    0.43
   7   6  -3   16.68    1.09
   7  -6   3   16.67    1.13
   7  -6  -3   16.78    1.01
   7  -6  -3   16.94    1.10
   7   6   3   17.05    0.94
   7   6   3   16.80    1.19
   7   7  -3   25.41    1.40
   7  -7   3   21.95    1.52
   7  -7  -3   21.76    1.19
   7  -7  -3   24.61    1.35
   7   7   3   23.89    1.22
   7   7   3   23.13    1.34
   7   8  -3    8.11    0.79
   7  -8   3    7.99    0.90
   7  -8  -3    6.62    0.73
   7   8   3    6.75    0.71
   7   8   3    8.84    0.78
   7  -8  -3    6.94    0.79
   7   9  -3   22.04    1.45
   7  -9   3   19.65    1.38
   7  -9  -3   21.01    1.33
   7  -9  -3   20.48    1.23
   7   9   3   19.41    1.29
   7   9   3   21.55    1.23
   7  10  -3    3.86    0.57
   7 -10   3    3.50    0.69
   7 -10  -3    2.81    0.61
   7 -10  -3    3.63    0.62
   7  10   3    3.22    0.53
   7  10   3    4.31    0.57
   7  11  -3    1.61    0.51
   7 -11   3    1.44    0.58
   7 -11  -3    1.61    0.40
   7 -11  -3    1.77    0.53
   7  11   3    1.66    0.49
   7  11   3    1.46    0.48
   8   0   3    5.63    0.66
   8   0  -3    6.03    0.72
   8   1  -3   23.59    1.39
   8  -1   3   24.54    1.50
   8  -1  -3   25.02    1.44
   8   1   3   22.86    1.46
   8   2  -3    4.91    0.72
   8  -2   3    4.91    0.73
   8  -2  -3    4.84    0.73
   8   2   3    5.00    0.73
   8   3  -3   81.76    3.33
   8  -3   3   85.29    3.69
   8  -3  -3   85.83    3.40
   8   3   3   87.21    3.40
   8   4  -3    0.61    0.41
   8  -4   3    0.65    0.46
   8  -4  -3    1.28    0.38
   8   4   3    0.70    0.27
   8   4   3    0.42    0.44
   8   5  -3   24.88    1.55
   8  -5   3   24.12    1.50
   8  -5  -3   24.98    1.18
   8  -5  -3   24.29    1.37
   8   5   3   24.83    1.19
   8   5   3   26.51    1.60
   8   6  -3    2.63    0.58
   8  -6   3    2.50    0.55
   8  -6  -3    2.04    0.40
   8   6   3    2.14    0.42
   8   6   3    2.61    0.56
   8  -6  -3    2.51    0.48
   8   7  -3   21.64    1.50
   8  -7   3   20.72    1.53
   8  -7  -3   19.29    1.22
   8  -7  -3   20.20    1.15
   8   7   3   22.25    1.29
   8   7   3   20.12    1.44
   8   8  -3    3.20    0.69
   8  -8   3    3.46    0.75
   8  -8  -3    3.65    0.55
   8  -8  -3    2.41    0.51
   8   8   3    4.45    0.62
   8   8   3    3.60    0.68
   8   9  -3   50.97    2.53
   8  -9   3   48.22    2.75
   8  -9  -3   46.06    2.29
   8  -9  -3   50.98    2.46
   8   9   3   49.26    2.29
   8   9   3   51.54    2.49
   8  10  -3    0.00    0.40
   8 -10   3    1.57    0.46
   8 -10  -3    0.71    0.34
   8 -10  -3   -0.50    0.39
   8  10   3    0.30    0.40
   8  10   3    0.30    0.37
   9   0  -3   18.64    1.40
   9   0   3   21.75    1.52
   9   1  -3   19.03    1.34
   9  -1   3   17.33    1.37
   9  -1  -3   16.19    1.27
   9   1   3   17.50    1.27
   9   2  -3    5.15    0.78
   9  -2   3    4.45    0.75
   9  -2  -3    5.28    0.77
   9   2   3    4.72    0.78
   9   3  -3   65.93    2.93
   9  -3   3   64.58    3.20
   9  -3  -3   68.43    3.17
   9   3   3   64.70    3.07
   9   4  -3    1.96    0.53
   9  -4   3    0.52    0.56
   9  -4  -3    1.31    0.52
   9   4   3    1.64    0.48
   9   5  -3   13.31    1.23
   9  -5   3   14.08    1.29
   9  -5  -3   14.51    1.11
   9   5   3   12.68    1.09
   9   6  -3   12.57    1.19
   9  -6   3   11.03    1.22
   9  -6  -3   11.79    0.97
   9   6   3   13.07    1.07
   9   7  -3    6.92    0.85
   9  -7   3    6.74    0.97
   9  -7  -3    6.54    0.76
   9   7   3    6.33    0.81
   9   8  -3    5.28    0.84
   9  -8   3    4.40    0.78
   9  -8  -3    4.21    0.71
   9   8   3    4.70    0.82
  10   0  -3   26.77    1.69
  10   0   3   28.28    1.77
  10   1  -3    0.35    0.44
  10  -1   3    0.97    0.46
  10  -1  -3    0.51    0.42
  10   1   3   -0.03    0.45
  10   2  -3    9.08    1.06
  10  -2   3    9.17    0.97
  10  -2  -3    8.07    1.02
  10   2   3   10.80    1.08
  10   3  -3    3.06    0.65
  10  -3   3    2.36    0.67
  10  -3  -3    2.06    0.54
  10   3   3    2.01    0.64
  10   4  -3    2.14    0.58
  10  -4   3    2.89    0.72
  10  -4  -3    2.15    0.67
  10   4   3    3.50    0.59
  10   5  -3    0.42    0.44
  10  -5   3    0.42    0.40
  10  -5  -3    0.21    0.43
   0   0   4  185.63    5.53
   0   0   4  177.89    4.47
   0  -1   4    1.49    0.31
   0   1   4    0.62    0.23
   0   1   4    0.93    0.33
   0  -1   4    0.03    0.20
   0  -2  -4   30.90    1.34
   0   2   4   29.93    1.15
   0  -2   4   26.18    0.96
   0  -2   4   29.94    1.28
   0   3   4    0.36    0.24
   0  -3   4    0.92    0.27
   0  -3  -4    0.98    0.29
   0  -4  -4   20.74    1.08
   0   4   4   19.49    0.97
   0  -4   4   18.34    0.95
   0  -5  -4    0.54    0.36
   0   5   4    0.09    0.31
   0  -5   4    0.93    0.25
   0  -6  -4  108.45    3.87
   0   6   4  109.10    3.49
   0  -6   4   98.77    3.31
   0   7   4    0.17    0.27
   0  -7  -4    0.58    0.33
   0  -8  -4   22.65    1.35
   0   8   4   23.22    1.19
   0  -9  -4    0.50    0.31
   0   9   4   -0.08    0.28
   0 -10  -4    6.70    0.79
   0  10   4    6.60    0.74
   0 -11  -4    0.26    0.38
   0  11   4    0.24    0.35
  -1   0   4   52.19    1.90
   1   0   4   54.27    2.09
   1   0   4   50.12    1.52
   1   0  -4   50.34    1.73
   1  -1   4   10.19    0.72
   1   1  -4    8.86    0.55
   1  -1  -4   10.84    0.73
  -1  -1   4   10.93    0.66
   1   1   4   10.11    0.79
   1   1   4    8.81    0.52
  -1   2   4    8.68    0.57
   1   2  -4    8.11    0.51
   1  -2   4    9.89    0.69
   1  -2  -4    9.46    0.65
  -1  -2   4    8.86    0.59
   1   2   4    9.84    0.77
   1   2   4    8.78    0.54
  -1  -3  -4   34.78    1.57
  -1   3   4   33.41    1.36
   1   3  -4   32.71    1.18
   1  -3   4   37.79    1.62
   1  -3  -4   37.20    1.53
  -1  -3   4   35.46    1.36
   1   3   4   35.62    1.35
  -1   4   4   13.14    0.78
  -1  -4  -4   14.28    0.96
   1  -4   4   13.53    0.82
  -1  -4   4   12.28    0.69
   1   4   4   12.90    0.73
   1  -4  -4   13.87    0.85
  -1   5   4   21.00    1.06
  -1  -5  -4   21.89    1.19
   1  -5   4   21.59    1.13
   1  -5  -4   20.83    1.23
   1   5   4   20.30    1.07
  -1   6   4   50.22    1.92
  -1  -6  -4   49.39    2.21
   1  -6   4   48.05    1.96
   1   6   4   50.51    1.88
   1  -6  -4   47.73    2.04
  -1  -7  -4    1.61    0.48
  -1   7   4    2.23    0.38
   1  -7   4    2.35    0.38
   1  -7  -4    1.25    0.48
   1   7   4    1.99    0.43
  -1   8   4    3.54    0.47
  -1  -8  -4    3.11    0.51
   1   8   4    3.44    0.46
   1  -8  -4    3.17    0.58
  -1   9   4   11.20    0.83
  -1  -9  -4   10.11    0.94
   1  -9  -4   11.79    1.01
   1   9   4   11.70    0.89
  -1  10   4   11.68    0.90
  -1 -10  -4   12.81    1.07
   1 -10  -4   13.29    1.00
   1  10   4   11.99    0.88
  -1  11   4    9.51    0.82
  -1 -11  -4    8.79    0.97
   1 -11  -4    9.99    0.92
   1  11   4    9.36    0.90
   2   0   4    0.80    0.27
   2   0  -4    0.22    0.21
   2   1  -4   10.64    0.62
   2  -1   4   12.11    0.83
   2  -1  -4   11.47    0.65
  -2  -1   4   10.30    0.61
   2   1   4   10.41    0.56
   2   1   4   11.37    0.83
   2  -1  -4    9.71    0.64
   2  -2   4    0.35    0.32
   2   2  -4    0.75    0.20
   2  -2  -4    0.11    0.23
   2  -2  -4    0.70    0.23
  -2  -2   4    0.53    0.19
   2   2   4    1.10    0.31
   2   2   4   -0.01    0.18
   2   3  -4   18.75    0.82
   2  -3   4   19.38    1.11
   2  -3  -4   15.11    0.85
   2  -3  -4   20.64    0.98
  -2  -3   4   18.04    0.84
   2   3   4   19.73    1.16
   2   3   4   19.29    0.83
  -2   4   4    2.36    0.37
   2   4  -4    2.13    0.35
  -2  -4  -4    2.54    0.47
   2  -4   4    2.11    0.41
   2  -4  -4    2.65    0.39
   2   4   4    2.59    0.34
  -2   5   4    4.97    0.51
  -2  -5  -4    6.63    0.64
   2  -5   4    5.02    0.56
   2   5   4    5.43    0.49
   2  -5  -4    5.74    0.58
  -2   6   4    0.03    0.29
  -2  -6  -4    0.59    0.33
   2  -6   4   -0.26    0.28
   2  -6  -4    0.80    0.28
   2   6   4    0.89    0.25
  -2   7   4   10.07    0.80
  -2  -7  -4   11.32    0.89
   2  -7   4    9.42    0.74
   2   7   4    9.65    0.69
   2  -7  -4   10.00    0.86
  -2   8   4    1.66    0.36
  -2  -8  -4    0.88    0.45
   2  -8   4    1.46    0.35
   2  -8  -4    1.31    0.44
   2   8   4    1.49    0.40
  -2   9   4   17.62    1.06
  -2  -9  -4   16.83    1.15
   2   9   4   18.55    1.14
   2  -9  -4   17.69    1.28
  -2  10   4    6.78    0.75
  -2 -10  -4    6.35    0.78
   2 -10  -4    6.20    0.83
   2  10   4    6.02    0.65
  -2  11   4    5.35    0.73
  -2 -11  -4    5.87    0.76
   2 -11  -4    6.59    0.81
   2  11   4    4.97    0.70
   3   0  -4    7.41    0.56
   3   0   4    7.84    0.68
   3   0  -4    7.62    0.50
   3   1  -4    1.57    0.36
   3  -1   4    2.29    0.46
   3  -1  -4    2.30    0.34
   3  -1  -4    1.95    0.30
  -3  -1   4    1.75    0.26
   3   1   4    1.74    0.45
   3   2  -4    0.65    0.24
   3  -2   4    1.28    0.30
   3  -2  -4    0.28    0.29
   3  -2  -4    0.91    0.23
   3   2   4    0.15    0.20
   3   2   4    0.60    0.34
   3   3  -4    2.43    0.34
   3  -3   4    2.37    0.43
   3  -3  -4    3.07    0.39
   3  -3  -4    2.66    0.35
   3   3   4    2.57    0.44
   3   3   4    1.90    0.29
   3   4  -4    2.05    0.33
   3  -4   4    1.24    0.46
   3  -4  -4    2.45    0.42
   3  -4  -4    2.58    0.36
   3   4   4    2.38    0.47
   3   4   4    1.90    0.30
   3   5  -4    0.50    0.24
   3  -5   4    0.70    0.31
   3  -5  -4    0.63    0.31
   3   5   4    0.62    0.25
  -3   6   4   11.59    0.86
  -3  -6  -4   11.42    0.95
   3  -6   4   12.36    0.88
   3  -6  -4   12.14    0.92
   3   6   4   11.50    0.76
  -3  -7  -4    4.60    0.58
   3  -7   4    4.31    0.57
  -3   7   4    4.46    0.57
   3   7   4    4.00    0.49
   3  -7  -4    4.77    0.63
  -3  -8  -4   -0.08    0.26
   3  -8   4    0.21    0.23
  -3   8   4   -0.04    0.21
   3   8   4   -0.01    0.20
   3  -8  -4    0.17    0.23
  -3  -9  -4    6.21    0.75
   3  -9   4    4.67    0.70
  -3   9   4    6.09    0.71
   3   9   4    5.90    0.62
   3  -9  -4    6.38    0.74
  -3 -10  -4    3.76    0.63
  -3  10   4    3.12    0.59
   3  10   4    3.23    0.54
   3 -10  -4    3.55    0.65
   4   0   4   37.14    1.81
   4   0  -4   35.36    1.58
   4  -1   4    0.87    0.31
   4   1  -4    0.18    0.30
   4   1   4    0.57    0.30
   4  -1  -4    0.83    0.30
   4  -1  -4    0.22    0.21
   4  -2   4    4.91    0.66
   4   2  -4    5.33    0.55
   4   2   4    5.10    0.61
   4  -2  -4    5.19    0.44
   4  -2  -4    5.94    0.53
   4  -3   4   -0.04    0.22
   4   3  -4    0.11    0.18
   4   3   4   -0.24    0.24
   4  -3  -4   -0.10    0.21
   4  -3  -4    0.02    0.16
   4  -4   4    9.28    0.91
   4   4  -4    9.71    0.69
   4   4   4    8.99    0.56
   4   4   4    8.90    0.86
   4  -4  -4    9.63    0.72
   4  -4  -4    8.50    0.64
   4  -5   4    1.15    0.44
   4   5  -4    0.85    0.36
   4   5   4    1.49    0.44
   4   5   4    0.96    0.27
   4  -5  -4    1.48    0.40
   4  -5  -4    0.79    0.33
   4  -6   4   33.47    1.78
   4   6  -4   32.24    1.53
   4   6   4   33.05    1.83
   4   6   4   33.45    1.39
   4  -6  -4   36.43    1.77
   4  -6  -4   34.10    1.63
  -4  -7  -4    3.30    0.51
   4  -7   4    3.64    0.57
  -4   7   4    4.21    0.56
   4   7   4    3.65    0.50
   4  -7  -4    3.16    0.52
  -4  -8  -4    2.31    0.48
   4  -8   4    2.60    0.52
  -4   8   4    2.11    0.50
   4   8   4    2.82    0.41
   4  -8  -4    2.70    0.55
  -4  -9  -4    0.78    0.42
   4  -9   4    0.47    0.39
  -4   9   4    0.36    0.36
   4   9   4    1.58    0.37
   4  -9  -4    0.86    0.43
   5   0   4   60.54    2.75
   5   0  -4   62.56    2.48
   5  -1   4   11.88    0.96
   5   1  -4   10.82    0.97
   5   1   4   12.07    0.99
   5  -1  -4   11.94    0.94
   5  -2   4   15.87    1.09
   5   2  -4   14.66    1.00
   5   2   4   15.99    1.18
   5  -2  -4   14.24    0.94
   5  -3   4   24.72    1.53
   5   3  -4   23.68    1.31
   5   3   4   23.73    1.52
   5  -3  -4   24.08    1.41
   5  -4   4    7.32    0.90
   5   4  -4    7.78    0.70
   5   4   4    6.97    0.86
   5  -4  -4    8.44    0.81
   5  -4  -4    7.12    0.62
   5  -5   4    5.22    0.79
   5   5  -4    4.76    0.59
   5   5   4    5.23    0.75
   5  -5  -4    6.47    0.73
   5  -5  -4    5.26    0.59
   5  -6   4   36.50    2.05
   5   6  -4   32.74    1.63
   5   6   4   35.71    1.57
   5   6   4   32.87    1.90
   5  -6  -4   34.85    1.88
   5  -6  -4   35.00    1.76
   5  -7   4   13.30    1.18
   5   7   4   13.08    1.17
   5   7   4   13.82    0.92
   5  -7  -4   13.87    1.12
   5  -7  -4   14.53    1.02
   5  -8   4   11.94    1.07
   5   8   4   11.67    1.10
   5   8   4   11.77    0.90
   5  -8  -4   12.04    1.06
   6   0   4    3.42    0.57
   6   0  -4    2.41    0.61
   6  -1   4   20.37    1.46
   6   1  -4   19.53    1.38
   6   1   4   20.88    1.44
   6  -1  -4   20.33    1.25
   6  -2   4    2.29    0.62
   6   2  -4    1.95    0.52
   6   2   4    2.54    0.64
   6  -2  -4    2.62    0.57
   6  -3   4   73.18    3.48
   6   3  -4   71.66    3.01
   6   3   4   71.50    3.30
   6  -3  -4   70.56    2.93
   6  -4   4    2.33    0.56
   6   4  -4    1.04    0.46
   6   4   4    2.02    0.51
   6  -4  -4    1.96    0.53
   6  -5   4   27.36    1.82
   6   5  -4   24.68    1.44
   6   5   4   24.42    1.63
   6  -5  -4   26.03    1.62
   6  -6   4    3.45    0.73
   6   6  -4    3.02    0.53
   6   6   4    3.52    0.58
   6  -6  -4    3.08    0.64
   6  -7   4    9.24    0.95
   6   7   4    8.71    0.91
   6  -7  -4    9.69    0.97
   7   0   4   13.36    1.13
   7   0  -4   14.23    1.11
   7  -1   4    7.40    0.95
   7   1  -4    6.39    0.87
   7   1   4    6.07    0.86
   7  -1  -4    6.93    0.80
   7  -2   4    2.71    0.79
   7   2  -4    4.21    0.71
   7   2   4    4.49    0.65
   7  -2  -4    4.08    0.69
   7  -3   4   23.26    1.78
   7   3  -4   25.07    1.65
   7   3   4   25.49    1.70
   7  -3  -4   23.75    1.50
   7  -4   4   -0.05    0.39
   7   4  -4   -0.07    0.33
   7   4   4    0.22    0.35
   7  -4  -4    0.34    0.32
   7  -5   4    3.04    0.71
   7   5  -4    2.12    0.59
   7   5   4    2.56    0.61
   7  -5  -4    2.47    0.58
   0   0   0    0.00    0.00
;
_shelx_hkl_checksum              44890
loop_
_space_group_symop_operation_xyz
'x, y, z'
'x, -y+1/2, -z+1/2'
'-x, -y, z+1/2'
'-x, y+1/2, -z'
'-x, -y, -z'
'-x, y-1/2, z-1/2'
'x, y, -z-1/2'
'x, -y-1/2, z'
loop_
_atom_site_label
_atom_site_type_symbol
_atom_site_fract_x
_atom_site_fract_y
_atom_site_fract_z
_atom_site_U_iso_or_equiv
_atom_site_adp_type
_atom_site_occupancy
_atom_site_site_symmetry_order
_atom_site_calc_flag
_atom_site_refinement_flags_posn
_atom_site_refinement_flags_adp
_atom_site_refinement_flags_occupancy
Cd1 Cd 0.87767(2) 0.58391(2) 0.2500 0.02286(11) Uani 1 2 d S T P
Cl3 Cl 0.93920(8) 0.41060(5) 0.2500 0.02234(18) Uani 1 2 d S T P
Cl2 Cl 0.71088(8) 0.55800(6) -0.2500 0.0271(2) Uani 1 2 d S T P
Cl1 Cl 0.85386(17) 0.7500 0.2500 0.0462(4) Uani 1 4 d S T P
C1 C 0.4537(6) 0.6718(4) 0.2500 0.081(2) Uani 1 2 d S T P
H1 H 0.4982 0.6187 0.2500 0.097 Uiso 1 2 calc R U P
N1 N 0.5215(8) 0.7500 0.2500 0.119(4) Uani 1 4 d S T P
H1A H 0.6053 0.7500 0.2500 0.143 Uiso 1 4 calc R U P
C2 C 0.3235(5) 0.6733(3) 0.2500 0.0449(11) Uani 1 2 d S T P
H2 H 0.2767 0.6211 0.2500 0.054 Uiso 1 2 calc R U P
C3 C 0.2606(7) 0.7500 0.2500 0.0545(18) Uani 1 4 d S T P
H3 H 0.1700 0.7500 0.2500 0.065 Uiso 1 4 calc R U P
loop_
_atom_site_aniso_label
_atom_site_aniso_U_11
_atom_site_aniso_U_22
_atom_site_aniso_U_33
_atom_site_aniso_U_23
_atom_site_aniso_U_13
_atom_site_aniso_U_12
Cd1 0.02482(17) 0.02170(16) 0.02207(16) 0.000 0.000 0.00260(9)
Cl3 0.0217(4) 0.0216(4) 0.0238(4) 0.000 0.000 -0.0003(3)
Cl2 0.0219(4) 0.0339(4) 0.0254(4) 0.000 0.000 -0.0002(3)
Cl1 0.0658(10) 0.0173(6) 0.0556(10) 0.000 0.000 0.000
C1 0.065(4) 0.075(4) 0.103(5) 0.000 0.000 0.033(3)
N1 0.039(4) 0.171(11) 0.147(10) 0.000 0.000 0.000
C2 0.045(2) 0.040(2) 0.049(3) 0.000 0.000 0.002(2)
C3 0.031(3) 0.057(4) 0.076(5) 0.000 0.000 0.000
loop_
_atom_type_symbol
_atom_type_description
_atom_type_scat_dispersion_real
_atom_type_scat_dispersion_imag
_atom_type_scat_source
C C 0.0033 0.0016 'International Tables Vol C Tables 4.2.6.8 and 6.1.1.4'
H H 0.0000 0.0000 'International Tables Vol C Tables 4.2.6.8 and 6.1.1.4'
N N 0.0061 0.0033 'International Tables Vol C Tables 4.2.6.8 and 6.1.1.4'
Cl Cl 0.1484 0.1585 'International Tables Vol C Tables 4.2.6.8 and 6.1.1.4'
Cd Cd -0.8075 1.2024 'International Tables Vol C Tables 4.2.6.8 and 6.1.1.4'
loop_
_geom_angle_atom_site_label_1
_geom_angle_atom_site_label_2
_geom_angle_atom_site_label_3
_geom_angle
_geom_angle_site_symmetry_1
_geom_angle_site_symmetry_3
Cl1 Cd1 Cl2 95.08(3) . 1_556
Cl1 Cd1 Cl2 95.08(3) . .
Cl2 Cd1 Cl2 94.54(3) 1_556 .
Cl1 Cd1 Cl3 92.08(3) . 5_766
Cl2 Cd1 Cl3 86.96(3) 1_556 5_766
Cl2 Cd1 Cl3 172.52(3) . 5_766
Cl1 Cd1 Cl3 92.08(3) . 5_765
Cl2 Cd1 Cl3 172.52(3) 1_556 5_765
Cl2 Cd1 Cl3 86.96(3) . 5_765
Cl3 Cd1 Cl3 90.62(3) 5_766 5_765
Cl1 Cd1 Cl3 172.08(4) . .
Cl2 Cd1 Cl3 90.28(2) 1_556 .
Cl2 Cd1 Cl3 90.28(2) . .
Cl3 Cd1 Cl3 82.38(2) 5_766 .
Cl3 Cd1 Cl3 82.38(2) 5_765 .
Cd1 Cl3 Cd1 90.62(3) 5_766 5_765
Cd1 Cl3 Cd1 97.63(2) 5_766 .
Cd1 Cl3 Cd1 97.63(2) 5_765 .
Cd1 Cl2 Cd1 94.54(3) 1_554 .
Cd1 Cl1 Cd1 168.99(8) 2_565 .
C2 C1 N1 119.2(6) . .
C2 C1 H1 120.4 . .
N1 C1 H1 120.4 . .
C1 N1 C1 119.5(7) 2_565 .
C1 N1 H1A 120.2 2_565 .
C1 N1 H1A 120.2 . .
C1 C2 C3 119.8(5) . .
C1 C2 H2 120.1 . .
C3 C2 H2 120.1 . .
C2 C3 C2 122.3(7) 2_565 .
C2 C3 H3 118.9 2_565 .
C2 C3 H3 118.9 . .
loop_
_geom_bond_atom_site_label_1
_geom_bond_atom_site_label_2
_geom_bond_distance
_geom_bond_site_symmetry_2
Cd1 Cl1 2.5466(6) .
Cd1 Cl2 2.5889(7) 1_556
Cd1 Cl2 2.5889(7) .
Cd1 Cl3 2.6749(7) 5_766
Cd1 Cl3 2.6749(7) 5_765
Cd1 Cl3 2.7195(10) .
Cl3 Cd1 2.6749(7) 5_766
Cl3 Cd1 2.6749(7) 5_765
Cl2 Cd1 2.5889(7) 1_554
Cl1 Cd1 2.5466(6) 2_565
C1 C2 1.337(8) .
C1 N1 1.381(7) .
C1 H1 0.9300 .
N1 C1 1.381(7) 2_565
N1 H1A 0.8600 .
C2 C3 1.337(5) .
C2 H2 0.9300 .
C3 C2 1.337(5) 2_565
C3 H3 0.9300 .
loop_
_geom_hbond_atom_site_label_D
_geom_hbond_atom_site_label_H
_geom_hbond_atom_site_label_A
_geom_hbond_distance_DH
_geom_hbond_distance_HA
_geom_hbond_distance_DA
_geom_hbond_angle_DHA
_geom_hbond_site_symmetry_A
C2 H2 Cl2 0.93 2.74 3.548(5) 146.3 5_665
C2 H2 Cl3 0.93 2.96 3.539(4) 121.8 5_665
N1 H1A Cl1 0.86 2.55 3.411(8) 180.0 .
C2 H2 Cl2 0.93 2.74 3.548(5) 146.3 5_665
C2 H2 Cl3 0.93 2.96 3.539(4) 121.8 5_665
N1 H1A Cl1 0.86 2.55 3.411(8) 180.0 .
C2 H2 Cl2 0.93 2.74 3.548(5) 146.3 5_665
C2 H2 Cl3 0.93 2.96 3.539(4) 121.8 5_665
N1 H1A Cl1 0.86 2.55 3.411(8) 180.0 .
C2 H2 Cl2 0.93 2.74 3.548(5) 146.3 5_665
C2 H2 Cl3 0.93 2.96 3.539(4) 121.8 5_665
N1 H1A Cl1 0.86 2.55 3.411(8) 180.0 .
C2 H2 Cl2 0.93 2.74 3.548(5) 146.3 5_665
C2 H2 Cl3 0.93 2.96 3.539(4) 121.8 5_665
N1 H1A Cl1 0.86 2.55 3.411(8) 180.0 .
C2 H2 Cl2 0.93 2.74 3.548(5) 146.3 5_665
C2 H2 Cl3 0.93 2.96 3.539(4) 121.8 5_665
N1 H1A Cl1 0.86 2.55 3.411(8) 180.0 .
C2 H2 Cl2 0.93 2.74 3.548(5) 146.3 5_665
C2 H2 Cl3 0.93 2.96 3.539(4) 121.8 5_665
N1 H1A Cl1 0.86 2.55 3.411(8) 180.0 .
C2 H2 Cl2 0.93 2.74 3.548(5) 146.3 5_665
C2 H2 Cl3 0.93 2.96 3.539(4) 121.8 5_665
N1 H1A Cl1 0.86 2.55 3.411(8) 180.0 .
C2 H2 Cl2 0.93 2.74 3.548(5) 146.3 5_665
C2 H2 Cl3 0.93 2.96 3.539(4) 121.8 5_665
N1 H1A Cl1 0.86 2.55 3.411(8) 180.0 .
C2 H2 Cl2 0.93 2.74 3.548(5) 146.3 5_665
C2 H2 Cl3 0.93 2.96 3.539(4) 121.8 5_665
N1 H1A Cl1 0.86 2.55 3.411(8) 180.0 .
N1 H1A Cl1 0.86 2.55 3.411(8) 180.0 .
C2 H2 Cl3 0.93 2.96 3.539(4) 121.8 5_665
C2 H2 Cl2 0.93 2.74 3.548(5) 146.3 5_665
N1 H1A Cl1 0.86 2.55 3.411(8) 180.0 .
C2 H2 Cl3 0.93 2.96 3.539(4) 121.8 5_665
C2 H2 Cl2 0.93 2.74 3.548(5) 146.3 5_665
N1 H1A Cl1 0.86 2.55 3.411(8) 180.0 .
C2 H2 Cl3 0.93 2.96 3.539(4) 121.8 5_665
C2 H2 Cl2 0.93 2.74 3.548(5) 146.3 5_665
N1 H1A Cl1 0.86 2.55 3.411(8) 180.0 .
C2 H2 Cl3 0.93 2.96 3.539(4) 121.8 5_665
C2 H2 Cl2 0.93 2.74 3.548(5) 146.3 5_665
N1 H1A Cl1 0.86 2.55 3.411(8) 180.0 .
C2 H2 Cl3 0.93 2.96 3.539(4) 121.8 5_665
C2 H2 Cl2 0.93 2.74 3.548(5) 146.3 5_665
N1 H1A Cl1 0.86 2.55 3.411(8) 180.0 .
C2 H2 Cl3 0.93 2.96 3.539(4) 121.8 5_665
C2 H2 Cl2 0.93 2.74 3.548(5) 146.3 5_665
N1 H1A Cl1 0.86 2.55 3.411(8) 180.0 .
C2 H2 Cl3 0.93 2.96 3.539(4) 121.8 5_665
C2 H2 Cl2 0.93 2.74 3.548(5) 146.3 5_665
loop_
_geom_torsion_atom_site_label_1
_geom_torsion_atom_site_label_2
_geom_torsion_atom_site_label_3
_geom_torsion_atom_site_label_4
_geom_torsion
_geom_torsion_site_symmetry_4
C2 C1 N1 C1 0.0 2_565
N1 C1 C2 C3 0.0 .
C1 C2 C3 C2 0.0 2_565
