#------------------------------------------------------------------------------
#$Date: 2017-02-04 00:26:57 +0200 (Sat, 04 Feb 2017) $
#$Revision: 191259 $
#$URL: file:///home/coder/svn-repositories/cod/cif/4/34/51/4345111.cif $
#------------------------------------------------------------------------------
#
# This file is available in the Crystallography Open Database (COD),
# http://www.crystallography.net/
#
# All data on this site have been placed in the public domain by the
# contributors.
#
data_4345111
loop_
_publ_author_name
'Mazzuca, Lidia'
'Ca\~nadillas-Delgado, Laura'
'Rodr\'iguez-Velamaz\'an, J Alberto'
'Fabelo, Oscar'
'Scarrozza, Marco'
'Stroppa, Alessandro'
'Picozzi, Silvia'
'Zhao, Jiong-Peng'
'Bu, Xian-He'
'Rodr\'iguez-Carvajal, Juan'
_publ_section_title
;
 Magnetic Structures of Heterometallic M(II)-M(III) Formate Compounds.
;
_journal_issue                   1
_journal_name_full               'Inorganic chemistry'
_journal_page_first              197
_journal_page_last               207
_journal_paper_doi               10.1021/acs.inorgchem.6b01866
_journal_volume                  56
_journal_year                    2017
_chemical_formula_sum            'C8 H14 Fe Mn N O12'
_chemical_formula_weight         426.98
_chemical_name_systematic
;
 ?
;
_space_group_crystal_system      trigonal
_space_group_IT_number           163
_space_group_name_Hall           '-P 3 2c'
_space_group_name_H-M_alt        'P -3 1 c'
_symmetry_space_group_name_Hall  '-P 3 2c'
_symmetry_space_group_name_H-M   'P -3 1 c'
_atom_sites_solution_hydrogens   geom
_audit_creation_method           SHELXL-2014
_cell_angle_alpha                90
_cell_angle_beta                 90
_cell_angle_gamma                120
_cell_formula_units_Z            2
_cell_length_a                   8.27620(10)
_cell_length_b                   8.27620(10)
_cell_length_c                   13.8975(2)
_cell_measurement_reflns_used    6593
_cell_measurement_temperature    45(2)
_cell_measurement_theta_max      32.3860
_cell_measurement_theta_min      2.7090
_cell_volume                     824.383(18)
_computing_cell_refinement       'CrysAlis PRO software program'
_computing_data_collection       'CrysAlis PRO software program'
_computing_data_reduction        'CrysAlis PRO software program'
_computing_molecular_graphics    'Mercury (McRae, 2006)'
_computing_publication_material  'WINGX (Farrugia, 1999)'
_computing_structure_refinement  'SHELXL-2014 (Sheldrick, 2014)'
_computing_structure_solution    'SHELXL-2014 (Sheldrick, 2014)'
_diffrn_ambient_temperature      45(2)
_diffrn_measured_fraction_theta_full 0.924
_diffrn_measured_fraction_theta_max 0.935
_diffrn_measurement_device_type  'CRISTAL beamline, SOLEIL synchrotron'
_diffrn_radiation_type           synchrotron
_diffrn_radiation_wavelength     0.66951
_diffrn_reflns_av_R_equivalents  0.0385
_diffrn_reflns_av_unetI/netI     0.0171
_diffrn_reflns_Laue_measured_fraction_full 0.924
_diffrn_reflns_Laue_measured_fraction_max 0.935
_diffrn_reflns_limit_h_max       12
_diffrn_reflns_limit_h_min       -11
_diffrn_reflns_limit_k_max       11
_diffrn_reflns_limit_k_min       -12
_diffrn_reflns_limit_l_max       22
_diffrn_reflns_limit_l_min       -22
_diffrn_reflns_number            10379
_diffrn_reflns_point_group_measured_fraction_full 0.924
_diffrn_reflns_point_group_measured_fraction_max 0.935
_diffrn_reflns_theta_full        23.685
_diffrn_reflns_theta_max         32.593
_diffrn_reflns_theta_min         2.761
_diffrn_source                   synchrotron
_exptl_absorpt_coefficient_mu    1.435
_exptl_absorpt_correction_T_max  1.00000
_exptl_absorpt_correction_T_min  0.83763
_exptl_absorpt_correction_type   multi-scan
_exptl_absorpt_process_details
;
CrysAlisPro, Agilent Technologies,
Version 1.171.37.33 (release 27-03-2014 CrysAlis171 .NET)
(compiled Mar 27 2014,17:12:48)
Empirical absorption correction using spherical harmonics,
 implemented in SCALE3 ABSPACK scaling algorithm.
;
_exptl_crystal_colour            dark-yellow
_exptl_crystal_density_diffrn    1.720
_exptl_crystal_description       prism
_exptl_crystal_F_000             432
_exptl_crystal_size_max          0.08
_exptl_crystal_size_mid          0.07
_exptl_crystal_size_min          0.06
_refine_diff_density_max         0.441
_refine_diff_density_min         -0.446
_refine_diff_density_rms         0.063
_refine_ls_extinction_method     none
_refine_ls_goodness_of_fit_ref   1.219
_refine_ls_hydrogen_treatment    refU
_refine_ls_matrix_type           full
_refine_ls_number_parameters     41
_refine_ls_number_reflns         1128
_refine_ls_number_restraints     0
_refine_ls_restrained_S_all      1.219
_refine_ls_R_factor_all          0.0261
_refine_ls_R_factor_gt           0.0246
_refine_ls_shift/su_max          0.000
_refine_ls_shift/su_mean         0.000
_refine_ls_structure_factor_coef Fsqd
_refine_ls_weighting_details
'w=1/[\s^2^(Fo^2^)+(0.0309P)^2^+0.4545P] where P=(Fo^2^+2Fc^2^)/3'
_refine_ls_weighting_scheme      calc
_refine_ls_wR_factor_gt          0.0703
_refine_ls_wR_factor_ref         0.0761
_reflns_Friedel_coverage         0.000
_reflns_number_gt                1078
_reflns_number_total             1128
_reflns_threshold_expression     'I > 2\s(I)'
_cod_data_source_file            FeMn_45K.cif
_cod_data_source_block           shelx
_cod_original_cell_volume        824.38(2)
_cod_database_code               4345111
_shelx_space_group_comment
;
The symmetry employed for this shelxl refinement is uniquely defined
by the following loop, which should always be used as a source of
symmetry information in preference to the above space-group names.
They are only intended as comments.
;
_shelxl_version_number           2014-3
_shelx_res_file
;
TITL FeMn_warm1 in P-31c
CELL  0.66951   8.2762   8.2762  13.8975   90.000   90.000  120.000
ZERR     2.00   0.0001   0.0001   0.0002    0.000    0.000    0.000
LATT   1
SYMM  - Y,   X - Y,   Z
SYMM  - X + Y, - X,   Z
SYMM  - Y, - X, 1/2 - Z
SYMM  - X + Y,   Y, 1/2 - Z
SYMM    X,   X - Y, 1/2 - Z
SFAC  C        2.31000 20.84392  1.02000 10.20751   1.58860   0.56870 =
         0.86500  51.65125   0.21560   0.003   0.001    10.064   0.770  12.011
SFAC  H        0.49300 10.51091  0.32291 26.12573   0.14019   3.14236 =
         0.04081  57.79977   0.00304   0.000   0.000     0.666   0.320   1.008
SFAC  N       12.21261  0.00570  3.13220  9.89331   2.01250  28.99754 =
         1.16630   0.58260 -11.52901   0.005   0.003    16.889   0.700  14.007
SFAC  O        3.04850 13.27711  2.28680  5.70111   1.54630   0.32390 =
         0.86700  32.90894   0.25080   0.009   0.005    27.551   0.660  15.999
SFAC  FE      11.76951  4.76111  7.35731  0.30720   3.52220  15.35351 =
         2.30450  76.88058   1.03690   0.338   0.762  2939.485   1.260  55.845
SFAC  MN      11.28191  5.34091  7.35731  0.34320   3.01930  17.86742 =
         2.24410  83.75438   1.08960   0.324   0.657  2538.176   1.370  54.938
UNIT  16   28   2    24   2    2
MERG   2
FMAP   2
PLAN   20
ACTA
L.S.  15
WGHT    0.030900    0.454500
FVAR      15.99118
MN2   6    0.666667    0.333333    0.250000    10.16667    0.00848    0.00848 =
         0.01246    0.00000    0.00000    0.00424
FE1   5    1.000000    0.000000    0.000000    10.16667    0.00798    0.00798 =
         0.01132    0.00000    0.00000    0.00399
O1    4    0.889426    0.342621    0.165893    11.00000    0.01882    0.01717 =
         0.03167   -0.00724    0.00678    0.00777
O2    4    1.016162    0.207870    0.081697    11.00000    0.01408    0.01462 =
         0.02067   -0.00315    0.00153    0.00767
C1    1    0.878247    0.211582    0.117765    11.00000    0.01461    0.01645 =
         0.02056   -0.00472   -0.00016    0.00867
AFIX  43
H1    2    0.760302    0.109045    0.107521    11.00000    0.04045
AFIX   0
C2    1    1.333333    0.666667    0.161184    10.33333    0.02593    0.02593 =
         0.45376    0.00000    0.00000    0.01297
N1    3    1.278460    0.556920    0.250000    10.16667    0.02407    0.01080 =
         0.30329    0.00000   -0.05396    0.00540
HKLF    4

REM  FeMn_warm1 in P-31c
REM R1 =  0.0246 for    1078 Fo > 4sig(Fo)  and  0.0261 for all    1128 data
REM     41 parameters refined using      0 restraints

END

WGHT      0.0309      0.4545

REM Highest difference peak  0.441,  deepest hole -0.446,  1-sigma level  0.063
Q1    1   1.3333  0.6667  0.0878  10.33333  0.05    0.44
Q2    1   1.3286  0.5629  0.1709  11.00000  0.05    0.35
Q3    1   0.8628  0.2788  0.1413  11.00000  0.05    0.33
Q4    1   1.0000  0.0000  0.0590  10.33333  0.05    0.30
Q5    1   0.9777  0.1569  0.0403  11.00000  0.05    0.24
Q6    1   1.2556  0.7180  0.1037  11.00000  0.05    0.24
Q7    1   0.9435  0.1908  0.1115  11.00000  0.05    0.22
Q8    1   0.9419  0.2226  0.0907  11.00000  0.05    0.21
Q9    1   0.8730  0.2804  0.2083  11.00000  0.05    0.21
Q10   1   0.8265  0.1735  0.2500  10.50000  0.05    0.20
Q11   1   0.8011  0.0763  0.1559  11.00000  0.05    0.19
Q12   1   1.3333  0.6667  0.2500  10.16667  0.05    0.19
Q13   1   0.7919  0.2823  0.1803  11.00000  0.05    0.19
Q14   1   0.8911  0.5123  0.2190  11.00000  0.05    0.19
Q15   1   0.7596  0.1641  0.0803  11.00000  0.05    0.18
Q16   1   1.0222  0.1809  0.0246  11.00000  0.05    0.18
Q17   1   0.9503  0.3989  0.2116  11.00000  0.05    0.17
Q18   1   1.0082  0.2457  0.2588  11.00000  0.05    0.17
Q19   1   1.5247  0.8329  0.0789  11.00000  0.05    0.17
Q20   1   1.2217  0.3645  0.1091  11.00000  0.05    0.17
;
_shelx_res_checksum              81863
_shelx_hkl_file
;
   0   0   2 33010.0 831.906   2
   0   0  -2 32296.5 926.446   1
   0   0   2 31865.3 933.221   1
   0   0  -3-73.6470 154.045   1
   0   0   3-98.4761 157.368   1
   0   0   3 174.981 145.970   2
   0   0   5-171.202 157.543   2
   0   0  -5 43.5935 169.358   1
   0   0   5 156.476 215.504   1
   0   0  -6 54103.6 1939.59   1
   0   0   6 52630.0 1728.81   2
   0   0   6 52120.9 1939.01   1
   0   0   7 65.2957 232.331   1
   0   0  -7-252.743 190.275   1
   0   0   7 68.3872 173.089   2
   0   0   8 513496. 10023.1   1
   0   0   9 21.9547 207.846   2
   0   0   9 60.5712 275.236   1
   0   0  -9 153.891 359.032   1
   0   0  10 20808.7 1330.57   2
   0   0 -10 18766.3 1394.55   1
   0   0  10 19953.6 1506.74   1
   0   0  11 632.515 258.785   2
   0   0 -11-86.9080 245.597   1
   0   0  11-281.134 319.098   1
   0   0  13-132.254 307.978   2
   0   0 -13 34.8012 329.721   1
   0   0  13 6.55431 271.522   1
   0   0  14 1646.47 609.028   1
   0   0 -14 1742.26 523.207   1
   0   0  14 1856.07 548.641   2
   0   0  15 564.914 370.259   1
   0   0  15 13.5189 210.978   2
   0   0 -15-197.255 264.477   1
   0   0  16 182536. 6089.21   1
   0   0 -16 173555. 5868.68   1
   0   0  17 444.001 324.600   1
   0   0 -17-733.105 546.610   1
   0   0  18 5158.48 1058.90   1
   0   0 -18 7306.79 1230.14   1
   0   0  19-168.438 397.371   1
   0   0 -19 365.090 405.106   1
   0   0  20 18350.7 2028.16   1
   0   0 -20 20244.7 1990.24   1
   0   0 -21 568.756 594.286   1
   0   0  21-446.126 423.212   1
   0   0 -22 4720.77 1031.58   1
   0   0  22 4950.62 1191.44   1
   1   0  -3 108127. 2554.27   1
   1   0   3 118333. 2719.57   1
   0  -1  -3 112282. 2518.22   1
  -1   1  -3 118842. 2729.92   1
  -1   1   3 109736. 2306.42   1
   0   1  -3 124424. 2792.22   1
   1   0   3 112055. 2606.09   2
  -1   0   3 113185. 2607.74   1
   0  -1   3 123931. 2608.34   2
   1  -1   3 125922. 2754.06   2
   0   1   3 111527. 2563.59   1
  -1   0  -3 121715. 2730.45   1
   0  -1   3 120107. 2801.56   1
   1  -1   3 120011. 2769.82   1
   1   0   4 9264.39 704.720   1
  -1   1  -4 9271.59 722.767   1
   1  -1  -4 10582.1 603.802   1
   0  -1   4 8827.24 680.903   1
  -1   0   4 9651.28 666.529   1
   1  -1   4 9828.04 700.167   1
   0   1   4 9455.94 647.560   1
  -1   1   4 9400.02 572.668   1
   0  -1   4 8881.67 596.884   2
   0   1  -4 7598.80 665.037   1
   1   0  -4 10001.7 682.471   1
   0   1   4 8281.31 578.802   2
  -1   0  -4 9605.04 693.002   1
   1   0   4 9531.86 652.576   2
   0  -1  -4 10571.2 666.537   1
  -1   1   4 8597.10 430.919   2
  -1   0   4 8588.88 475.007   2
   1  -1   4 9392.10 664.263   2
   1   0   5 7073.18 589.890   2
  -1   0   5 6117.18 598.762   1
   0   1   5 6896.42 536.837   2
   0  -1   5 6239.46 533.573   2
   1   0  -5 7114.17 589.248   1
  -1   1  -5 5513.82 587.373   1
  -1   0  -5 7351.82 666.987   1
   0  -1  -5 6450.40 551.119   1
   0   1   5 6097.61 581.635   1
   1   0   5 7191.00 679.234   1
   0  -1   5 5731.17 585.571   1
   1  -1   5 6109.69 615.613   2
  -1   1   5 6332.25 422.829   2
   1  -1  -5 6062.27 514.603   1
   1  -1   5 5511.70 610.360   1
   0   1  -5 5759.69 644.249   1
  -1   0   5 5745.19 422.764   2
  -1   1   5 6020.65 523.780   1
   1   0   6 18498.2 1082.71   2
   0  -1   6 18508.3 987.748   2
   0   1   6 16972.1 946.060   2
   1   0  -6 14956.0 975.564   1
   1  -1   6 18513.2 1163.59   1
   1   0   6 15932.3 1092.01   1
   0   1  -6 14648.8 1033.87   1
   0  -1  -6 13966.4 937.969   1
   0  -1   6 18306.2 1116.68   1
  -1   1  -6 14093.7 1005.88   1
  -1   1   6 16325.6 760.984   2
   1  -1  -6 14596.0 890.805   1
  -1   0  -6 15488.7 1027.54   1
  -1   1   6 17401.2 1002.35   1
   0   1   6 16885.5 1068.59   1
  -1   0   6 18380.9 1110.57   1
  -1   0   6 19466.0 857.353   2
   1  -1   6 14987.8 1011.17   2
  -1   1  -7 96149.4 3036.52   1
   0  -1   7 93879.8 3061.85   1
  -1   0  -7 92927.8 2970.72   1
   0   1   7 101133. 2712.91   2
  -1   0   7 94227.3 2470.06   2
   0   1   7 91564.9 2932.51   1
   0  -1   7 93806.0 2745.39   2
   1   0  -7 87892.2 2839.43   1
   0   1  -7 92815.6 3002.43   1
  -1   1   7 92125.9 2383.50   2
   1  -1   7 92437.0 2891.84   2
   1  -1  -7 96797.8 2794.31   1
   1   0   7 95639.5 2867.98   2
  -1   0   7 90704.5 2888.99   1
   1   0   7 93039.3 3080.65   1
   1  -1   7 94773.9 3103.01   1
  -1   1   7 97595.7 2857.94   1
   0  -1  -7 83650.9 2736.85   1
   0  -1  -8 27880.6 1532.04   1
   0   1   8 31952.5 1529.25   2
   1  -1   8 30933.4 1751.05   1
  -1   1  -8 31740.0 1706.66   1
  -1   0   8 30501.4 1653.42   1
  -1   1   8 29188.0 1287.44   2
  -1   0  -8 30349.5 1657.04   1
   1   0   8 33051.9 1622.62   2
   0  -1   8 31315.0 1743.12   1
  -1   0   8 30631.5 1352.57   2
   1   0   8 31744.0 1723.75   1
   1   0  -8 33582.1 1683.59   1
   0   1   8 31304.9 1662.56   1
   1  -1   8 32904.2 1657.77   2
   0  -1   8 34482.1 1602.82   2
   1  -1  -8 31847.8 1585.03   1
  -1   1   8 28304.4 1567.18   1
   0   1  -8 32713.9 1743.25   1
   0  -1   9 191733. 4727.36   2
  -1   1  -9 187772. 5033.18   1
   1  -1   9 198228. 4957.29   2
  -1   0   9 185286. 4359.73   2
   1   0   9 179405. 5088.26   1
   1   0  -9 172130. 4755.16   1
  -1   1   9 171825. 4204.53   2
   0   1   9 195798. 4687.50   2
  -1   0  -9 194976. 5060.28   1
   1  -1   9 200728. 5280.21   1
   1   0   9 187086. 4906.56   2
   0   1  -9 188639. 5046.00   1
   0   1   9 185378. 4943.58   1
  -1   0   9 194769. 5041.57   1
  -1   1   9 186406. 4910.83   1
   0  -1   9 185303. 5079.48   1
   1  -1  -9 191771. 4820.67   1
   0  -1  -9 182099. 4795.46   1
  -1   0  10 632699. 12483.8   1
   1  -1  10 653060. 12316.9   2
   0  -1  10 641392. 12648.7   1
  -1   1  11 135538. 3764.82   2
   0   1 -11 135726. 4412.54   1
   0   1  11 138960. 4064.94   2
   1   0  11 127660. 4361.20   1
  -1   1 -11 134574. 4386.30   1
   1  -1  11 135512. 4556.01   1
   0  -1  11 126059. 4321.95   1
  -1   0  11 134513. 4401.25   1
  -1   1  11 140171. 4373.44   1
   1  -1  11 131648. 4163.63   2
   0   1  11 132887. 4379.17   1
   0  -1 -11 128444. 4154.81   1
   1  -1 -11 136870. 4206.72   1
   1   0  11 128431. 4113.04   2
  -1   0  11 140186. 3874.31   2
   1   0 -11 129096. 4249.12   1
  -1   0 -11 133557. 4319.44   1
   0  -1  11 134726. 4098.78   2
   1   0  12 65575.4 3081.03   1
  -1   1  12 66573.3 3042.31   1
   0   1  12 68705.4 3122.23   1
   0  -1  12 65481.6 3089.30   1
   1   0 -12 70190.0 3043.23   1
  -1   0  12 70606.6 3147.54   1
   0   1 -12 69122.5 3065.95   1
   1   0  12 67956.5 2965.53   2
  -1   0 -12 69259.0 3063.12   1
  -1   0  12 75244.2 2812.53   2
  -1   1 -12 75046.7 3192.43   1
   0   1  12 70749.1 2846.97   2
   0  -1 -12 63282.1 2890.95   1
   1  -1  12 66430.2 3210.44   1
   0  -1  12 73285.7 2975.65   2
   1  -1 -12 77435.0 3101.22   1
   1  -1  12 67288.5 2962.10   2
  -1   1  12 72549.5 2690.99   2
   0   1  13 104024. 4118.83   1
   0   1  13 107910. 3817.77   2
  -1   0 -13 106269. 4037.60   1
  -1   0  13 109605. 3629.19   2
  -1   1  13 105564. 3541.00   2
  -1   0  13 109755. 4163.47   1
   1   0  13 105137. 4186.65   1
   1  -1 -13 103638. 3940.99   1
   0   1 -13 109716. 4110.76   1
   1   0 -13 112144. 4110.56   1
  -1   1 -13 109847. 4095.36   1
   0  -1  13 101656. 4060.75   1
   0  -1 -13 106341. 3965.29   1
   1   0  13 107038. 3959.53   2
   1  -1  13 106626. 3934.83   2
   1  -1  13 101850. 4152.63   1
  -1   1  13 108052. 4090.42   1
   0  -1  13 117574. 4011.93   2
   0   1  14 263594. 7449.27   1
   1   0  14 269697. 7581.10   1
   0  -1  14 280880. 7687.36   1
  -1   1 -14 268406. 7360.17   1
   1  -1 -14 281625. 7363.76   1
  -1   0  14 257134. 7381.38   1
   0   1  14 284895. 7106.02   2
   0   1 -14 278868. 7449.09   1
  -1   1  14 275293. 7489.81   1
  -1   0 -14 251122. 7162.96   1
   0  -1 -14 268713. 7266.20   1
   1   0  14 284380. 7345.01   2
   1   0 -14 257183. 7205.54   1
   1  -1  14 271030. 7279.21   2
   1  -1  14 277922. 7593.53   1
   0  -1  14 298170. 7318.77   2
   1   0  15 71454.9 3340.93   2
   1  -1  15 66006.5 3314.20   2
  -1   1 -15 63299.9 3275.45   1
   0  -1  15 70470.3 3252.53   2
   1   0  15 65784.4 3427.48   1
  -1   1  15 67595.6 3367.36   1
   0  -1 -15 62845.2 3178.09   1
   0   1 -15 61368.9 3250.54   1
  -1   0 -15 63543.0 3247.75   1
   0   1  15 60767.1 3313.85   1
   1  -1 -15 72583.3 3369.94   1
  -1   0  15 66681.0 3380.46   1
   1  -1  15 64629.3 3423.48   1
   0  -1  15 65455.1 3397.64   1
   1   0 -15 66621.5 3296.56   1
   0  -1 -16 19021.9 1765.91   1
  -1   1 -16 19562.2 1815.45   1
   1  -1  16 19104.6 1874.31   1
   1   0  16 19885.6 1788.43   2
   1   0 -16 20122.7 1858.75   1
  -1   0 -16 16814.7 1672.61   1
   0  -1  16 16776.7 1761.69   1
   0   1 -16 20836.4 1855.37   1
   1  -1 -16 18951.6 1774.80   1
  -1   1  16 19266.0 1838.09   1
   1   0  16 19416.8 1905.89   1
   1  -1  16 19539.7 1815.04   2
   0   1  16 17829.5 1737.08   1
  -1   0  16 20408.2 1915.58   1
   0  -1  17 12751.7 1566.80   1
   0   1 -17 14221.9 1582.13   1
  -1   1  17 13243.0 1567.63   1
   1   0 -17 15667.5 1651.95   1
  -1   0  17 13921.2 1664.88   1
   1  -1 -17 13195.2 1511.76   1
   0   1  17 14520.7 1619.62   1
   0  -1 -17 13424.0 1525.45   1
  -1   0 -17 14203.5 1595.91   1
  -1   1 -17 11731.6 1467.23   1
   1   0  17 15789.2 1739.73   1
   1  -1  17 12497.4 1546.35   1
   1  -1  18 34837.6 2665.05   1
   0   1  18 40296.7 2804.29   1
  -1   1  18 38481.5 2789.34   1
   0   1 -18 38860.0 2722.77   1
  -1   1 -18 40620.1 2780.37   1
   0  -1  18 37381.9 2798.90   1
   1   0  18 38066.5 2781.13   1
   1  -1 -18 34843.2 2540.64   1
   0  -1 -18 38445.2 2676.89   1
   1   0 -18 38470.5 2682.39   1
  -1   0 -18 41173.9 2757.50   1
  -1   0  18 39485.3 2832.27   1
   1   0  19 7367.17 1238.31   1
   0   1  19 6491.70 1191.92   1
   1  -1 -19 7126.69 1257.31   1
  -1   0 -19 6844.09 1133.77   1
   1  -1  19 7063.04 1258.96   1
   0  -1  19 6814.94 1257.85   1
   0  -1 -19 7783.39 1212.08   1
   1   0 -19 7474.80 1180.36   1
  -1   0  19 6889.83 1260.96   1
  -1   1  19 7749.77 1281.62   1
   0   1 -19 7950.51 1237.53   1
  -1   1 -19 7021.22 1184.28   1
  -1   1 -20 2036.97 734.855   1
   1   0 -20 2825.57 850.140   1
   0  -1 -20 1311.82 608.974   1
  -1   1  20 436.898 478.030   1
  -1   0  20 1728.07 580.311   1
   0  -1  20 1748.84 605.573   1
  -1   0 -20 1403.35 609.996   1
   1  -1 -20 2521.73 696.951   1
   1  -1  20 3189.93 899.795   1
   0   1 -20 2477.70 744.885   1
   0   1  20 1862.64 733.331   1
   1   0  20 1425.94 596.964   1
   1  -1  21 26037.5 2332.03   1
  -1   1  21 21518.3 2266.62   1
   0  -1 -21 20608.0 2049.95   1
   0   1  21 20354.0 2223.64   1
   1   0 -21 17499.9 1921.64   1
   1   0  21 21344.8 2192.95   1
  -1   0 -21 18809.6 1957.17   1
  -1   1 -21 24726.8 2225.86   1
  -1   0  21 19274.0 2145.86   1
   0  -1  21 20939.7 2214.94   1
   0   1 -21 18791.8 2030.60   1
   0  -1  22 47925.7 3445.08   1
   1   0  22 52738.1 3510.20   1
  -1   0 -22 53500.0 3433.38   1
  -1   0  22 44116.4 3302.94   1
   0   1 -22 54782.4 3494.58   1
   1   1  22 19857.2 2104.66   1
  -1  -1 -21 64.1941 295.082   1
   1   1  21 882.639 687.459   1
   1  -2  21-156.971 546.064   1
  -1   2 -21 174.648 353.119   1
   1  -2  20 120756. 5298.08   1
   1   1  20 107147. 5076.50   1
  -1   2 -20 122801. 5186.96   1
  -1  -1 -20 103758. 4843.19   1
  -1  -1 -19 400.330 461.215   1
  -1   2 -19-26.4141 254.091   1
   2  -1 -19 468.369 519.626   1
   1  -2  19 241.603 430.765   1
  -2   1  19 258.186 352.537   1
   1   1  19-590.466 501.646   1
  -1   2 -18 7499.62 1209.97   1
   1   1  18 7262.36 1227.49   1
  -2   1  18 8137.35 1269.24   1
  -1  -1 -18 7410.66 1207.86   1
   2  -1 -18 7973.48 1229.04   1
   1  -2  18 7196.62 1172.27   1
   1  -2  17 220.276 370.073   2
   1  -2  17-539.209 469.997   1
  -1   2 -17-412.220 461.728   1
   2  -1 -17-262.899 331.707   1
  -2   1  17 33.3283 415.811   1
   1   1  17 436.089 492.532   1
  -1  -1 -17 429.191 424.037   1
  -1  -1 -16 212433. 6534.85   1
   1   1  16 198587. 6396.30   2
  -1   2 -16 201006. 6515.64   1
   1  -2  16 213002. 6588.95   2
   2  -1 -16 219666. 6596.18   1
   1  -2  16 202402. 6678.22   1
  -2   1  16 212271. 6740.33   1
   1   1  16 211626. 6708.12   1
  -1  -1 -15 242.668 446.010   1
   1   1  15-97.2072 444.898   2
  -2   1  15-17.7628 262.473   1
   1   1  15 430.078 497.615   1
   2  -1 -15 637.802 510.513   1
   1  -2  15 247.815 341.058   2
   1  -2  15 284.071 309.880   1
  -1   2 -15-540.818 377.620   1
   1   1  14 2753.10 641.857   2
   1   1  14 3046.55 759.328   1
   1  -2  14 3254.12 814.614   1
   1  -2  14 3615.06 799.020   2
  -2   1  14 3640.11 775.143   1
   2  -1 -14 2966.95 663.313   1
  -1  -1 -14 2899.20 635.822   1
  -1   2 -14 3168.09 772.107   1
  -1   2 -13 420.429 449.881   1
   1   1  13 119.873 358.718   2
   2  -1 -13-492.580 304.512   1
   1  -2  13-847.067 568.070   1
   1  -2  13-35.4735 260.390   2
   1   1  13-255.157 315.708   1
  -1  -1 -13-196.455 360.146   1
  -2   1  13 200.870 331.720   1
   2  -1 -12 406418. 9166.93   1
  -2   1  12 400769. 9298.62   1
   1  -2  12 406517. 9649.03   1
  -1  -1 -12 417507. 9309.25   1
   1  -2  12 426282. 9414.00   2
  -1   2 -12 422211. 9608.51   1
   1   1  12 446655. 9379.80   2
   1   1  12 411834. 9597.17   1
   1   1  11-203.054 304.686   1
  -1   2 -11 14.9634 290.130   1
  -2   1  11-45.8232 185.679   2
   1   1  11 27.1311 287.057   2
   2  -1 -11 805.512 369.851   1
  -1  -1 -11 227.438 243.844   1
  -2   1  11 118.638 282.825   1
   1  -2  11-49.2405 341.110   2
   1  -2  11 449.707 309.204   1
   1   1  10 78616.3 2973.68   2
  -1  -1 -10 76036.5 3006.36   1
  -2   1  10 67970.3 2136.05   2
   2  -1 -10 76088.2 2873.70   1
   1  -2  10 73547.7 2950.50   2
   1   1  10 73628.6 3060.97   1
  -1   2 -10 79158.0 3176.69   1
  -2   1  10 73766.4 2914.37   1
   1  -2  10 75963.7 3159.40   1
  -2   1   9 124.619 200.311   1
  -1  -1  -9-131.824 194.898   1
   1   1   9-35.0962 256.623   1
   2  -1  -9-56.0206 235.067   1
  -2   1   9-12.2362 98.4967   2
  -1   2  -9 326.968 302.612   1
   1  -2   9 358.024 304.302   1
   1  -2   9-106.433 215.086   2
   1   1   9-347.636 249.566   2
   1  -2   8 770140. 13936.4   2
  -2   1   7 128.349 93.0510   2
   1   1   7-206.376 243.604   2
   1   1   7 57.9577 205.154   1
  -2   1   7 44.5026 163.537   1
   1  -2   7 99.9353 192.132   2
   2  -1  -7 397.519 288.452   1
  -1  -1  -7-16.4983 232.643   1
  -1   2  -7 438.631 346.810   1
   1   1   6 15179.1 1024.66   2
   2  -1  -6 15253.7 929.822   1
  -1  -1  -6 17394.9 1137.97   1
  -1   2  -6 15630.4 1120.21   1
   1  -2   6 15574.3 1047.40   2
   1   1   6 14769.5 1069.02   1
   1  -2   6 15565.9 1155.46   1
  -2   1   6 16019.2 974.638   1
   2  -1  -5 538.236 211.288   1
  -1  -1  -5 654.319 257.907   1
   1  -2   5 445.794 253.261   2
   1   1   5 201.388 246.988   2
  -2   1   5 460.066 222.801   1
   1  -2   5 179.727 249.130   1
   1   1   5 603.783 285.288   1
  -1   2  -5 672.607 352.456   1
   1  -2   3 1101.93 284.830   2
   1  -2   3 1531.74 322.918   1
  -2   1   3 967.831 198.692   1
  -1   2  -3 1253.55 320.206   1
   1   1   3 1843.16 355.008   1
   2  -1  -3 1174.95 224.275   1
  -1  -1  -3 1767.96 317.859   1
   1  -2   1 1312.97 299.078   2
  -1  -1  -1 1410.61 279.930   1
  -2   1   1 742.403 147.724   1
   1  -2   1 1368.00 266.299   1
   2  -1  -1 937.500 186.537   1
   2  -1  -1 1035.72 178.494   2
   1   1   1 1261.09 262.040   1
  -1   2  -1 1168.69 207.758   1
   1  -2  -1 406.848 165.127   2
   2  -1   1 391.621 195.442   2
   1   1  -1 464.090 150.176   1
  -1   2   1 320.665 126.952   1
  -1  -1   1 534.263 222.698   1
  -2   1  -1 559.654 187.047   1
   2  -1   1 191.783 155.947   1
   1  -2  -1 434.347 146.521   1
  -1  -1   3 336.696 221.096   1
   2  -1   3-119.784 158.338   1
   2  -1   3 124.217 183.771   2
   1   1  -3 70.5456 206.628   1
   1  -2  -3 80.2711 103.462   1
  -2   1  -3-48.8172 215.424   1
  -1  -1   3 155.368 194.539   2
  -1   2   3 166.447 104.526   1
   1   1  -5 741.901 300.230   1
  -2   1  -5 733.727 286.614   1
   2  -1   5 580.303 243.119   2
  -1  -1   5 1453.57 359.145   1
  -1   2   5 1857.33 317.595   1
   2  -1   5 521.631 287.621   1
  -1  -1   5 232.841 179.459   2
   1  -2  -5 884.906 222.228   1
   2  -1   6 14195.2 1080.88   1
  -2   1  -6 11651.3 975.777   1
  -1   2   6 14880.5 852.827   2
  -1  -1   6 13544.5 877.248   2
  -1   2   6 12335.0 832.508   1
   1  -2  -6 11434.3 780.926   1
   1   1  -6 12932.9 992.186   1
   2  -1   6 14277.6 1027.62   2
  -1  -1   6 11777.6 1016.48   1
   1  -2  -7 785.382 293.810   1
   2  -1   7 332.682 339.895   1
  -1   2   7 343.755 152.043   2
   1   1  -7 85.5196 205.038   1
  -1  -1   7 360.566 176.138   2
  -2   1  -7 470.732 361.251   1
  -1  -1   7 164.077 270.402   1
   2  -1   7 616.522 310.804   2
  -1   2   7 257.722 195.932   1
  -1  -1   9 344.645 275.074   1
   2  -1   9 708.348 292.175   1
  -1  -1   9-182.843 190.068   2
   1   1  -9 248.250 234.274   1
  -1   2   9-45.7563 148.980   2
   1  -2  -9 115.143 228.861   1
  -1   2   9 206.669 258.695   1
  -2   1  -9 412.281 276.648   1
   2  -1   9 1.49593 250.462   2
   2  -1  10 89688.9 3465.01   1
  -1   2  10 100005. 2993.38   2
   1  -2 -10 94395.1 3179.73   1
  -1  -1  10 91310.1 3471.67   1
   1   1 -10 87590.7 3340.16   1
  -1   2  10 91744.0 3250.13   1
   2  -1  10 94270.2 3373.44   2
  -2   1 -10 91494.4 3439.83   1
  -1  -1  10 87532.9 3018.86   2
  -1   2  11 512.829 298.782   2
  -1  -1  11-22.9445 178.160   2
   2  -1  11 943.639 475.301   1
  -1   2  11-87.6480 245.514   1
   2  -1  11 123.264 327.542   2
  -1  -1  11-189.818 254.359   1
  -2   1 -11-237.544 287.812   1
   1  -2 -11-313.010 370.923   1
   1   1 -11 874.496 394.962   1
   1   1 -12 472391. 10247.4   1
  -2   1 -12 474114. 10343.0   1
  -1  -1  12 467480. 10489.3   1
  -1   2  12 447949. 10108.2   1
  -1  -1  12 473489. 9764.61   2
   2  -1  12 469672. 10271.2   2
   2  -1  12 477399. 10581.0   1
  -1  -1  13 55.5069 277.420   2
   2  -1  13-35.6461 240.251   2
  -1   2  13 333.500 351.518   1
  -1   2  13 210.111 272.513   2
   2  -1  13 62.0626 343.163   1
  -1  -1  13 529.337 524.954   1
  -2   1 -13 797.285 555.408   1
   1  -2 -13 27.2465 276.285   1
   1   1 -13 33.2273 275.364   1
  -2   1 -14 40912.1 2510.51   1
  -1  -1  14 43971.1 2409.09   2
   1   1 -14 42854.7 2541.28   1
   1  -2 -14 42335.4 2472.76   1
   2  -1  14 43943.2 2559.68   2
  -1  -1  14 39113.3 2586.63   1
  -1   2  14 43008.4 2587.17   1
   2  -1  14 41570.5 2632.66   1
  -1   2  15-327.297 302.390   1
   2  -1  15-162.789 408.255   2
  -2   1 -15 531.240 380.462   1
   2  -1  15-848.037 523.523   1
  -1  -1  15 474.583 428.542   1
   1  -2 -15 915.601 444.421   1
   1   1 -15-269.750 355.319   1
   1   1 -16 156189. 5530.31   1
   2  -1  16 165185. 5823.63   1
  -1  -1  16 162105. 5825.42   1
   2  -1  16 167898. 5709.88   2
  -1   2  16 172472. 5936.39   1
  -2   1 -16 154551. 5561.17   1
   1  -2 -16 167986. 5618.14   1
   2  -1  17 398.764 424.536   2
  -1   2  17 128.373 470.462   1
   2  -1  17-107.695 384.473   1
  -2   1 -17-40.5751 354.014   1
   1  -2 -17 398.428 450.566   1
  -1  -1  17-48.5175 313.827   1
   1   1 -17 43.0575 304.780   1
   2  -1  18 255.580 416.096   2
  -1   2  18 322.489 398.796   1
   1  -2 -18 349.378 358.716   1
   2  -1  18-326.482 438.379   1
   1   1 -18 109.283 479.110   1
  -2   1 -18 282.181 372.930   1
  -1  -1  18 83.1864 374.769   1
  -1   2  19 185.257 374.678   1
  -2   1 -19-298.095 367.745   1
  -1  -1  19 346.380 446.967   1
   2  -1  19 247.042 467.704   1
   1   1 -19-140.572 381.124   1
   1   1 -20 152741. 6009.08   1
  -1  -1  20 150605. 6171.34   1
   2  -1  20 162602. 6225.13   1
  -2   1 -20 169586. 6150.94   1
  -2   1 -21-293.578 386.973   1
   1   1 -21-126.290 410.053   1
   2  -1  21 381.207 479.246   1
  -1  -1  21-49.0733 431.687   1
  -1  -1  22 1564.68 708.854   1
   0   2   0 102780. 2522.25   1
   2  -2   0 109652. 2409.12   2
   0  -2   0 99126.2 2457.28   1
  -2   0   0 112932. 2614.98   1
   2   0   0 101518. 2541.32   1
   0  -2   1 136961. 3073.84   2
   0  -2   1 124531. 2877.27   1
   0   2   1 128556. 2798.83   1
   2  -2   1 120518. 2793.06   2
  -2   0  -1 118542. 2862.18   1
   2   0  -1 107784. 2736.80   1
  -2   0   1 122440. 2812.20   1
   0  -2  -1 123400. 2778.21   1
   2   0   1 113089. 2853.73   1
   0   2  -1 125194. 2908.20   1
   2  -2   7 68960.5 2520.62   2
   0  -2  -7 63945.8 2295.55   1
  -2   0   7 67418.4 2479.34   1
  -2   2  -7 64457.9 2536.93   1
   2   0  -7 61708.4 2335.48   1
   0   2   7 61237.5 2296.13   1
   0   2  -7 65950.7 2597.94   1
   0  -2   7 65230.6 2591.51   1
   2   0   7 68746.8 2626.32   1
   2   0   7 64801.7 2431.91   2
   0  -2   7 61615.6 2342.92   2
   2  -2   7 69294.1 2656.49   1
  -2   0  -7 66823.5 2554.37   1
   0   2   7 66665.5 2395.62   2
   2  -2  -7 61082.0 2017.99   1
  -2   2   7 59661.2 1588.95   2
  -2   2   7 63889.7 2112.49   1
  -2   0   7 61989.8 1855.62   2
  -2   2   8 8546.78 587.552   2
   0  -2   8 12023.7 1072.47   1
   0   2  -8 10509.6 1047.77   1
  -2   2   8 12007.9 937.308   1
   2   0  -8 9107.48 891.856   1
   2   0   8 11248.7 1028.11   2
   0  -2   8 9272.38 903.011   2
  -2   0  -8 9656.70 992.330   1
  -2   0   8 9839.04 692.915   2
   0  -2  -8 12133.1 981.738   1
  -2   0   8 10230.6 980.310   1
   0   2   8 9728.68 909.375   2
   2   0   8 10969.1 1050.51   1
   2  -2   8 10792.1 984.180   2
   2  -2  -8 10177.7 813.143   1
   0   2   8 10958.5 1007.72   1
  -2   2  -8 10145.1 998.675   1
   2  -2   8 10247.9 1071.43   1
  -2   0   9 40989.4 1602.53   2
   2  -2   9 44916.9 2167.32   2
   2  -2  -9 42747.5 1892.70   1
   2   0   9 41050.5 2225.02   1
  -2   2   9 42112.2 1964.67   1
  -2   0  -9 42670.6 2179.66   1
  -2   0   9 43161.2 2164.99   1
   0  -2   9 41638.8 2205.20   1
   0   2  -9 40329.4 2176.09   1
   0   2   9 41299.2 2080.81   1
   0   2   9 42837.8 1938.20   2
  -2   2  -9 45135.4 2261.49   1
  -2   2   9 40937.4 1423.29   2
   0  -2   9 41880.1 2037.71   2
   2  -2   9 43137.8 2264.82   1
   2   0  -9 40987.1 2048.17   1
   2   0   9 44609.9 2159.39   2
   0  -2  -9 40982.7 1954.80   1
  -2   2  10 177769. 4005.88   2
  -2   2 -10 184593. 5297.14   1
   0   2 -10 189646. 5376.37   1
   2  -2 -10 176083. 4730.18   1
  -2   0 -10 188125. 5265.17   1
   2  -2  10 182711. 5415.33   1
  -2   0  10 179909. 5165.05   1
   0  -2  10 189773. 5051.35   2
  -2   0  10 170606. 4218.63   2
   2  -2  10 187604. 5170.78   2
   0  -2  10 194785. 5497.60   1
   0   2  10 185549. 4836.17   2
   2   0  10 200372. 5282.56   2
   2   0 -10 179918. 5024.98   1
   2   0  10 174409. 5316.99   1
  -2   2  10 177671. 4884.00   1
   0   2  10 180484. 5142.58   1
   0  -2 -10 185703. 5037.82   1
   0  -2 -11 244096. 6082.37   1
   2   0  11 222371. 6361.30   1
  -2   0 -11 224481. 6121.33   1
  -2   2 -11 231382. 6306.34   1
   0   2 -11 225735. 6235.32   1
   0  -2  11 233643. 6013.51   2
   2  -2  11 231798. 6186.37   2
   0   2  11 222642. 5810.44   2
   0  -2  11 231284. 6413.25   1
   2   0  11 229545. 6077.34   2
  -2   0  11 233540. 6243.24   1
   0   2  11 236501. 6215.94   1
   2  -2  11 236616. 6486.63   1
  -2   0  11 240756. 5326.64   2
  -2   2  11 229871. 5969.75   1
  -2   2  11 221663. 4924.33   2
   2   0 -11 231869. 6063.48   1
   2  -2 -11 221430. 5757.31   1
   2   0  12 66011.6 3169.56   1
  -2   2 -12 71325.6 3167.20   1
   2  -2  12 68386.4 3091.62   2
   2  -2  12 72281.1 3342.76   1
   0  -2  12 63734.9 3180.87   1
   2   0 -12 70351.2 3050.60   1
   0   2  12 68250.6 2958.94   2
   0   2  12 62173.8 2999.88   1
  -2   0  12 67874.7 2511.38   2
  -2   2  12 67905.7 2972.23   1
   0  -2  12 68751.3 3051.65   2
   2   0  12 67387.7 3055.94   2
  -2   0 -12 69725.5 3131.76   1
  -2   0  12 63842.2 3090.05   1
   2  -2 -12 73571.8 3007.77   1
   0   2 -12 68502.7 3155.76   1
   0  -2 -12 74201.0 3081.56   1
   0  -2 -13 55450.8 2782.30   1
  -2   0 -13 61051.6 3039.40   1
   0   2 -13 55350.1 2900.82   1
   0  -2  13 59827.3 3087.32   1
   2   0 -13 59729.7 2889.69   1
   2   0  13 61148.7 3120.91   1
   2  -2  13 59089.6 3143.77   1
   2  -2  13 60220.6 2952.92   2
   0   2  13 60172.3 3006.51   1
  -2   2 -13 62927.4 3053.89   1
   2   0  13 60722.0 2989.88   2
  -2   0  13 58397.4 3020.15   1
   0   2  13 59673.0 2815.97   2
  -2   2  13 60542.1 2921.95   1
   2  -2 -13 59952.5 2818.56   1
   0  -2  13 59672.2 2891.20   2
  -2   0 -14 173670. 5568.63   1
   0   2  14 172601. 5657.77   1
   2   0 -14 182833. 5679.35   1
  -2   2 -14 173672. 5718.72   1
   2  -2 -14 195252. 5693.18   1
   0  -2  14 183772. 5620.35   2
  -2   0  14 168433. 5705.21   1
   0  -2 -14 181148. 5568.95   1
   2  -2  14 183825. 5811.26   2
   2   0  14 173568. 5719.57   1
   0  -2  14 171239. 5831.54   1
   0   2 -14 170258. 5634.85   1
   2  -2  14 174015. 5840.33   1
   0   2  14 171720. 5420.22   2
  -2   2  14 186405. 5751.89   1
   2   0  14 176970. 5621.43   2
   2   0  15 965.954 545.268   1
   2   0  15 910.082 431.465   2
   2  -2  15 1191.75 551.844   2
  -2   0  15 428.733 347.337   1
  -2   2  15 1226.22 559.165   1
   0  -2  15 976.504 399.768   2
  -2   2 -15 853.409 367.571   1
   0   2  15 841.450 420.773   1
   2  -2 -15 235.956 370.336   1
  -2   0 -15 1201.19 566.855   1
   0  -2  15 699.618 497.742   1
   2  -2  15 804.350 499.881   1
   0  -2 -15 1417.98 517.197   1
   2   0 -15 534.940 355.734   1
   0   2 -15 1441.23 609.174   1
   2   0 -16 3577.96 790.273   1
   0   2  16 3362.88 754.323   1
   2  -2  16 3649.36 832.363   1
  -2   0 -16 3407.53 790.724   1
   0   2 -16 3676.07 883.138   1
  -2   2  16 5071.40 1029.28   1
  -2   2 -16 3091.03 761.570   1
   0  -2  16 3549.32 903.960   1
  -2   0  16 3666.85 849.796   1
   0  -2 -16 5059.51 940.854   1
   2  -2  16 4700.22 935.864   2
   2   0  16 4060.43 830.759   2
   2   0  16 3211.36 810.036   1
   2  -2 -16 3105.36 727.181   1
   0   2 -17 44575.8 2822.06   1
   2  -2 -17 42814.0 2782.09   1
  -2   0 -17 42512.6 2717.87   1
   2   0  17 42723.0 2864.43   1
  -2   2 -17 42119.7 2778.14   1
   2  -2  17 43581.6 2907.82   2
   2  -2  17 41407.5 2872.73   1
  -2   2  17 46685.3 2986.94   1
   2   0 -17 42607.2 2824.68   1
   0  -2  17 36561.4 2772.88   1
  -2   0  17 41793.0 2872.61   1
   0   2  17 42594.6 2842.19   1
   0  -2 -17 44059.2 2751.03   1
   2   0  17 43814.6 2849.04   2
   0   2 -18 97490.5 4425.38   1
   2  -2  18 101887. 4580.02   1
   0   2  18 101727. 4671.13   1
   2  -2  18 101626. 4615.28   2
  -2   0  18 99295.1 4693.07   1
  -2   2  18 97878.9 4618.49   1
   2   0  18 98696.2 4544.07   1
   2   0 -18 98376.6 4496.73   1
  -2   0 -18 93444.9 4323.17   1
   0  -2  18 93006.9 4539.00   1
   0  -2 -18 102836. 4493.57   1
  -2   2 -18 100560. 4520.64   1
   0  -2 -19 72271.1 3837.70   1
  -2   2 -19 74803.6 3899.59   1
  -2   0  19 67933.9 3929.70   1
  -2   0 -19 72810.8 3795.88   1
   0   2 -19 74266.8 3872.36   1
   2   0  19 74480.8 4000.37   1
   2  -2  19 69835.1 3891.32   1
   2   0 -19 69367.2 3845.07   1
   0   2  19 68951.0 3903.89   1
   0  -2  19 77700.1 4069.01   1
  -2   2 -20 22547.1 2133.18   1
   2   0  20 21927.0 2187.35   1
   2   0 -20 21091.9 2049.49   1
   0   2  20 19434.1 2073.43   1
  -2   0  20 20569.0 2168.59   1
  -2   0 -20 21028.7 2049.54   1
   0  -2 -20 18880.6 1971.21   1
   0   2 -20 20405.6 2079.04   1
   0  -2  20 21608.8 2195.45   1
   2  -2  20 21421.2 2167.73   1
   2  -2  21 12003.7 1602.39   1
   0  -2  21 9313.41 1497.61   1
  -2   0  21 10450.2 1543.64   1
   2   0  21 10023.0 1393.74   1
  -2   0 -21 10276.3 1395.21   1
   0   2 -21 9686.84 1442.52   1
  -2   2 -21 12330.3 1584.34   1
  -1  -2 -21 3924.10 966.404   1
   1  -3  21 3397.14 921.194   1
   1   2  21 2920.90 908.440   1
   2  -3  21 2185.52 727.208   1
  -2  -1 -21 3055.05 866.014   1
  -2   3 -21 4409.29 935.958   1
  -1   3 -21 4994.51 1007.74   1
   2   1  21 3112.15 864.982   1
  -1  -2 -20 36056.7 2748.67   1
   2   1  20 38291.4 2931.28   1
   1   2  20 41528.7 3035.56   1
  -2   3 -20 45925.5 3073.11   1
   2  -3  20 47459.3 3182.73   1
   1  -3  20 39861.1 3008.25   1
  -2  -1 -20 38328.0 2856.19   1
  -1   3 -20 45904.9 3087.36   1
   1   2  19 8654.12 1375.59   1
  -1  -2 -19 8659.22 1301.62   1
  -2   3 -19 10497.6 1424.25   1
  -2  -1 -19 6860.40 1164.21   1
   2  -3  19 9319.03 1343.88   1
   1  -3  19 8738.95 1303.70   1
   2   1  19 8301.60 1353.31   1
  -1   3 -19 8396.16 1274.73   1
   2   1  18 127223. 5288.79   1
   1  -3  18 116935. 5145.92   1
   2  -3  18 121272. 5194.59   2
  -2   3 -18 125786. 5122.58   1
   1   2  18 126841. 5251.83   1
   2  -3  18 126784. 5354.41   1
  -1  -2 -18 125534. 5015.08   1
  -3   1  18 125281. 5360.13   1
  -2  -1 -18 131826. 5173.84   1
  -1   3 -18 130674. 5225.57   1
   2  -3  17 90910.0 4341.31   2
   1   2  17 85617.9 4157.97   1
  -1   3 -17 90870.1 4142.75   1
   2   1  17 89713.2 4214.77   1
   3  -1 -17 90861.4 4204.67   1
  -2   3 -17 97010.9 4293.14   1
   2  -3  17 84889.2 4184.55   1
  -1  -2 -17 84450.8 3990.05   1
  -2  -1 -17 83091.0 3961.32   1
   2   1  17 85832.4 4136.55   2
   1  -3  17 94009.8 4339.12   2
  -3   1  17 87147.4 4249.59   1
   1  -3  17 78785.0 4141.34   1
  -1  -2 -16 32.6597 383.177   1
   2  -3  16 422.463 561.983   1
   1   2  16 192.094 423.432   1
  -3   2  16-362.508 497.563   1
   2   1  16 255.144 319.161   1
  -1   3 -16 832.962 522.295   1
  -2  -1 -16 524.763 473.390   1
   1  -3  16 452.271 518.942   1
   2  -3  16-308.694 445.959   2
   2   1  16-413.628 388.209   2
  -2   3 -16-4.55330 363.293   1
   1  -3  16-160.567 293.961   2
  -3   1  16 135.623 351.561   1
   3  -1 -16 283.665 296.716   1
   1   2  16 677.465 531.266   2
  -3   2  15 158722. 5507.92   1
   1  -3  15 152005. 5521.14   1
  -1  -2 -15 154693. 5288.62   1
   2   1  15 159092. 5465.60   2
   2  -3  15 149843. 5525.96   1
   3  -2 -15 154890. 5285.49   1
  -1   3 -15 145288. 5355.34   1
   1   2  15 156390. 5445.92   2
  -3   1  15 163964. 5633.54   1
  -2  -1 -15 153798. 5270.68   1
   2  -3  15 158847. 5503.85   2
   3  -1 -15 143234. 5151.88   1
   1   2  15 149243. 5409.65   1
  -2   3 -15 145532. 5336.11   1
   2   1  15 148687. 5350.01   1
   1  -3  15 151234. 5389.25   2
  -2   3 -14 66345.8 3342.89   1
  -1   3 -14 59948.5 3213.21   1
  -3   1  14 71447.4 3386.74   1
   2  -3  14 61553.9 3235.34   2
   1   2  14 62755.1 3276.43   2
   2   1  14 66744.9 3286.07   2
   2  -3  14 63749.5 3377.96   1
  -2  -1 -14 62722.1 3169.66   1
   3  -2 -14 67929.8 3131.99   1
   2   1  14 60395.4 3282.52   1
   1  -3  14 63142.9 3208.49   2
   1   2  14 63534.1 3291.69   1
  -3   2  14 69930.4 3287.08   1
  -1  -2 -14 66260.1 3178.92   1
   1  -3  14 63409.0 3333.90   1
   3  -1 -14 64541.7 3154.71   1
  -2  -1 -13 20434.6 1735.25   1
  -1  -2 -13 23166.3 1769.12   1
   3  -1 -13 21906.5 1726.66   1
   2  -3  13 21445.3 1822.42   2
  -3   2  13 23502.1 1798.73   1
  -1   3 -13 23164.0 1868.26   1
   1   2  13 22877.6 1871.51   1
   1  -3  13 22020.5 1878.32   1
   2   1  13 20954.3 1817.08   2
  -2   3 -13 21509.8 1849.59   1
   1   2  13 21347.2 1795.38   2
   2   1  13 20480.2 1831.15   1
   2  -3  13 20634.6 1855.52   1
   1  -3  13 23071.2 1831.96   2
   3  -2 -13 22958.3 1704.03   1
  -3   1  13 24810.3 1865.10   1
   2  -3  12 2713.85 672.818   1
   2  -3  12 3016.23 691.581   2
  -1  -2 -12 2881.45 699.011   1
   1   2  12 2553.76 625.983   1
   1  -3  12 3650.92 827.448   1
  -3   1  12 3868.35 756.005   1
  -1   3 -12 3992.05 814.060   1
   3  -1 -12 3390.20 704.656   1
   1   2  12 2461.06 604.653   2
   1  -3  12 3029.21 610.581   2
  -2  -1 -12 2989.17 642.301   1
   2   1  12 3676.10 704.527   2
   2   1  12 3546.87 768.281   1
   3  -2 -12 3487.10 645.725   1
  -2   3 -12 3520.63 802.738   1
  -3   2  12 3810.91 659.324   1
   3  -2 -11 803.757 264.788   1
  -3   2  11 1380.23 356.104   1
  -3   1  11 330.738 239.024   1
  -2   3 -11 1186.73 587.584   1
  -1   3 -11 1279.68 541.365   1
   1   2  11 633.358 455.851   1
   2  -3  11 1486.97 537.219   2
   2  -3  11 1440.28 461.158   1
  -2  -1 -11 1613.05 477.285   1
   1  -3  11 1516.95 545.606   2
   3  -1 -11 1099.91 368.585   1
   1   2  11 728.604 273.020   2
   2   1  11 916.863 503.950   1
  -1  -2 -11 500.974 257.447   1
   1  -3  11 770.316 457.452   1
   2   1  11 1072.60 491.570   2
   1  -3  10 337114. 8331.96   1
   2   1  10 336993. 8161.59   1
   3  -2 -10 359824. 7576.29   1
   2   1  10 352152. 7984.92   2
   3  -1 -10 352883. 7770.65   1
   1  -3  10 358172. 8139.34   2
  -1  -2 -10 318945. 7748.66   1
   2  -3  10 354523. 8233.57   2
  -2  -1 -10 341883. 8017.16   1
  -2   3 -10 343655. 8282.27   1
   2  -3  10 328215. 8289.94   1
  -1   3 -10 344703. 8252.47   1
  -3   2  10 372738. 7818.33   1
  -3   1  10 358317. 7966.06   1
   1   2  10 346629. 8117.80   1
   1   2  10 381763. 8086.27   2
   3  -2  -9 40423.5 1830.03   1
   1   2   9 35662.6 1923.09   2
   1   2   9 38170.6 2079.57   1
   1  -3   9 39531.7 2201.50   1
   2  -3   9 39454.0 2167.46   2
  -1   3  -9 41261.6 2206.81   1
  -2   3  -9 38473.9 2163.69   1
   1  -3   9 42821.2 2135.61   2
   2  -3   9 39885.0 2243.00   1
   2   1   9 40222.7 2124.73   1
  -3   2   9 40323.9 1905.88   1
   2   1   9 44791.1 2161.40   2
  -1  -2  -9 35964.1 1946.54   1
  -2  -1  -9 39874.5 2119.38   1
  -3   1   9 39313.0 2017.04   1
   3  -1  -9 41347.7 1964.06   1
  -2   3  -8 789446. 14704.9   1
   2  -3   7 145166. 4366.73   1
   2   1   7 145330. 4103.58   2
   1  -3   7 153499. 4459.29   1
   3  -1  -7 157312. 3926.99   1
  -3   2   7 132486. 3527.29   1
  -1  -2  -7 168349. 4311.20   1
  -1   3  -7 149363. 4333.51   1
   1   2   7 145968. 4140.83   1
   1   2   7 150524. 4201.81   2
   3  -2  -7 141549. 3543.47   1
   1  -3   7 143975. 4210.19   2
  -2  -1  -7 141894. 4157.04   1
  -2   3  -7 149590. 4282.62   1
   2  -3   7 157563. 4352.16   2
  -3   1   7 147929. 3892.32   1
   2   1   7 146071. 4208.54   1
   2  -3   5 664879. 12122.8   1
  -1  -2  -4 264537. 5788.17   1
   1  -3   4 278248. 6014.43   1
   2  -3   4 277617. 6002.15   2
   2  -3   4 283894. 5913.66   1
   2   1   4 280541. 6018.44   1
  -3   1   4 276291. 5510.33   1
   3  -1  -4 284537. 5487.10   1
  -2  -1  -4 262372. 5924.29   1
  -2   3  -4 261574. 5845.71   1
   1  -3   4 288299. 6057.57   2
  -3   1   2 86457.4 2272.71   1
  -3   2   2 87317.2 1874.04   1
  -1  -2  -2 80010.3 2518.55   1
   3  -2  -2 90532.0 1949.18   2
   3  -2  -2 90667.0 1856.71   1
   3  -1  -2 91523.0 2298.96   1
  -1   3  -2 79383.2 2410.43   1
   1  -3   2 76955.1 2373.17   1
  -2   3  -2 83694.6 2337.96   1
   2  -3   2 85566.5 2341.92   1
   1  -3   2 89917.6 2657.48   2
   2   1   2 84949.0 2600.25   1
   2  -3   2 85397.7 2559.06   2
   3  -1  -2 86674.2 2026.71   2
  -2  -1  -2 83711.5 2598.25   1
   1   2   2 83432.1 2545.85   1
   2  -3   1 208565. 4398.60   2
  -2  -1  -1 196435. 4495.37   1
  -1  -2  -1 199813. 4456.70   1
  -3   1   1 185311. 4027.60   1
   1  -3   1 203203. 4175.31   1
   2   1   1 188535. 4448.25   1
  -2   3   0 1322.43 203.696   1
   3  -2   0 1041.68 248.049   2
  -3   2   0 970.754 181.557   1
   1  -3   0 963.278 238.794   1
   2   1   0 878.768 297.060   1
   3  -1   0 1057.19 249.956   2
   3  -2   0 887.167 223.273   1
  -3   1   0 1165.91 255.148   1
  -1   3   0 895.769 229.286   1
   1  -3   0 1288.17 285.690   2
   1   2   0 1091.62 303.172   1
   2  -3   0 1616.21 303.855   2
   3  -1   0 1018.00 231.512   1
  -1  -2   0 1050.51 304.725   1
  -2  -1   0 802.257 251.151   1
   2  -3   0 1029.19 183.025   1
  -3   1  -1 190676. 4055.54   1
   3  -2   1 179789. 3723.97   1
  -1  -2   1 177405. 4188.99   1
   3  -1   1 176520. 3940.63   1
   1   2  -1 182288. 4254.28   1
   2   1  -1 183254. 4205.73   1
   1  -3  -1 181951. 3699.85   1
  -2  -1   1 186414. 4197.06   1
   2   1  -3 44826.2 1800.30   1
   1   2  -3 43580.4 1828.22   1
   2  -3  -3 44086.7 1047.96   1
   3  -1   3 43427.4 1735.62   1
  -3   1  -3 42117.8 1729.07   1
  -3   2  -3 40204.5 1621.36   1
   3  -2   3 42869.4 1747.71   2
   1  -3  -3 43617.7 1441.66   1
   3  -1   3 44878.8 1753.71   2
  -2  -1   3 41325.4 1757.19   1
  -1  -2   3 40911.4 1756.58   1
  -1  -2   3 48820.7 1877.18   2
  -1   3   3 45088.8 1462.99   1
   3  -2   3 43001.5 1707.52   1
  -2   3   3 46544.4 1085.53   1
  -1   3   5 259527. 5232.38   1
   3  -1   5 260997. 5887.47   1
  -3   2  -5 258524. 5787.49   1
  -1  -2   5 268706. 5719.70   2
   3  -2   5 245490. 5771.86   1
   3  -1   5 243802. 5826.63   2
   3  -2   5 258898. 5834.84   2
  -1  -2   5 259766. 5937.21   1
  -3   1  -5 257102. 5852.51   1
  -2  -1   5 277856. 5913.20   1
   2   1  -5 260017. 5840.83   1
   1   2  -5 269522. 5966.49   1
   3  -1   8 26997.3 1751.98   1
   1   2  -8 24583.7 1614.03   1
  -2  -1   8 23510.8 1594.21   1
   2   1  -8 25782.2 1634.69   1
  -3   1  -8 25025.7 1637.56   1
  -1   3   8 30307.7 1524.03   2
   3  -1   8 24231.8 1571.75   2
   3  -2   8 27753.1 1750.84   1
  -2   3   8 25774.2 1357.11   1
  -1  -2   8 24418.0 1457.78   2
  -2   3   8 24043.2 1166.31   2
  -3   2  -8 25270.9 1646.45   1
  -1  -2   8 23515.0 1624.44   1
  -2  -1   8 24528.9 1345.34   2
   1  -3  -8 22672.2 1331.78   1
   3  -2   8 26194.1 1649.14   2
   2  -3  -8 27811.7 1331.68   1
  -1   3   8 24332.0 1405.76   1
   2  -3  -9 354388. 7253.90   1
  -1   3   9 355406. 7632.77   1
  -2  -1   9 354145. 7350.22   2
  -3   2  -9 358933. 8167.64   1
   3  -1   9 370252. 8371.14   1
  -2   3   9 361438. 7454.67   1
   2   1  -9 350914. 7964.53   1
   3  -2   9 363133. 8258.08   1
   3  -1   9 369205. 8065.65   2
   3  -2   9 349543. 8052.54   2
   1  -3  -9 333708. 7339.62   1
  -1  -2   9 337462. 7666.28   2
   1   2  -9 376873. 8233.02   1
  -3   1  -9 361824. 8141.32   1
  -1  -2   9 360515. 8279.62   1
  -2   3  10 135939. 4029.89   1
  -3   2 -10 138843. 4524.94   1
  -1   3  10 130437. 3842.60   2
   2   1 -10 143838. 4465.05   1
  -2   3  10 125802. 3416.76   2
   2  -3 -10 143030. 3945.85   1
  -1  -2  10 138807. 4610.57   1
   3  -2  10 136210. 4556.86   1
  -1  -2  10 147154. 4266.36   2
  -1   3  10 133273. 4150.59   1
   3  -1  10 134947. 4524.27   1
  -2  -1  10 138775. 3916.33   2
   1   2 -10 134334. 4462.94   1
   3  -2  10 138303. 4454.86   2
  -2  -1  10 133728. 4469.68   1
  -3   1 -10 137423. 4454.66   1
   1  -3 -10 134517. 3993.57   1
   3  -1  10 133886. 4390.33   2
   3  -1  11 25689.2 1780.07   2
   3  -2  11 22332.3 1755.20   1
  -3   1 -11 21431.6 1708.92   1
   1   2 -11 24712.1 1816.22   1
  -2   3  11 23742.1 1328.31   2
   2   1 -11 23056.3 1716.57   1
   3  -1  11 23857.2 1805.88   1
  -1   3  11 21601.8 1421.70   2
  -1  -2  11 21865.0 1765.39   1
   2  -3 -11 23525.9 1573.16   1
  -2   3  11 26453.7 1671.95   1
   3  -2  11 22575.3 1730.59   2
   1  -3 -11 24728.2 1618.56   1
  -2  -1  11 22728.8 1497.02   2
  -3   2 -11 24272.6 1787.39   1
  -2  -1  11 22297.0 1761.02   1
  -1   3  11 23740.9 1659.53   1
  -1  -2  11 21775.8 1602.97   2
  -2   3  12 4010.88 658.717   1
  -1  -2  12 2126.33 580.848   1
   3  -1  12 2341.13 628.646   2
   3  -2  12 2599.14 639.415   2
  -3   2 -12 3172.10 710.673   1
  -1  -2  12 2666.44 533.266   2
  -2  -1  12 2873.88 675.769   1
  -2  -1  12 3324.65 659.862   2
   2  -3 -12 3336.84 610.135   1
   1   2 -12 3414.58 773.268   1
   3  -1  12 2914.45 690.977   1
   1  -3 -12 3914.28 664.764   1
   2   1 -12 2616.40 612.265   1
  -1   3  12 4097.13 682.008   2
   3  -2  12 2923.00 709.401   1
  -1   3  12 3669.66 638.907   1
  -3   1 -12 3326.01 700.169   1
   3  -1  13 17904.8 1637.12   1
   2  -3 -13 16227.5 1400.29   1
   3  -2  13 14532.6 1514.87   2
  -1  -2  13 16195.7 1413.35   2
   3  -1  13 15174.0 1493.60   2
   1   2 -13 13426.7 1429.13   1
  -2   3  13 15260.3 1407.00   1
  -3   2 -13 15232.5 1477.93   1
   1  -3 -13 16705.5 1448.53   1
   3  -2  13 16521.4 1679.82   1
   2   1 -13 15588.2 1482.01   1
  -1   3  13 17891.6 1592.08   1
  -3   1 -13 13814.2 1404.53   1
  -1  -2  13 14802.2 1542.41   1
  -2  -1  13 16653.1 1570.49   1
  -1  -2  14 108892. 4201.09   2
   2   1 -14 113121. 4413.35   1
  -3   1 -14 111423. 4352.31   1
   2  -3 -14 119406. 4261.16   1
   3  -2  14 109283. 4499.89   1
   3  -2  14 103382. 4259.94   2
  -1   3  14 109876. 4323.99   1
   3  -1  14 110702. 4511.18   1
  -2  -1  14 114310. 4555.11   1
  -2   3  14 114630. 4366.33   1
  -3   2 -14 111109. 4418.83   1
   1  -3 -14 110474. 4216.07   1
   1   2 -14 107413. 4337.91   1
   3  -1  14 109062. 4338.57   2
  -1  -2  14 108888. 4545.14   1
   3  -1  15 28247.3 2259.73   1
  -1  -2  15 28628.2 2289.91   1
  -3   1 -15 28779.9 2170.26   1
  -1   3  15 29992.1 2252.90   1
  -2   3  15 26946.2 2063.00   1
   3  -2  15 28131.7 2292.33   1
   1  -3 -15 31721.2 2160.65   1
   2   1 -15 29535.4 2197.57   1
   2  -3 -15 30130.0 2121.25   1
   3  -1  15 29873.8 2200.81   2
   3  -2  15 29947.8 2209.31   2
  -2  -1  15 27967.6 2238.64   1
  -3   2 -15 28886.5 2196.50   1
   1   2 -15 24422.2 2055.08   1
  -1   3  16 110149. 4627.01   1
  -3   1 -16 106436. 4447.46   1
   3  -2  16 104096. 4609.74   1
  -1  -2  16 104576. 4617.85   1
   3  -2  16 107235. 4523.67   2
  -3   2 -16 101484. 4418.15   1
   1  -3 -16 113222. 4463.51   1
  -2   3  16 101877. 4421.71   1
  -2  -1  16 98919.4 4460.91   1
   3  -1  16 113751. 4738.64   1
   3  -1  16 105073. 4477.14   2
   2   1 -16 107044. 4485.29   1
   1   2 -16 106515. 4549.65   1
  -1  -2  17 17467.3 1802.85   1
   3  -1  17 18553.9 1909.98   1
   3  -2  17 18181.2 1851.10   2
   3  -2  17 16799.1 1745.88   1
   2   1 -17 16967.7 1767.30   1
   3  -1  17 16052.4 1742.20   2
   1  -3 -17 15878.2 1677.53   1
  -2  -1  17 19448.5 1936.26   1
   1   2 -17 17771.3 1773.37   1
  -1   3  17 15263.1 1703.56   1
  -3   2 -17 18087.2 1816.56   1
  -3   1 -17 19147.7 1788.74   1
   3  -1  18 203361. 6875.60   2
   1   2 -18 206708. 6862.36   1
   3  -1  18 207571. 6974.92   1
  -2  -1  18 182597. 6782.58   1
  -3   2 -18 212324. 6820.69   1
  -1  -2  18 197586. 6915.20   1
   2   1 -18 192305. 6722.51   1
   3  -2  18 209091. 7027.58   2
  -3   1 -18 211365. 6789.23   1
   3  -2  18 200352. 6947.63   1
   3  -1  19 38246.7 2812.28   1
   2   1 -19 35322.2 2641.56   1
   1   2 -19 33249.3 2578.13   1
  -1  -2  19 33179.0 2701.85   1
   3  -1  19 36355.2 2788.82   2
   3  -2  19 37488.4 2785.06   1
  -3   1 -19 36348.7 2648.01   1
  -3   2 -19 36876.5 2688.42   1
   3  -2  19 36356.1 2750.72   2
   3  -1  20 1887.85 789.101   1
   1   2 -20 1203.83 557.168   1
  -1  -2  20 639.027 410.973   1
  -3   1 -20 2568.91 746.654   1
  -2  -1  20 1397.30 598.567   1
   3  -2  20 581.419 349.103   1
   2   1 -20 2250.65 806.583   1
  -3   2 -20 1196.98 554.869   1
  -2  -1  21 37135.1 2949.51   1
   1   2 -21 40810.0 2937.29   1
   3  -1  21 38844.5 2986.86   1
   3  -2  21 40033.1 2966.61   1
  -3   2 -21 44236.2 2990.77   1
   2   1 -21 37586.0 2854.07   1
  -3   1 -21 36629.5 2790.10   1
   0  -3   1 1188.30 341.384   1
   3   0   1 1634.95 321.448   2
  -3   3   1 1430.28 156.308   1
  -3   3  -1 1273.11 238.047   1
   0   3  -1 1023.72 321.390   1
   0   3   1 990.352 337.454   1
   3   0   1 1133.08 353.025   1
   3   0  -1 1363.90 382.676   1
  -3   0   1 1593.20 371.763   1
   3  -3   1 1530.84 354.980   2
   3  -3  -1 1125.90 132.203   1
   0  -3  -1 1262.41 337.595   1
   0  -3   1 765.902 347.909   2
   3  -3  -1 1221.56 240.383   2
  -3   0  -1 1343.43 376.539   1
   3  -3   1 1225.57 268.824   1
   3   0  -2 28678.8 1358.28   1
   3   0   2 26706.9 1385.30   1
   0  -3   2 24396.1 1304.88   1
   0   3   2 23585.8 1231.38   1
   3  -3   2 30043.0 1234.76   1
  -3   0  -2 26283.8 1365.16   1
   0  -3  -2 23485.1 1220.48   1
   3  -3  -2 28318.1 1082.55   2
   0   3  -2 23054.5 1310.20   1
   0  -3   2 27700.0 1485.95   2
   3  -3   2 27677.3 1334.17   2
  -3   3  -2 26852.6 1187.20   1
   3   0   2 32646.7 1458.48   2
  -3   0   2 25412.1 1282.11   1
   3   0   3 34044.3 1646.36   1
   0   3  -3 33288.5 1621.55   1
   3  -3   3 32645.5 1474.20   1
  -3   3  -3 35241.4 1497.88   1
   0  -3  -3 35246.0 1513.75   1
   3   0  -3 35499.6 1571.40   1
   3  -3   3 36537.9 1616.82   2
   0  -3   3 31763.8 1587.25   2
   3   0   3 36095.9 1624.53   2
   3  -3  -3 35331.2 1210.20   2
  -3   0   3 36474.3 1593.90   1
  -3   0  -3 35793.2 1671.47   1
   0  -3   3 36260.7 1680.45   1
   0   3   3 32526.0 1472.54   1
  -3   3   5 16985.4 675.786   1
   0  -3   5 16578.6 1193.67   2
   3  -3   5 16301.4 1179.44   2
   0   3   5 17020.8 1104.28   1
   3   0   5 14724.7 1149.94   1
   3  -3   5 16604.5 1180.08   1
   0  -3   5 17224.2 1249.33   1
  -3   0   5 15632.3 1107.73   1
   3   0  -5 17166.2 1131.87   1
   3   0   5 18650.1 1214.27   2
  -3   3  -5 15129.6 1117.68   1
  -3   0  -5 17560.6 1231.64   1
   3  -3  -5 17237.3 655.508   1
   0  -3  -5 17148.1 1075.14   1
   0   3  -5 16078.4 1207.67   1
  -3   0  -6 32236.9 1742.92   1
   0   3   6 31683.2 1590.79   1
   3   0   6 27897.4 1623.72   2
   3   0  -6 29733.4 1575.40   1
   0  -3   6 28295.1 1635.29   2
  -3   0   6 32719.3 1682.86   1
   0   3  -6 29757.1 1720.43   1
  -3   3   6 26817.2 1067.73   1
   3  -3   6 28442.2 1648.56   2
  -3   3  -6 27675.3 1647.52   1
   0  -3  -6 31745.3 1560.22   1
   3  -3   6 27946.5 1676.62   1
   3   0   6 29988.3 1702.92   1
   3  -3  -6 30745.6 1089.53   1
   0  -3   6 30313.5 1770.87   1
  -3   3   7 7675.31 625.224   1
   0  -3   7 8689.80 940.178   1
   3  -3   7 7853.36 960.458   1
   3  -3   7 7981.29 906.403   2
  -3   0   7 7636.27 837.980   1
   0   3  -7 9007.75 998.781   1
   3   0   7 7481.74 851.607   1
  -3   3  -7 7665.01 888.550   1
   0   3   7 7927.65 813.322   1
   0  -3  -7 8610.56 781.101   1
   3   0   7 8148.88 900.879   2
   0  -3   7 8622.90 899.566   2
  -3   0  -7 7568.30 875.341   1
   3   0  -7 7521.35 810.273   1
   3  -3  -7 7875.15 608.973   1
   0  -3   8 741832. 13852.8   2
   0  -3  -9 14897.7 1207.87   1
   3   0  -9 14418.8 1235.66   1
   0   3  -9 16164.0 1383.86   1
  -3   3  -9 16116.5 1378.41   1
  -3   0   9 15289.3 1301.64   1
   3  -3   9 16654.1 1386.78   2
  -3   3   9 14367.9 1053.67   1
   0  -3   9 14312.3 1248.01   2
   3  -3   9 14583.6 1383.00   1
   0  -3   9 14902.4 1372.75   1
   3   0   9 16190.5 1398.07   1
   3   0   9 13962.7 1302.53   2
   3  -3  -9 16774.3 1102.04   1
  -3   0  -9 13979.0 1317.89   1
   0   3   9 17305.2 1313.82   2
   0   3   9 16066.4 1270.88   1
  -3   3  10-142.882 167.513   1
   3  -3 -10 205.448 296.455   1
   0   3  10-44.9699 319.792   1
   3   0  10 141.746 279.973   1
  -3   0  10-42.3608 159.251   2
  -3   3 -10 243.586 357.282   1
   0  -3  10 1040.21 438.072   2
   3  -3  10 281.340 310.822   2
  -3   0  10-74.8387 295.706   1
   3   0  10 41.1322 325.184   2
  -3   0 -10 147.891 254.996   1
   0  -3 -10-219.821 294.356   1
   0   3  10 390.237 327.794   2
   0  -3  10 625.706 515.666   1
   3  -3  10 253.096 346.705   1
   0   3 -10 194.938 386.961   1
   3   0 -10 27.8348 299.144   1
   3  -3 -11 61.9986 241.858   1
   0  -3 -11 102.431 242.283   1
  -3   3  11 38.5748 303.608   1
   3  -3  11-182.279 287.188   2
   3   0  11 328.401 383.733   1
  -3   0  11 61.1137 237.933   1
  -3   3 -11 702.390 441.349   1
   3   0  11 402.259 343.841   2
   0  -3  11 948.493 441.451   1
   0  -3  11-322.350 303.938   2
   0   3  11 619.688 308.159   2
   0   3  11 93.0861 259.515   1
   0   3 -11-204.861 350.760   1
  -3   0 -11 259.746 406.452   1
   3  -3  11 289.680 439.291   1
   3   0 -11-185.225 275.706   1
   0   3  12 318189. 7894.71   1
   3  -3  12 295217. 8079.01   1
   3   0  12 302501. 8006.53   1
  -3   0 -12 314402. 7903.94   1
   3   0 -12 325357. 7854.45   1
   0   3 -12 316486. 8081.58   1
   3  -3  12 312983. 7937.85   2
   0  -3  12 307603. 8176.20   1
   0   3  12 320274. 7623.40   2
  -3   3  12 318242. 7562.69   1
  -3   3 -12 300426. 7864.08   1
   0  -3 -12 301725. 7499.71   1
   3   0  12 309520. 7798.29   2
   3  -3 -12 282180. 7141.38   1
   0  -3  12 313676. 7865.38   2
  -3   0  12 317152. 7891.46   1
   3   0 -13 738.425 413.886   1
   0   3  13 880.386 476.545   1
   0  -3  13 581.979 440.688   1
   0   3  13 203.928 357.482   2
   3   0  13-100.430 344.329   1
   0  -3 -13 1132.70 451.920   1
   3  -3 -13 645.685 318.470   1
  -3   3 -13 574.143 558.340   1
  -3   3  13 310.673 258.116   1
   3  -3  13 8.28105 446.310   1
   0  -3  13 626.511 441.605   2
   0   3 -13 513.961 299.676   1
  -3   0 -13 45.2040 404.577   1
   3   0  13 393.416 271.081   2
   3  -3  13 200.625 385.918   2
  -3   0  13 474.999 296.049   1
   0  -3 -14-143.689 339.314   1
  -3   3  14 322.995 306.625   1
   3   0 -14-37.8315 322.389   1
   0   3 -14 171.685 413.920   1
   3  -3  14 718.548 342.784   2
   0  -3  14 97.8064 355.197   1
   0  -3  14 60.0680 331.847   2
  -3   0 -14 287.821 306.936   1
   3   0  14 660.532 400.771   2
   3   0  14 459.695 366.539   1
   0   3  14 430.024 303.396   2
   0   3  14 94.6886 358.273   1
  -3   0  14-240.119 335.779   1
   3  -3  14 245.445 425.520   1
  -3   3 -14 450.672 418.320   1
   3   0 -15 594.038 366.663   1
   0   3  15 867.507 501.419   1
   0  -3 -15 1176.31 530.632   1
   3  -3  15 180.041 405.295   2
   3   0  15 768.040 445.776   2
  -3   0  15 1329.14 598.941   1
  -3   0 -15 84.6194 310.764   1
   3  -3  15 1116.10 554.572   1
   0   3 -15 1575.20 683.761   1
   3   0  15 1034.55 539.689   1
   0  -3  15 502.589 321.587   2
   0  -3  15-40.0927 436.418   1
  -3   3 -15 701.965 371.382   1
  -3   3 -16 230173. 7060.82   1
   3   0  16 214056. 6951.27   1
   0   3 -16 216498. 6891.76   1
  -3   0 -16 224686. 6877.46   1
   0   3  16 209647. 6926.49   1
   0  -3  16 207771. 7055.24   1
   3  -3  16 220137. 7024.23   2
   0  -3 -16 230444. 6855.56   1
   3   0 -16 232722. 7115.38   1
   3   0  16 231091. 7013.86   2
   3  -3  16 215584. 6997.31   1
  -3   0  16 238348. 7207.59   1
  -3   3 -17 911.330 507.514   1
   0   3 -17 1049.97 585.748   1
   3  -3  17 202.609 412.918   1
  -3   0  17 625.610 414.221   1
   3   0  17 1017.48 607.746   2
   3   0 -17 693.611 428.865   1
   3  -3  17 685.239 572.629   2
   0  -3 -17 1006.34 464.977   1
   0  -3  17 1325.97 670.521   1
   3   0  17 341.749 382.971   1
  -3   0 -17 630.659 435.586   1
   0   3  17 399.281 335.345   1
   3  -3  18 557.306 464.694   1
   0  -3  18 2214.63 810.006   1
   0   3  18 1218.72 567.535   1
  -3   0 -18 1071.97 544.838   1
   3   0  18 1302.54 650.588   2
   0  -3 -18 3264.72 900.377   1
   3   0  18 1166.66 560.700   1
  -3   0  18 1233.96 447.999   1
  -3   3 -18 2198.65 717.441   1
   0   3 -18 2035.22 739.385   1
   3   0 -18 1411.94 503.939   1
   3  -3  18 808.912 478.686   2
   3   0  19 317.743 424.946   1
  -3   3 -19 467.500 358.335   1
  -3   0 -19 607.803 504.711   1
   3  -3  19 470.922 728.880   1
   0   3 -19-157.416 535.429   1
   0   3  19 313.158 382.928   1
   0  -3  19-475.004 490.930   1
   3   0 -19-182.701 303.048   1
  -3   0  19 541.514 387.153   1
   3  -3  19 675.433 631.991   2
   3   0  20 114100. 5178.13   1
   3  -3  20 117849. 5271.55   1
  -3   0 -20 114594. 5004.88   1
   0   3 -20 119690. 5184.16   1
  -3   3 -20 117074. 5107.24   1
   0  -3  20 116069. 5300.91   1
  -3   0 -21 1768.83 552.471   1
   0   3 -21 1078.71 722.639   1
   0  -3  21 179.797 429.974   1
   3   0  21 824.738 469.296   1
   2   2  21 257.931 441.744   1
  -2  -2 -21 549.228 475.064   1
   2   2  20 111148. 5125.90   1
  -2  -2 -20 103732. 4814.45   1
  -2   4 -20 123548. 5168.63   1
   2  -4  20 118841. 5330.33   1
  -2  -2 -19 466.591 469.040   1
   2   2  19 205.934 488.486   1
  -2   4 -19-222.651 365.932   1
  -2  -2 -18 11973.8 1504.27   1
  -2   4 -18 15237.9 1675.65   1
   2   2  18 12764.7 1626.41   1
   2  -4  18 13276.4 1660.88   1
   2  -4  18 13341.2 1696.18   2
   2   2  17 211.239 384.182   2
   2  -4  17-52.8348 383.814   2
  -2   4 -17-243.924 474.138   1
   2  -4  17 566.437 455.501   1
   2   2  17-369.446 419.257   1
  -2  -2 -17-72.7253 346.036   1
   2  -4  16 252527. 7659.95   2
   2   2  16 261712. 7668.14   2
  -2  -2 -16 244513. 7311.44   1
  -2   4 -16 254610. 7523.16   1
   2   2  16 234211. 7492.74   1
   2  -4  16 243028. 7652.95   1
   2  -4  15-331.365 356.248   1
  -2  -2 -15 73.6827 355.389   1
  -2   4 -15-760.147 512.137   1
   2   2  15-250.171 402.811   2
   2  -4  15-178.928 386.665   2
   2   2  15 296.395 409.951   1
  -2   4 -14 111037. 4565.77   1
   2  -4  14 108071. 4468.94   2
  -2  -2 -14 122471. 4511.20   1
   2   2  14 113504. 4497.23   2
   2   2  14 109242. 4525.95   1
   2  -4  14 104837. 4528.47   1
   2   2  13 580.131 427.791   2
   2  -4  13 220.292 340.496   1
  -4   2  13 367.517 387.017   1
  -2  -2 -13-19.6531 376.995   1
   4  -2 -13 207.503 212.820   1
  -2   4 -13 381.557 365.579   1
   2   2  13 438.776 494.778   1
   2  -4  13 684.986 421.230   2
   4  -2 -12 94887.2 3556.25   1
   2   2  12 92727.6 3686.98   2
   2   2  12 88790.5 3844.82   1
  -4   2  12 87893.2 3494.93   1
  -2  -2 -12 80770.7 3517.50   1
   2  -4  12 87210.5 3826.50   1
   2  -4  12 87719.2 3767.07   2
  -2   4 -12 87403.7 3815.88   1
   2  -4  11 963.762 577.324   1
  -4   2  11 1661.82 445.673   1
  -2   4 -11-153.657 399.277   1
  -2  -2 -11 513.709 275.138   1
   2   2  11 8.37692 277.036   1
   2   2  11 136.668 305.630   2
   4  -2 -11 210.778 293.485   1
   2  -4  11-445.540 487.210   2
   2   2  10 238227. 6528.04   1
  -4   2  10 251933. 6099.31   1
   2  -4  10 245604. 6752.59   1
   2   2  10 232793. 6321.43   2
  -2   4 -10 251342. 6754.98   1
   2  -4  10 245954. 6585.82   2
  -2  -2 -10 242207. 6428.78   1
   4  -2 -10 253527. 6040.30   1
  -4   2   9 67.5346 194.401   1
   2   2   9 123.458 267.506   2
   2   2   9-394.086 302.838   1
   2  -4   9 1089.83 536.944   1
  -2  -2  -9-68.7981 249.334   1
   4  -2  -9 50.8832 195.535   1
  -2   4  -9-75.4446 384.924   1
   2  -4   9 190.937 339.378   2
   2   2   7 1150.23 394.487   1
  -2   4  -7 458.142 299.957   1
  -2  -2  -7 1029.91 449.180   1
   2   2   7 599.638 391.550   2
  -4   2   7 586.555 278.004   1
   4  -2  -7 277.457 167.224   1
   2  -4   7 836.168 408.914   1
   2  -4   7 680.325 347.109   2
  -4   2   6 815.730 258.549   1
  -2  -2  -6 10.2313 321.467   1
  -2   4  -6 372.870 334.736   1
   2  -4   6 388.708 352.902   2
   2  -4   6 34.2772 226.748   1
   2   2   6 219.673 215.083   1
   4  -2  -6 300.028 227.738   1
  -2   4  -5 376.374 222.081   1
   2   2   5 673.947 261.785   1
   4  -2  -5 415.441 208.335   1
  -2  -2  -5 422.066 276.605   1
   2  -4   5 58.7121 248.952   2
  -4   2   5 117.479 169.789   1
   2  -4   5-69.4116 198.758   1
  -2   4  -4 549809. 10408.0   1
  -2   4  -3 739.451 253.926   1
  -2  -2  -3 696.509 373.514   1
   2   2   3 689.445 303.678   1
   2  -4   3 576.923 312.498   2
  -4   2   3 607.961 198.969   1
   2  -4   3 393.369 234.692   1
   4  -2  -3 469.140 150.094   2
   4  -2  -3 39.3654 133.930   1
  -2   4  -1 758.204 252.829   1
  -4   2   1 976.389 271.371   1
   4  -2  -1 1385.37 283.781   1
   2  -4   1 1270.98 312.526   1
   2  -4   1 900.592 316.248   2
   2   2   1 1372.18 390.893   1
   4  -2  -1 1021.32 277.517   2
  -2  -2  -1 1150.01 401.916   1
  -4   2  -1 87.6780 174.951   1
   4  -2   1-219.997 226.064   1
  -2   4   1 30.9902 173.487   1
  -2  -2   1 280.779 248.341   1
   2  -4  -1 6.58033 127.331   1
   2   2  -1-56.1381 277.362   1
   4  -2   1 57.0816 195.804   2
   2  -4  -1-82.0738 272.271   2
   4  -2   3 363.524 195.078   2
  -4   2  -3 737.616 300.902   1
  -2   4   3 266.340 151.677   1
   4  -2   3 44.8065 208.584   1
   2  -4  -3 209.430 113.005   1
  -2  -2   3 70.6495 270.816   1
   2   2  -3 328.014 270.466   1
  -2  -2   5 376.762 270.082   1
  -4   2  -5 704.712 272.244   1
   2  -4  -5 563.489 218.660   1
  -2   4   5 430.156 243.331   1
   4  -2   5 120.841 341.350   2
   2   2  -5 402.182 308.803   1
   4  -2   5 149.530 220.008   1
   4  -2   6 1043.86 369.687   1
  -2   4   6 172.632 181.483   1
  -4   2  -6-361.328 365.192   1
   4  -2   6 1233.60 428.776   2
   2  -4  -6 213.703 154.034   1
  -2  -2   6-0.52041 282.563   1
   2   2  -6 75.4295 240.754   1
  -2  -2   7 292.414 254.920   1
   4  -2   7 560.728 350.353   2
  -2  -2   7 203.145 199.445   2
   2   2  -7 495.861 354.247   1
   2  -4  -7 113.911 135.323   1
  -2   4   7 306.725 232.012   1
   4  -2   7 785.708 422.599   1
  -4   2  -7-111.109 254.508   1
  -2  -2   9-546.761 315.970   1
   2   2  -9 354.028 384.117   1
  -2  -2   9 334.118 196.116   2
  -4   2  -9 857.360 377.712   1
   4  -2   9-98.2912 308.408   1
  -2   4   9 323.628 297.622   1
   4  -2   9 254.790 292.294   2
   2  -4  -9 426.548 302.576   1
  -2   4   9 439.990 241.171   2
  -2   4  10 73037.0 2760.47   1
   4  -2  10 70598.4 3040.33   2
   2   2 -10 67378.7 3027.09   1
   4  -2  10 71946.9 3175.12   1
  -2  -2  10 71238.7 2848.40   2
  -2  -2  10 68745.4 3117.04   1
  -4   2 -10 69240.6 3035.02   1
   2  -4 -10 80328.6 2779.35   1
   2   2 -11-272.491 314.992   1
   4  -2  11 323.575 400.657   1
  -4   2 -11-0.69575 259.904   1
   4  -2  11 7.53757 347.488   2
  -2   4  11 181.265 271.749   2
   2  -4 -11 95.7539 170.539   1
  -2  -2  11-246.026 284.517   1
  -2  -2  11 142.492 322.568   2
  -2   4  11-79.3741 234.950   1
  -2  -2  12 35681.9 2074.48   2
   2  -4 -12 28135.3 1809.90   1
   2   2 -12 27148.9 2011.20   1
  -4   2 -12 31547.8 2112.26   1
   4  -2  12 32391.9 2168.83   1
  -2  -2  12 29297.3 2117.72   1
  -2   4  12 30613.8 1949.58   1
   4  -2  12 28431.7 2042.32   2
  -2  -2  13-307.155 490.891   1
  -2   4  13 305.286 266.800   1
   2  -4 -13 111.339 218.659   1
  -4   2 -13-116.178 331.330   1
   2   2 -13 697.936 433.106   1
   4  -2  13 72.6932 410.245   1
   4  -2  13 121.660 289.003   2
   4  -2  14 23235.2 2020.96   1
  -2  -2  14 25858.1 2107.68   1
   4  -2  14 22421.2 1910.22   2
   2   2 -14 24023.1 1965.70   1
  -4   2 -14 25290.1 2028.42   1
  -4   2 -15-631.172 421.001   1
   2   2 -15-470.059 413.075   1
  -2  -2  15-456.242 325.176   1
   4  -2  15 453.087 445.162   1
   4  -2  15 904.945 615.617   2
   4  -2  16 452553. 11056.0   1
  -4   2 -16 417827. 10560.6   1
  -2  -2  16 446550. 10989.3   1
   4  -2  16 450197. 10844.9   2
   2   2 -16 409376. 10651.7   1
  -4   2 -17-84.0506 317.702   1
  -2  -2  17 365.971 449.276   1
   4  -2  17-203.323 332.852   2
   2   2 -17-367.428 506.196   1
   4  -2  17 810.893 564.538   1
   2   2 -18 8835.43 1347.07   1
   4  -2  18 7759.08 1253.03   1
   4  -2  18 6499.57 1211.27   2
  -4   2 -18 8198.44 1330.12   1
  -2  -2  18 9138.97 1365.85   1
   4  -2  19-559.753 562.743   1
   2   2 -19-187.052 353.743   1
  -2  -2  19-531.505 426.626   1
   4  -2  19 122.044 381.156   2
  -4   2 -19-484.174 508.399   1
  -4   2 -20 86994.5 4248.71   1
   4  -2  20 69732.3 4115.29   2
   2   2 -20 76101.9 4113.64   1
  -2  -2  20 80692.2 4275.71   1
   4  -2  20 78677.8 4210.25   1
   2   2 -21 426.124 481.332   1
  -2  -2  21-352.253 571.635   1
  -3  -1 -20 28430.9 2347.87   1
  -1   4 -20 28929.9 2484.95   1
   3  -4  20 26537.2 2408.82   1
   1   3  20 22103.1 2234.94   1
   3   1  20 24615.7 2346.60   1
   1  -4  20 27279.8 2459.80   1
  -3   4 -20 27039.0 2361.06   1
  -3   4 -19 8638.21 1321.97   1
   1   3  19 7470.33 1287.14   1
   3   1  19 7248.00 1212.02   1
   3  -4  19 6945.77 1223.21   1
  -3  -1 -19 7997.14 1228.91   1
  -1   4 -19 7647.41 1295.26   1
   3  -4  19 6908.36 1278.84   2
   1  -4  19 7905.62 1310.63   1
  -1  -3 -19 6791.00 1162.91   1
  -3  -1 -18 101344. 4516.42   1
   3   1  18 98999.2 4622.58   1
   1  -4  18 105888. 4934.44   1
   3  -4  18 103719. 4804.57   2
   3  -4  18 100712. 4758.01   1
  -1  -3 -18 92931.5 4362.23   1
  -1   4 -18 107643. 4791.22   1
   3   1  18 101664. 4748.89   2
   1   3  18 100706. 4651.90   1
  -3   4 -18 111404. 4836.17   1
   1   3  17 5827.99 1123.40   1
  -1  -3 -17 3334.94 868.378   1
   3   1  17 3592.03 839.346   1
  -3   4 -17 4945.54 925.845   1
   3   1  17 4894.89 1004.60   2
   1  -4  17 3708.61 906.758   2
  -1   4 -17 4131.33 939.631   1
  -3  -1 -17 4104.22 875.092   1
   1  -4  17 4327.69 998.236   1
   3  -4  17 5327.15 1023.58   2
   3  -4  17 4098.61 935.254   1
  -4   1  16 1622.56 675.935   1
   1   3  16 1566.73 582.401   1
  -3   4 -16 678.746 336.937   1
  -3  -1 -16 736.709 487.063   1
   1  -4  16 523.328 404.083   2
  -1  -3 -16 1100.01 508.865   1
   3   1  16 1533.46 587.801   1
  -1   4 -16 920.131 457.916   1
   3  -4  16 1767.85 734.772   2
   3  -4  16 1503.72 713.457   1
   1  -4  16 473.370 372.257   1
   3   1  16 888.595 398.618   2
  -1  -3 -15 93087.1 3932.69   1
   1   3  15 84527.6 3977.28   1
   4  -1 -15 90939.4 3975.59   1
   3   1  15 86218.8 4117.58   1
  -1   4 -15 84584.3 4011.36   1
  -4   1  15 89427.1 4054.92   1
   3  -4  15 86519.9 4123.08   2
   1  -4  15 94868.0 4211.64   2
   3  -4  15 89463.8 4186.93   1
   1   3  15 80071.1 3890.00   2
   1  -4  15 81950.0 4069.75   1
  -3   4 -15 84733.2 4031.57   1
  -3  -1 -15 83768.4 3854.01   1
   3   1  15 84538.3 3955.16   2
   3   1  14 58652.3 3119.60   2
   1  -4  14 59774.9 3302.27   1
  -3  -1 -14 63512.7 3242.67   1
  -4   1  14 62741.3 3176.56   1
   1  -4  14 66307.0 3406.59   2
   3  -4  14 59177.2 3310.15   1
   3  -4  14 62197.1 3277.98   2
  -1  -3 -14 57715.1 3029.58   1
   1   3  14 63478.7 3236.45   2
   1   3  14 61988.5 3307.99   1
   3   1  14 60163.4 3277.40   1
   4  -1 -14 65738.7 3209.87   1
  -1   4 -14 62565.3 3307.72   1
  -3   4 -14 57689.8 3224.80   1
   1  -4  13 214939. 6444.01   2
   1   3  13 207974. 6380.81   1
   3   1  13 208536. 6356.13   2
   1   3  13 214941. 6297.68   2
   3   1  13 201050. 6422.91   1
  -4   1  13 217874. 6337.99   1
   3  -4  13 193356. 6429.35   1
   3  -4  13 208686. 6440.95   2
  -1   4 -13 200022. 6358.85   1
   1  -4  13 204567. 6544.47   1
  -3  -1 -13 217622. 6297.07   1
   4  -1 -13 235941. 6393.69   1
  -1  -3 -13 207895. 6169.31   1
  -3   4 -13 213380. 6537.25   1
   3   1  12 22258.6 1790.21   2
   4  -1 -12 19958.9 1617.54   1
  -4   1  12 20972.0 1648.97   1
  -1   4 -12 23722.3 1905.71   1
  -1  -3 -12 20397.5 1655.58   1
  -4   3  12 18509.2 1517.80   1
  -3  -1 -12 22309.0 1741.90   1
   1  -4  12 19115.1 1712.48   2
   1  -4  12 21169.9 1856.15   1
   3   1  12 19387.6 1725.61   1
   1   3  12 20944.9 1684.17   2
  -3   4 -12 22217.9 1830.89   1
   3  -4  12 21414.2 1808.05   2
   3  -4  12 21679.1 1797.65   1
   1   3  12 20750.3 1735.47   1
   1  -4  11 15305.2 1535.81   1
   3  -4  11 16587.5 1589.99   1
   3   1  11 13505.9 1412.96   2
   1   3  11 15030.7 1364.84   2
   3  -4  11 16425.0 1573.12   2
  -1   4 -11 14248.5 1459.61   1
  -3  -1 -11 17763.5 1576.83   1
   3   1  11 16859.2 1557.67   1
  -4   1  11 16582.4 1445.01   1
  -3   4 -11 16251.6 1517.88   1
  -1  -3 -11 15247.0 1365.47   1
   4  -1 -11 17299.6 1441.84   1
   1   3  11 13675.2 1339.68   1
   1  -4  11 14659.7 1463.27   2
  -4   3  11 15063.4 1283.57   1
   4  -3 -11 18568.6 1337.06   1
  -3   4 -10 520864. 11389.7   1
   3   1  10 523386. 11021.0   2
   1  -4  10 542431. 11584.7   1
   3  -4  10 523308. 11382.4   1
  -4   1  10 492331. 10742.2   1
  -3  -1 -10 544580. 11238.4   1
   4  -3 -10 497863. 10046.2   1
   4  -1 -10 549809. 10882.8   1
   1   3  10 558087. 11212.6   1
  -1   4 -10 536895. 11397.6   1
   1   3  10 548542. 11234.7   2
   3   1  10 545222. 11413.6   1
   1  -4  10 531794. 11281.4   2
   3  -4  10 507202. 11194.0   2
  -1  -3 -10 508562. 10843.9   1
   3  -4   9 2073.95 556.868   2
   4  -1  -9 2328.91 484.134   1
   1  -4   9 2273.58 676.327   1
   4  -3  -9 1608.51 395.662   1
  -4   1   9 1630.27 441.271   1
   1  -4   9 1943.41 543.091   2
  -4   3   9 1316.75 330.574   1
  -3  -1  -9 1572.43 488.652   1
   1   3   9 950.569 399.551   1
   3   1   9 1137.12 450.226   1
  -1  -3  -9 1259.91 345.871   1
  -1   4  -9 1032.77 432.389   1
   3  -4   9 1949.94 547.977   1
  -3   4  -9 2241.72 650.943   1
   1   3   9 1907.57 598.154   2
   3   1   9 2566.38 575.108   2
   3  -4   8 230204. 6153.47   2
  -1   4  -8 215726. 6033.56   1
  -3   4  -8 222683. 6064.87   1
   3   1   8 227481. 6115.06   1
  -4   1   8 225959. 5681.82   1
  -3  -1  -8 220022. 6006.22   1
   4  -3  -8 236202. 4979.69   1
   1   3   8 220448. 5834.66   1
   3   1   8 241006. 6078.76   2
  -1  -3  -8 222214. 5785.76   1
   1  -4   8 221544. 6036.43   2
   4  -1  -8 259270. 5825.48   1
   1  -4   8 217263. 6154.29   1
   1   3   8 242351. 6106.14   2
   3  -4   8 226076. 6143.82   1
  -4   3   8 249608. 5131.92   1
  -3  -1  -7 265559. 6615.77   1
  -3   4  -7 268528. 6608.48   1
   4  -3  -7 268591. 5338.42   1
   3   1   7 272393. 6648.82   1
   1  -4   7 272145. 6706.51   2
   3   1   7 286262. 6667.79   2
   4  -1  -7 265605. 6098.93   1
   1  -4   7 267127. 6756.97   1
  -1  -3  -7 276950. 6432.62   1
  -1   4  -7 256374. 6617.35   1
  -4   1   7 284077. 6287.73   1
  -4   3   7 271807. 5380.46   1
   3  -4   7 268740. 6643.10   1
   3  -4   7 246567. 6521.79   2
   1   3   7 282425. 6557.90   1
   3   1   6 325887. 7463.20   1
  -4   1   6 296033. 6860.45   1
   1   3   6 309829. 7195.31   1
  -3  -1  -6 341001. 7505.42   1
   3   1   6 366119. 7617.71   2
  -1  -3  -6 363836. 7403.99   1
   3  -4   6 354185. 7588.42   2
   1  -4   6 340792. 7646.39   1
  -3   4  -6 313304. 7385.38   1
   4  -1  -6 306182. 6814.25   1
   1  -4   6 347539. 7598.80   2
  -1   4  -6 319313. 7474.73   1
   3  -4   6 345386. 7537.98   1
  -1  -3  -5 273731. 6190.75   1
   3   1   5 264504. 6398.73   1
  -3  -1  -5 272578. 6344.81   1
  -4   1   5 276956. 5938.80   1
   1   3   5 268370. 6178.51   1
   4  -1  -5 260407. 5812.16   1
   3  -4   5 276513. 6213.90   1
   1  -4   5 271930. 6449.54   2
  -3   4  -5 268768. 6247.15   1
   3   1   5 282902. 6499.24   2
  -4   3   5 264695. 4834.52   1
  -1   4  -5 279200. 6422.28   1
   3  -4   5 260658. 6336.84   2
   1   3   4 9204.52 883.194   1
  -3  -1  -4 7836.33 845.884   1
   4  -1  -4 8925.35 800.552   1
   1  -4   4 8745.49 891.074   2
  -1  -3  -4 8358.70 859.476   1
   4  -3  -4 8378.22 472.909   2
  -4   3   4 8378.13 455.681   1
   4  -3  -4 8012.56 412.728   1
   3  -4   4 8942.98 909.708   2
   3   1   4 7372.21 844.418   1
  -1   4  -4 9033.28 891.681   1
   1  -4   4 9600.72 906.206   1
   3   1   4 8702.54 896.122   2
  -4   1   4 8590.03 770.033   1
   4  -1  -4 8114.77 593.524   2
  -3   4  -4 8360.80 822.555   1
   3  -4   4 8289.44 827.157   1
   1   3   3 127068. 3672.38   1
  -3   4  -3 124273. 3433.92   1
   3   1   3 121900. 3725.04   1
  -1  -3  -3 125330. 3656.70   1
  -4   1   3 133905. 3448.09   1
   1  -4   3 114665. 3513.18   1
   4  -3  -3 143090. 2854.46   2
   3  -4   3 132143. 3500.21   1
  -1   4  -3 129077. 3699.09   1
   3  -4   3 132593. 3820.11   2
   1  -4   3 139385. 3930.34   2
   4  -1  -3 130480. 3376.85   1
  -3  -1  -3 123372. 3744.08   1
  -4   3   3 124989. 2451.12   1
   4  -1  -3 122129. 3038.94   2
  -3  -1  -2 524596. 10136.5   1
   1   3   0 43681.6 1914.58   1
   3  -4   0 50506.4 1925.91   2
  -4   1   0 41484.6 1769.50   1
  -1  -3   0 40864.6 1848.12   1
  -3   4   0 44089.7 1385.72   1
  -4   3   0 48511.8 1483.57   1
   4  -1   0 44600.8 1721.58   2
   1  -4   0 42804.5 1711.29   1
   4  -1   0 41537.7 1742.91   1
  -1   4   0 44243.5 1771.18   1
  -3  -1   0 45386.8 1976.99   1
   1  -4   0 48449.6 2118.65   2
   4  -3   0 42744.7 1663.74   2
   3   1   0 46420.4 2010.50   1
   4  -3   0 39098.3 1371.04   1
   1   3  -1 329348. 7212.06   1
   4  -1   1 345328. 6879.21   2
  -4   1  -1 355335. 7082.13   1
  -3  -1   1 344122. 7257.15   1
   3  -4  -1 356857. 6971.63   2
   3  -4  -3 38183.6 1547.71   2
   1   3  -3 30088.7 1663.16   1
   1  -4  -3 31461.0 1393.99   1
   4  -3   3 34522.7 1680.14   2
   4  -1   3 30838.5 1617.40   1
  -4   3  -3 26707.4 1410.32   1
   4  -3   3 30288.0 1484.12   1
  -4   1  -3 31097.6 1596.69   1
  -1  -3   3 30765.6 1684.89   1
   4  -1   3 30171.2 1577.98   2
  -3  -1   3 28318.9 1568.99   1
   3   1  -3 32507.9 1683.00   1
  -1   4   3 37051.6 1508.22   1
  -1   4   4 286871. 5788.34   1
   4  -3   4 271540. 6302.36   2
   1   3  -4 290978. 6542.78   1
  -3  -1   4 272093. 6323.46   1
  -4   3  -4 276922. 6146.50   1
  -1  -3   4 280413. 6448.88   1
  -1  -3   4 278947. 6454.48   2
   4  -3   4 275392. 6213.49   1
   3   1  -4 266818. 6277.62   1
  -4   1  -4 288257. 6426.18   1
   4  -1   4 301441. 6435.78   1
   4  -1   4 281649. 6235.22   2
   4  -3   5 30290.1 1663.94   1
  -3   4   5 27427.4 853.198   1
   1   3  -5 30607.3 1728.97   1
   4  -1   5 26852.7 1625.38   1
  -4   3  -5 29695.3 1642.80   1
  -1   4   5 28843.8 1413.88   1
  -3  -1   5 34707.6 1847.36   1
   4  -1   5 29888.3 1669.58   2
   3  -4  -5 28334.0 804.622   1
  -1  -3   5 35399.4 1828.91   1
  -1  -3   5 31750.0 1749.04   2
   3   1  -5 27070.7 1624.85   1
   4  -3   5 31960.7 1717.33   2
  -4   1  -5 35258.7 1834.75   1
   1  -4  -5 35066.5 1508.05   1
  -1  -3   6 657254. 12449.7   2
   4  -1   7 188559. 5156.72   1
  -3   4   7 170797. 3755.28   1
   4  -3   7 187925. 5115.32   1
  -4   1  -7 179900. 5017.79   1
   4  -3   7 164300. 4927.37   2
  -1   4   7 194378. 4622.08   1
  -4   3  -7 175711. 4932.81   1
   4  -1   7 175389. 4985.44   2
  -1  -3   7 174811. 4871.28   2
  -1  -3   7 183149. 5141.30   1
   3   1  -7 162093. 4741.33   1
  -3  -1   7 181180. 5005.65   1
   3  -4  -7 178223. 3675.24   1
   1   3  -7 176704. 5044.74   1
   1  -4  -7 168015. 4333.29   1
  -1   4   8 19684.0 1317.29   1
  -3   4   8 21040.8 1124.71   1
  -4   3  -8 18723.7 1492.46   1
   4  -1   8 20653.8 1544.53   2
   3  -4  -8 19402.7 1025.58   1
  -1  -3   8 21227.7 1518.35   2
  -4   1  -8 21790.2 1582.24   1
   1   3  -8 20747.2 1552.68   1
   1  -4  -8 21375.7 1330.87   1
  -1  -3   8 17868.2 1464.79   1
   4  -3   8 20484.7 1537.00   2
  -3  -1   8 19569.4 1482.07   1
   4  -3   8 19977.5 1590.83   1
   3   1  -8 20202.5 1466.78   1
   4  -1   8 21429.7 1636.26   1
  -1  -3   9 305121. 6985.91   2
  -4   3  -9 322486. 7297.14   1
   4  -1   9 303694. 7202.66   1
  -3  -1   9 289821. 6964.83   1
   1  -4  -9 300198. 6407.34   1
   3  -4  -9 320438. 5901.97   1
  -1  -3   9 305739. 7235.20   1
   4  -1   9 317502. 7145.29   2
   4  -3   9 306837. 7185.26   2
  -4   1  -9 316681. 7211.04   1
  -3   4   9 322967. 6055.28   1
   3   1  -9 320741. 7115.29   1
  -1   4   9 324234. 6709.60   1
   4  -3   9 314939. 7284.55   1
   1   3  -9 315374. 7266.90   1
   4  -3  10 100647. 3895.30   2
  -3   4  10 107847. 3350.04   1
   3  -4 -10 120859. 3394.49   1
  -4   1 -10 99069.0 3836.81   1
   3   1 -10 98758.5 3776.35   1
  -4   3 -10 104197. 4005.71   1
  -1   4  10 115056. 3784.09   1
   1  -4 -10 127250. 3802.75   1
   4  -3  10 100781. 3972.94   1
  -1  -3  10 106648. 3920.22   2
   4  -1  10 102019. 4011.92   1
   4  -1  10 101304. 3855.83   2
  -1  -3  10 103764. 4028.68   1
   1   3 -10 102089. 3975.08   1
  -1   4  10 91926.7 3488.06   2
  -3  -1  10 109184. 4025.25   1
  -3   4  11 105120. 3506.69   1
   4  -1  11 102915. 3942.56   2
   4  -1  11 108667. 4161.23   1
   3  -4 -11 103418. 3346.61   1
   4  -3  11 100403. 3945.80   2
  -3  -1  11 106076. 4055.69   1
   4  -3  11 102430. 4101.94   1
  -1  -3  11 97447.1 3822.81   2
   1  -4 -11 95387.6 3492.32   1
  -1  -3  11 95898.5 3995.97   1
  -1   4  11 109193. 3788.66   1
  -1   4  11 101259. 3604.61   2
  -4   3 -11 98115.4 3946.70   1
   3   1 -11 99801.7 3883.72   1
   1   3 -11 95770.1 3942.43   1
  -4   1 -11 104459. 3981.42   1
   3   1 -12 2700.41 671.741   1
   4  -3  12 3474.40 838.620   1
   4  -1  12 2596.88 743.076   1
  -4   3 -12 3261.79 729.005   1
   4  -1  12 2385.17 678.255   2
   4  -3  12 2871.00 658.206   2
  -4   1 -12 2381.94 618.226   1
  -1   4  12 2245.37 513.226   2
  -3  -1  12 3297.22 785.882   1
   1   3 -12 2640.43 677.912   1
  -1  -3  12 2603.08 761.037   1
  -1   4  12 2516.62 573.707   1
  -1  -3  12 2349.18 597.247   2
   1  -4 -12 2209.14 588.559   1
  -3  -1  13 3753.31 806.519   1
  -1   4  13 5170.10 877.008   1
   1   3 -13 4818.13 930.912   1
   1  -4 -13 4329.12 750.601   1
  -4   3 -13 4247.26 867.369   1
   4  -1  13 5033.38 965.333   1
  -4   1 -13 3929.52 803.342   1
   4  -3  13 1591.55 613.650   1
   3   1 -13 4595.11 853.183   1
   4  -3  13 4151.19 892.753   2
   4  -1  13 3512.61 812.488   2
  -1  -3  13 3992.78 801.259   2
   4  -1  14 240808. 7100.26   2
  -4   3 -14 242896. 7140.31   1
   1  -4 -14 235811. 6671.83   1
   1   3 -14 227572. 7020.02   1
  -4   1 -14 242749. 6994.78   1
  -3  -1  14 241947. 7140.59   1
   3   1 -14 245018. 7075.51   1
   4  -1  14 237829. 7201.76   1
  -1   4  14 265141. 7159.54   1
  -1  -3  14 236850. 6918.66   2
   4  -3  14 238785. 7340.59   1
   4  -3  14 248041. 7185.45   2
   4  -1  15 34443.1 2506.90   1
   4  -1  15 35557.5 2407.26   2
  -4   3 -15 35630.6 2526.06   1
   3   1 -15 38773.6 2535.48   1
   4  -3  15 33524.5 2460.93   2
   1   3 -15 31337.0 2393.61   1
  -1   4  15 36785.9 2463.11   1
   4  -3  15 36336.9 2583.34   1
  -3  -1  15 36593.2 2552.06   1
  -4   1 -15 35913.3 2453.01   1
  -4   3 -16 79196.4 3724.15   1
  -4   1 -16 76422.7 3739.84   1
  -3  -1  16 74061.7 3797.23   1
   3   1 -16 76268.5 3752.89   1
   4  -1  16 69082.5 3629.08   2
   4  -3  16 71133.7 3708.84   1
   4  -3  16 63196.8 3558.46   2
   1   3 -16 69127.9 3657.57   1
  -1  -3  16 75507.2 3882.19   1
   4  -1  16 76935.3 3821.92   1
   4  -1  17 64803.2 3634.93   1
   3   1 -17 62353.9 3509.68   1
  -1  -3  17 65950.7 3635.72   1
  -4   3 -17 66547.4 3523.04   1
  -3  -1  17 65566.4 3670.46   1
  -4   1 -17 65049.1 3487.19   1
   4  -3  17 65570.1 3617.76   1
   4  -3  17 64734.8 3601.29   2
   1   3 -17 62800.9 3499.29   1
   4  -1  17 66078.5 3659.39   2
  -4   1 -18 88558.2 4222.48   1
  -4   3 -18 85871.2 4188.08   1
   4  -1  18 84868.0 4254.84   1
   4  -3  18 86618.2 4299.39   2
   4  -3  18 86479.6 4344.81   1
  -3  -1  18 85219.2 4297.55   1
   1   3 -18 80422.7 4135.40   1
  -1  -3  18 83887.8 4269.61   1
   4  -1  18 80701.3 4125.50   2
   3   1 -18 81053.1 4123.75   1
  -1  -3  19 9725.44 1388.73   1
  -4   3 -19 10858.5 1485.79   1
   4  -1  19 11162.7 1517.90   1
  -3  -1  19 7593.83 1267.62   1
   3   1 -19 6899.63 1236.26   1
   4  -1  19 6514.82 1224.93   2
   4  -3  19 9466.06 1445.93   1
   1   3 -19 9931.60 1457.21   1
  -4   1 -19 8725.52 1306.44   1
   4  -3  19 9396.35 1460.46   2
   1   3 -20 89.1841 479.391   1
  -4   3 -20 131.207 331.230   1
  -3  -1  20 330.625 496.474   1
  -4   1 -20 932.892 512.245   1
   4  -1  20 604.654 523.021   2
  -1  -3  20-232.735 546.814   1
   4  -3  20 704.793 505.823   2
   4  -3  20-352.601 634.079   1
   3   1 -20 136.249 310.598   1
   4  -1  20 163.167 349.510   1
   4  -4   0 43874.3 1371.97   1
  -4   4   0 40450.1 1355.22   1
   4   0   0 42604.7 1934.35   1
   0   4   0 41399.7 1900.65   1
   4  -4   0 38746.4 1700.11   2
  -4   0   0 43004.3 1941.41   1
   0  -4   1 311594. 6854.10   1
   0   4   1 316047. 6839.37   1
   4  -4   1 319649. 6707.66   2
   4   0  -1 317388. 6858.78   1
   0  -4  -1 328537. 6821.64   1
  -4   0  -1 318261. 6963.51   1
   4   0   1 317479. 6929.05   1
   0   4  -1 307772. 6863.11   1
  -4   0   1 325922. 6968.97   1
   0  -4   3 455776. 9192.31   1
  -4   0   3 468320. 9076.91   1
  -4   0  -3 465153. 9294.57   1
   0  -4  -3 437039. 8789.78   1
   0  -4   4 181241. 4973.79   2
   0  -4  -4 171279. 4444.53   1
  -4   4  -4 168202. 4476.81   1
  -4   0  -4 174943. 4782.63   1
   0   4   4 170443. 4486.75   1
   4  -4   4 178578. 4816.71   2
   4   0  -4 185795. 4694.96   1
   4  -4  -4 182847. 3923.82   2
   4   0   4 189213. 4810.35   2
   4   0   4 187366. 4914.73   1
  -4   0   4 170475. 4577.28   1
   0   4  -4 174113. 4856.67   1
   4  -4   4 171868. 4517.46   1
   0  -4   4 186225. 4904.82   1
   4  -4   5 29876.9 1709.38   1
  -4   0   5 27980.5 1641.07   1
   0  -4   5 28202.9 1733.16   1
   4   0   5 29863.4 1764.37   1
   0  -4   5 29575.6 1778.80   2
   4   0  -5 28044.5 1625.21   1
  -4   0  -5 28141.9 1711.90   1
  -4   4  -5 28356.6 1641.69   1
   0   4   5 28744.5 1626.26   1
   0   4  -5 27647.2 1704.66   1
   4   0   5 30389.1 1738.75   2
   4  -4   5 27413.5 1725.44   2
   0  -4  -5 29818.0 1600.35   1
   0  -4   6 30039.0 1839.39   2
   0   4   6 29795.0 1669.31   1
  -4   4  -6 27286.1 1726.23   1
   4   0   6 27784.6 1754.13   2
   4   0   6 30388.2 1844.54   1
   4  -4   6 32746.8 1930.02   2
  -4   0  -6 28388.3 1804.03   1
   0  -4  -6 27887.1 1567.55   1
   0   4  -6 27855.1 1804.27   1
   4  -4   6 30624.9 1817.54   1
   4   0  -6 29398.1 1717.19   1
  -4   0   6 25742.5 1595.12   1
   0  -4   6 24932.8 1725.90   1
   4  -4  -7 13170.8 640.364   1
   0   4  -7 12730.5 1237.20   1
  -4   4  -7 14269.5 1279.37   1
   4   0   7 16508.9 1333.33   1
   0   4   7 16550.6 1276.43   1
   0  -4  -7 15683.4 1202.62   1
   0  -4   7 14980.7 1322.38   2
   4   0  -7 14961.8 1247.04   1
   4   0   7 14042.5 1277.08   2
   0  -4   7 14131.9 1314.28   1
   4  -4   7 15682.1 1358.27   1
  -4   0  -7 15094.0 1342.97   1
  -4   0   7 13008.5 1172.20   1
   4  -4   7 15503.9 1357.36   2
  -4   4   7 14399.3 706.182   1
  -4   0   8 5275.25 764.263   1
   0   4   8 5058.81 766.747   1
   0   4  -8 6112.88 889.719   1
   4  -4   8 4449.09 791.209   1
   4   0   8 5960.32 883.906   1
   4   0   8 4817.96 785.347   2
   4  -4   8 4875.70 820.755   2
  -4   4  -8 6075.79 854.749   1
   4   0  -8 5278.41 756.118   1
  -4   0  -8 5999.32 820.434   1
   0  -4  -8 5211.37 712.947   1
   0  -4   8 4296.84 699.757   2
   0  -4   8 4666.66 831.753   1
  -4   4  -9 66873.2 3052.49   1
   4  -4   9 68651.5 3141.14   2
   0  -4   9 72106.6 3142.72   2
   4   0   9 69120.6 3120.09   1
   0  -4  -9 74400.3 2885.35   1
   4   0  -9 69821.2 2939.18   1
  -4   0  -9 72192.0 3107.88   1
  -4   0   9 66848.7 2935.05   1
   0   4  -9 75012.4 3241.96   1
   4  -4   9 69468.1 3194.07   1
   4   0   9 78094.3 3121.50   2
   0   4   9 68478.9 2891.66   1
   0  -4   9 70586.5 3196.60   1
   4  -4  10 346867. 8638.90   1
   4   0 -10 384548. 8423.06   1
  -4   4 -10 336598. 8457.10   1
  -4   0  10 344353. 8281.20   1
   4  -4  10 350372. 8589.02   2
   0  -4  10 347174. 8501.27   2
  -4   0 -10 349996. 8483.65   1
   0  -4  10 343541. 8603.37   1
   0  -4 -10 362431. 8082.13   1
   0   4 -10 341042. 8539.69   1
   4   0  10 354995. 8482.34   2
   0   4  10 334624. 8280.63   2
   0   4  10 357958. 8246.56   1
   4   0  10 359733. 8619.46   1
   0  -4  11 269807. 7272.39   2
  -4   4 -11 268065. 7319.52   1
   0  -4 -11 269314. 6850.62   1
   4   0  11 278616. 7428.48   1
   0   4  11 263655. 6964.72   1
   0   4  11 259811. 7018.16   2
  -4   0 -11 270824. 7205.34   1
  -4   0  11 282296. 7271.02   1
   4   0  11 291809. 7425.42   2
   4  -4  11 261748. 7379.28   1
   4  -4  11 268138. 7300.52   2
   4   0 -11 265666. 7027.68   1
   0   4 -11 269617. 7398.68   1
   4   0  12 70958.8 3442.66   1
   4  -4  12 70302.8 3453.02   1
   0   4  12 74726.3 3328.36   2
   4   0 -12 73711.3 3333.41   1
   4   0  12 63262.4 3239.61   2
   4  -4  12 68692.7 3345.87   2
   0  -4  12 71784.0 3487.82   1
  -4   0 -12 72757.7 3282.68   1
   0  -4 -12 66333.8 3076.14   1
   0  -4  12 65285.6 3320.87   2
   0   4  12 73281.1 3332.01   1
   0   4 -12 70520.5 3414.53   1
  -4   4 -12 63437.2 3253.07   1
  -4   0  12 76354.8 3422.19   1
   4  -4  13 123827. 4919.59   1
  -4   4 -13 132137. 4902.65   1
   0  -4  13 134020. 4955.46   2
   4   0  13 129629. 4904.89   1
   4  -4  13 131581. 4908.07   2
  -4   0 -13 132217. 4739.80   1
   0   4  13 123197. 4583.77   2
   0   4 -13 109402. 4619.83   1
  -4   0  13 133955. 4894.83   1
   0  -4  13 125555. 4958.18   1
   4   0  13 138619. 4923.96   2
   0   4  13 127098. 4712.98   1
   4   0 -13 137279. 4839.29   1
   0  -4 -13 132297. 4639.17   1
   0  -4 -14 311927. 7832.27   1
  -4   0  14 288245. 7991.84   1
   4   0  14 265223. 7852.66   1
   0   4 -14 276859. 7964.94   1
   0   4  14 275413. 7853.62   1
   4   0  14 293344. 7930.21   2
  -4   0 -14 277012. 7701.61   1
   4   0 -14 286098. 7856.57   1
  -4   4 -14 279670. 7885.25   1
   4  -4  14 279021. 7946.15   2
   4  -4  14 279541. 8015.16   1
   0  -4  14 259750. 7818.43   2
   0   4  14 270421. 7640.53   2
   0  -4  14 283980. 8132.52   1
  -4   4 -15 16551.2 1737.09   1
   4   0  15 17518.9 1804.35   1
   4   0  15 15713.9 1649.51   2
  -4   0 -15 17391.3 1623.43   1
   0  -4 -15 17667.4 1663.11   1
   0  -4  15 18523.2 1837.37   2
  -4   0  15 17165.9 1780.26   1
   4   0 -15 17515.8 1734.70   1
   0   4 -15 15877.2 1663.87   1
   4  -4  15 17389.3 1799.53   2
   4  -4  15 17191.2 1833.48   1
   0   4  15 15985.3 1649.84   1
   0  -4  15 16165.6 1810.05   1
  -4   4 -16 6838.98 1144.09   1
   4   0  16 7525.83 1228.58   1
  -4   0 -16 7195.65 1139.71   1
   4   0  16 7177.32 1132.45   2
   0  -4  16 7375.88 1238.72   1
   0   4 -16 7789.06 1232.56   1
  -4   0  16 10495.4 1376.77   1
   0  -4 -16 7548.38 1173.95   1
   0  -4  16 7026.37 1195.60   2
   4  -4  16 7085.63 1198.54   1
   0   4  16 8719.70 1316.94   1
   4  -4  16 7077.06 1236.74   2
   4   0 -16 8172.47 1275.46   1
   4   0  17 6035.91 1123.97   2
   4  -4  17 5682.42 1055.86   1
  -4   0 -17 6451.67 1069.63   1
   4   0  17 5930.27 1133.97   1
  -4   0  17 8205.23 1312.57   1
   4  -4  17 6290.67 1175.83   2
   0   4  17 7184.38 1156.94   1
   0   4 -17 8225.24 1280.42   1
  -4   4 -17 6212.98 1096.52   1
   4   0 -17 6144.73 1099.61   1
   0   4 -18 16985.9 1872.60   1
  -4   0 -18 18068.6 1829.38   1
  -4   0  18 18474.8 1956.82   1
   4  -4  18 17708.5 1905.98   2
  -4   4 -18 17309.6 1823.62   1
   4   0  18 15737.1 1834.20   1
   4   0  18 14196.7 1815.15   2
   4  -4  18 16057.1 1830.36   1
  -4   4 -19 19991.5 2059.11   1
   4   0  19 17911.4 1920.79   1
   0  -4  19 19937.3 2009.55   1
   4   0  19 13973.6 1899.06   2
   0   4 -19 18174.7 2003.47   1
   4  -4  19 18069.4 1954.82   1
   4  -4  19 14683.3 1797.29   2
  -4   0 -19 17175.0 1790.71   1
  -4   4 -20 3837.28 929.651   1
   4  -4  20 4130.52 962.399   2
   4  -4  20 5168.79 1141.23   1
   0  -4  20 6587.12 1218.60   1
   4   0  20 5376.85 1100.27   1
   0   4 -20 4026.31 1011.26   1
  -4   0 -20 5235.28 1014.89   1
   2   3  20 5241.25 1110.67   1
  -2  -3 -20 7298.29 1243.78   1
  -3  -2 -20 6202.29 1134.15   1
   3   2  20 6470.45 1136.51   1
   3  -5  19 20875.7 2043.63   1
   2   3  19 15297.9 1813.60   1
   3   2  19 18578.3 1956.37   1
  -3   5 -19 20656.9 2049.20   1
  -3  -2 -19 17674.7 1840.16   1
  -2   5 -19 21409.9 2056.32   1
   2  -5  19 18090.5 2004.18   1
   3  -5  19 18617.8 2038.24   2
  -2  -3 -19 13735.8 1650.54   1
   2   3  18 84796.0 4253.93   1
  -2  -3 -18 74543.8 3898.55   1
  -3  -2 -18 80314.2 4002.96   1
   2  -5  18 88117.4 4394.54   1
   3  -5  18 94608.5 4527.26   1
   3  -5  18 83646.0 4370.41   2
   2  -5  18 75946.4 4206.15   2
   3   2  18 78914.0 4266.37   2
   3   2  18 85944.1 4301.46   1
  -2   5 -18 89911.7 4338.62   1
  -3   5 -18 90069.4 4286.85   1
  -2  -3 -17 34909.2 2542.10   1
   3   2  17 31822.3 2607.20   2
   2  -5  17 41757.6 2950.92   2
   2   3  17 38385.2 2754.86   1
  -2   5 -17 37879.1 2723.83   1
   2  -5  17 39233.4 2918.00   1
   3  -5  17 33717.0 2708.25   2
  -3   5 -17 39807.2 2765.18   1
   3   2  17 36842.5 2715.21   1
   3  -5  17 36186.1 2707.36   1
  -3  -2 -17 34942.2 2577.89   1
   3  -5  16 26355.7 2281.29   1
   3   2  16 27135.7 2257.43   2
   2   3  16 24286.4 2238.83   1
  -2   5 -16 22279.7 2104.82   1
  -2  -3 -16 25872.4 2167.13   1
  -3  -2 -16 25457.6 2167.15   1
   2   3  16 24945.5 2265.15   2
   2  -5  16 27127.1 2377.55   1
   2  -5  16 26752.9 2235.40   2
   3  -5  16 24830.5 2241.64   2
  -3   5 -16 26022.2 2180.18   1
   3   2  16 24225.8 2178.18   1
   3  -5  15 12574.5 1574.61   2
  -3   5 -15 14238.6 1644.52   1
   3   2  15 13804.8 1608.69   1
   2  -5  15 14639.4 1655.30   2
  -2   5 -15 15201.5 1688.90   1
  -3  -2 -15 12834.5 1464.20   1
  -2  -3 -15 14477.5 1533.26   1
   2   3  15 13164.4 1558.15   1
   3   2  15 12150.9 1503.07   2
   2  -5  15 16515.6 1754.55   1
   2   3  15 13182.7 1598.83   2
   3  -5  15 12875.7 1591.69   1
   3  -5  14 125552. 5015.95   1
   2   3  14 111854. 4591.74   2
   2   3  14 110870. 4638.06   1
  -2   5 -14 116275. 4750.66   1
   3   2  14 120628. 4783.81   2
  -2  -3 -14 109455. 4394.23   1
  -3   5 -14 110918. 4637.57   1
   3  -5  14 119358. 4779.39   2
   2  -5  14 112263. 4714.75   2
  -3  -2 -14 109917. 4429.69   1
   3   2  14 114233. 4707.78   1
   2  -5  14 113836. 4783.70   1
   3  -5  13 9263.37 1264.24   1
   3   2  13 7333.54 1087.26   2
  -2   5 -13 8134.71 1180.81   1
  -3   5 -13 8987.51 1279.97   1
   2   3  13 7850.80 1159.78   1
   2  -5  13 8292.32 1204.42   1
   2   3  13 7032.28 1072.80   2
   3  -5  13 6955.27 1098.31   2
   3   2  13 7730.86 1168.16   1
  -3  -2 -13 6625.39 1052.39   1
   2  -5  13 6692.40 1128.58   2
  -2  -3 -13 8719.34 1149.12   1
  -3   5 -12 7088.69 1110.77   1
   2   3  12 7210.70 1095.49   1
   2  -5  12 7803.23 1146.21   1
  -2   5 -12 7369.39 1078.19   1
   2   3  12 7125.15 1097.17   2
  -3  -2 -12 8151.59 1079.41   1
   3  -5  12 7845.64 1173.58   2
   3   2  12 6602.89 992.615   1
  -5   2  12 7605.47 1051.61   1
   3   2  12 6954.36 1049.51   2
  -2  -3 -12 6499.55 986.287   1
   3  -5  12 7562.66 1159.65   1
   2  -5  12 6488.67 1038.80   2
  -3   5 -11 111447. 4410.06   1
   5  -2 -11 117445. 3973.45   1
   2   3  11 119665. 4399.46   1
  -5   2  11 119903. 4093.08   1
   3  -5  11 113748. 4397.72   2
   2  -5  11 114064. 4407.78   2
  -3  -2 -11 112898. 4202.48   1
  -2  -3 -11 119011. 4313.90   1
   3  -5  11 109419. 4431.33   1
  -2   5 -11 107341. 4323.67   1
   3   2  11 121345. 4328.38   2
   2   3  11 109792. 4296.33   2
   3   2  11 108751. 4255.83   1
   2  -5  11 112064. 4503.14   1
  -3   5 -10 190039. 5826.05   1
   2   3  10 178744. 5520.35   1
  -2  -3 -10 192582. 5596.05   1
   2  -5  10 194106. 5886.54   2
   3   2  10 173265. 5595.52   1
   3  -5  10 185718. 5835.33   1
  -3  -2 -10 187106. 5582.65   1
  -2   5 -10 183284. 5738.79   1
  -5   2  10 179228. 5176.97   1
   3   2  10 193095. 5661.91   2
   5  -2 -10 177016. 5061.92   1
   2  -5  10 181412. 5834.86   1
   3  -5  10 182181. 5689.08   2
  -3   5  -9 200513. 5951.53   1
   2   3   9 204501. 5895.12   1
   3  -5   9 199148. 6012.61   1
   5  -3  -9 207993. 4960.90   1
  -5   2   9 213996. 5504.94   1
   3   2   9 203294. 5887.09   1
  -5   3   9 216125. 5099.19   1
   3   2   9 208633. 5888.46   2
   2  -5   9 194691. 5888.08   2
  -2  -3  -9 201254. 5712.28   1
   5  -2  -9 189941. 5137.88   1
   2   3   9 207264. 5969.12   2
  -2   5  -9 198232. 5937.09   1
  -3  -2  -9 195018. 5738.01   1
   2  -5   9 203335. 6087.17   1
   3  -5   9 203269. 5923.74   2
   3  -5   8 49105.5 2579.34   1
  -3   5  -8 51247.3 2602.37   1
   3  -5   8 48452.6 2596.68   2
   5  -2  -8 52155.1 2218.81   1
   3   2   8 47541.0 2512.42   1
  -5   2   8 55452.2 2316.68   1
   2   3   8 47831.4 2495.92   1
   2  -5   8 49152.3 2553.57   2
   2  -5   8 51520.4 2669.32   1
   2   3   8 49107.5 2576.03   2
  -2  -3  -8 40944.8 2285.61   1
   5  -3  -8 53202.0 1989.68   1
  -3  -2  -8 50833.4 2559.90   1
  -2   5  -8 47358.3 2586.47   1
  -5   3   8 54927.6 2080.84   1
   3   2   8 52130.4 2610.79   2
   5  -2  -7 152787. 3980.95   1
  -5   2   7 137317. 3885.99   1
   3   2   7 142102. 4551.27   2
   3   2   7 132143. 4405.43   1
   2  -5   7 137773. 4571.98   2
   3  -5   7 132583. 4419.86   1
   3  -5   7 136506. 4507.43   2
   5  -3  -7 138246. 3433.26   1
  -2   5  -7 130125. 4398.48   1
  -2  -3  -7 127828. 4213.18   1
   2   3   7 137006. 4443.44   1
  -3  -2  -7 137493. 4392.04   1
   2  -5   7 134009. 4473.55   1
  -3   5  -7 132766. 4405.75   1
  -5   3   7 137113. 3492.82   1
   2   3   6 641874. 12684.5   1
   2  -5   6 658252. 12813.0   1
   2   3   5 179955. 4897.48   1
  -5   2   5 170147. 4194.03   1
   2  -5   5 172169. 5025.54   2
  -3  -2  -5 165782. 4822.30   1
   5  -2  -5 191999. 4284.76   1
  -5   3   5 171684. 3714.53   1
   5  -3  -5 158852. 3569.29   1
  -2   5  -5 182035. 4934.67   1
  -3   5  -5 167636. 4694.45   1
   3   2   5 172228. 4889.87   1
   3  -5   5 165215. 4913.30   2
  -2  -3  -5 181296. 4899.77   1
   3  -5   5 171133. 4760.70   1
   5  -3  -4 120073. 2887.16   1
  -3   5  -4 120370. 3756.50   1
  -5   3   4 135579. 3053.91   1
   3  -5   4 131598. 4126.23   2
  -2  -3  -4 133392. 4069.98   1
   3   2   4 135284. 4151.17   1
   2   3   4 128994. 4039.22   1
  -5   2   4 136622. 3534.46   1
   5  -2  -4 131245. 3472.83   1
  -2   5  -4 122715. 3878.80   1
   5  -3  -4 120843. 2739.36   2
   5  -2  -4 131557. 2970.63   2
   2  -5   4 132195. 4187.35   2
   2  -5   4 131145. 3935.78   1
  -3  -2  -4 133264. 4098.58   1
   3  -5   4 117281. 3770.92   1
  -5   3   3 73917.8 2089.86   1
   5  -2  -3 74261.9 2398.46   1
   2  -5   3 67476.2 2602.04   1
   3  -5   3 73332.8 2884.09   2
   5  -3  -3 76780.0 2049.74   1
   5  -3  -3 77670.8 2111.85   2
   3   2   3 77096.2 2929.68   1
   2   3   3 72788.4 2860.64   1
  -5   2   3 67047.1 2376.06   1
  -3   5  -3 68542.2 2582.99   1
   2  -5   3 78780.5 3010.40   2
   5  -2  -3 68006.8 2127.85   2
  -2   5  -3 70825.7 2681.92   1
  -3  -2  -3 75694.1 2901.32   1
  -2  -3  -3 78687.4 2932.16   1
   3  -5   3 75906.9 2661.13   1
   3  -5   2 264956. 5859.89   1
  -3  -2  -2 296968. 6694.14   1
   5  -2  -2 263078. 5611.15   2
  -2  -3  -2 277524. 6505.26   1
  -3   5  -2 276359. 5990.49   1
   3  -5   2 282231. 6523.29   2
   2  -5   2 290588. 6688.56   2
   5  -2  -2 276143. 5793.28   1
  -5   3   2 288584. 5431.74   1
  -2   5  -2 273093. 6192.39   1
   3   2   2 293045. 6612.69   1
  -5   2   2 266648. 5860.76   1
   2   3   2 259715. 6439.45   1
   2  -5   2 278850. 6135.14   1
   3   2   1 17123.7 1319.12   1
   2  -5   1 19483.1 1168.94   1
   2  -5   1 20681.3 1417.98   2
   3  -5   1 17823.4 1066.26   1
   5  -3  -1 18563.7 968.349   1
   5  -2  -1 17793.5 1076.41   1
  -2  -3  -1 16758.6 1295.83   1
  -5   3   1 19480.9 1005.18   1
  -2   5  -1 18694.6 1193.02   1
   2   3   1 18240.9 1360.25   1
  -5   2   1 16871.4 1096.91   1
   3  -5   1 19330.6 1339.52   2
   5  -3  -1 18946.6 1086.89   2
   5  -2  -1 19808.1 1157.58   2
  -3  -2  -1 16951.0 1288.72   1
  -3   5  -1 15852.8 1022.25   1
  -5   3   0 29960.2 1420.42   1
  -5   2   0 35298.3 1671.21   1
   2  -5   0 40311.3 1676.69   1
   3  -5   0 40215.0 1928.63   2
   5  -2   0 37309.7 1639.65   1
  -3  -2   0 40227.9 2013.41   1
   5  -3   0 42001.2 1580.44   1
  -2   5   0 40163.3 1692.84   1
   3   2   0 36147.0 1948.14   1
  -2  -3   0 40642.4 2003.65   1
   2   3   0 37829.2 1978.63   1
   5  -2   0 35637.2 1636.37   2
   5  -3   0 38829.9 1715.72   2
  -3   5   0 37680.2 1500.47   1
   2  -5   0 41555.6 2055.87   2
   3  -5   0 36598.2 1461.76   1
   2  -5  -1 154936. 4302.26   2
  -5   3  -1 115438. 3339.41   1
   5  -3   1 142623. 3512.23   1
   5  -2   1 143736. 3749.70   1
  -2   5   1 122428. 3370.36   1
   5  -2   1 138096. 3791.27   2
   5  -3   1 127410. 3622.05   2
   3   2  -1 129395. 3988.87   1
  -3   5   1 146384. 3193.75   1
   3  -5  -1 147777. 4006.82   2
  -3  -2   1 135122. 4063.74   1
   2  -5  -1 135607. 3404.85   1
   2   3  -1 138876. 4113.10   1
  -2  -3   1 130100. 3975.58   1
   3  -5  -1 134916. 3053.90   1
  -5   2  -1 125566. 3600.83   1
  -3  -2   2 520486. 10084.7   1
  -2  -3   2 515790. 10107.2   1
  -2  -3   3 303080. 6930.22   1
   2  -5  -3 314023. 5882.04   1
   5  -3   3 289629. 6345.84   1
   5  -2   3 284323. 6432.11   1
  -5   2  -3 263665. 6394.20   1
   3  -5  -3 280596. 5132.08   1
   5  -2   3 293723. 6599.52   2
  -3  -2   3 302158. 6862.88   1
  -5   3  -3 295628. 6427.48   1
   2   3  -3 313690. 7021.10   1
   3   2  -3 292875. 6868.72   1
   5  -3   3 284772. 6498.12   2
  -2   5   3 290634. 5878.98   1
  -3  -2   4 50712.8 2417.00   1
  -5   2  -4 58110.5 2406.39   1
   5  -2   4 53789.5 2311.80   1
   5  -3   4 53188.2 2264.83   1
   2   3  -4 63497.8 2639.27   1
  -2   5   4 54891.3 1904.28   1
  -5   3  -4 55537.5 2315.84   1
   3   2  -4 55204.8 2452.06   1
  -3   5   4 50128.3 1457.69   1
  -2  -3   4 58273.6 2538.45   1
   5  -3   4 50706.1 2264.94   2
   5  -2   4 58281.8 2462.16   2
   2  -5  -4 59821.9 1923.67   1
   3  -5  -4 52711.4 1427.72   1
  -3  -2   5 347638. 7784.99   1
   5  -3   5 341740. 7545.72   1
   5  -2   5 339758. 7537.95   1
  -2  -3   5 332736. 7861.79   1
   5  -3   5 316295. 7426.64   2
  -5   2  -5 315712. 7444.94   1
   5  -2   5 325900. 7512.43   2
   3   2  -5 352345. 7796.71   1
   2   3  -5 353914. 7884.58   1
  -5   3  -5 339917. 7477.64   1
   5  -3   6 582838. 11365.7   2
  -2  -3   6 536307. 11428.4   1
  -3  -2   6 551288. 11452.2   1
   5  -2   6 576171. 11320.9   2
   3   2  -6 581151. 11514.6   1
  -5   2  -7 179224. 5224.11   1
  -5   3  -7 185269. 5212.34   1
  -3   5   7 160933. 3876.14   1
   5  -3   7 181278. 5271.71   1
   5  -2   7 175981. 5117.09   2
   5  -3   7 175245. 5165.25   2
  -3  -2   7 186711. 5398.60   1
   2   3  -7 184036. 5376.66   1
   3   2  -7 187487. 5312.69   1
   5  -2   7 169277. 5127.66   1
  -2  -3   7 170675. 5235.38   1
   3  -5  -7 192043. 3888.24   1
  -2   5   7 180337. 4403.65   1
  -3   5   8 47397.6 1791.94   1
   5  -3   8 47920.1 2539.74   1
   5  -2   8 48597.1 2559.77   1
   2  -5  -8 51231.5 2048.83   1
  -5   3  -8 47659.6 2457.60   1
  -5   2  -8 53305.3 2572.27   1
   5  -3   8 50132.6 2541.98   2
  -3  -2   8 50637.8 2565.65   1
   2   3  -8 51359.7 2630.26   1
   3   2  -8 46589.6 2461.87   1
   5  -2   8 50300.6 2492.13   2
  -2  -3   8 55901.2 2669.79   2
  -2   5   8 48544.0 2071.20   1
  -2  -3   8 46493.1 2553.49   1
   5  -3   9 12460.6 1310.96   1
   3   2  -9 14504.6 1315.84   1
   5  -2   9 13305.0 1372.47   1
  -5   3  -9 12005.8 1278.71   1
   2  -5  -9 12627.7 1009.17   1
  -5   2  -9 13527.1 1280.74   1
   5  -3   9 16392.5 1459.41   2
   2   3  -9 14354.7 1371.39   1
  -2   5   9 13086.3 1104.99   1
  -3  -2   9 12442.1 1306.64   1
  -2  -3   9 13352.2 1358.35   2
   5  -2   9 12523.0 1241.28   2
  -2  -3   9 12493.6 1292.76   1
  -2  -3  10 182586. 5724.65   1
  -3  -2  10 185781. 5709.84   1
   5  -2  10 181966. 5597.65   2
   5  -3  10 180949. 5688.49   1
   5  -2  10 167425. 5533.71   1
   2  -5 -10 190202. 4945.07   1
  -2  -3  10 197833. 5736.18   2
  -5   2 -10 188619. 5624.88   1
  -2   5  10 207053. 5269.76   1
  -5   3 -10 176578. 5579.42   1
   5  -3  10 178674. 5549.93   2
   2   3 -10 188986. 5764.09   1
   3   2 -10 169594. 5491.88   1
   5  -3  11 15647.6 1543.20   1
  -2   5  11 16687.9 1416.83   1
   5  -2  11 14288.7 1520.62   1
  -2  -3  11 14082.2 1505.56   1
  -5   2 -11 15326.3 1483.93   1
  -5   3 -11 15670.9 1511.42   1
  -2  -3  11 16483.5 1537.48   2
   5  -3  11 14763.2 1455.97   2
   3   2 -11 14996.7 1497.28   1
  -3  -2  11 14212.0 1432.66   1
   2   3 -11 15946.9 1562.29   1
   5  -2  11 16641.0 1497.07   2
   5  -3  12 36624.2 2464.11   1
   5  -2  12 41342.1 2571.95   1
   5  -3  12 35214.2 2309.12   2
  -2  -3  12 38894.5 2416.18   2
  -5   3 -12 37969.4 2416.39   1
  -3  -2  12 35905.1 2389.92   1
   2   3 -12 37366.7 2390.91   1
  -2  -3  12 34702.2 2445.53   1
   5  -2  12 36753.8 2401.76   2
   3   2 -12 33900.9 2328.68   1
  -5   2 -12 37667.3 2385.35   1
  -3  -2  13 80175.7 3772.70   1
   5  -3  13 71033.8 3653.03   1
   5  -2  13 74417.2 3695.13   1
   3   2 -13 76184.2 3633.85   1
  -5   3 -13 82410.6 3700.66   1
  -5   2 -13 79398.2 3675.78   1
   5  -2  13 82056.5 3643.77   2
   2   3 -13 77450.8 3697.22   1
  -2  -3  13 73721.6 3617.81   2
   5  -3  13 81299.1 3646.63   2
  -2  -3  13 76997.5 3759.79   1
   5  -2  14 107526. 4568.64   1
  -2  -3  14 101673. 4433.93   1
  -5   3 -14 104460. 4345.30   1
  -5   2 -14 103592. 4306.82   1
   5  -2  14 102981. 4363.85   2
   5  -3  14 103767. 4503.67   1
   3   2 -14 97077.4 4310.09   1
   5  -3  14 105858. 4411.47   2
  -3  -2  14 112896. 4685.58   1
   2   3 -14 107279. 4508.84   1
   5  -3  15 55941.4 3237.00   1
   5  -2  15 52302.3 3140.03   1
  -2  -3  15 52230.9 3150.24   1
   3   2 -15 51511.5 3078.58   1
  -5   2 -15 49375.9 2938.71   1
  -5   3 -15 53394.8 3056.38   1
   5  -2  15 50683.1 3032.89   2
   2   3 -15 52656.3 3100.40   1
   5  -3  15 45608.9 2904.61   2
  -3  -2  15 46328.9 3008.06   1
   2   3 -16 6134.53 1121.89   1
  -5   3 -16 7472.11 1215.30   1
   5  -2  16 6658.99 1134.29   1
   5  -2  16 6746.95 1156.56   2
  -3  -2  16 6564.21 1135.00   1
   5  -3  16 7201.95 1221.47   1
  -2  -3  16 7437.52 1190.85   1
  -5   2 -16 7083.27 1120.20   1
   5  -3  16 6307.09 1131.20   2
   3   2 -16 5700.63 1046.37   1
   5  -3  17 21928.7 2120.93   1
   5  -2  17 24058.5 2167.30   1
  -3  -2  17 26885.8 2339.65   1
   3   2 -17 21158.3 2073.57   1
  -5   2 -17 22554.5 2082.58   1
   5  -3  17 21356.0 2011.49   2
   5  -2  17 20704.4 2057.89   2
   2   3 -17 23219.0 2129.45   1
  -5   3 -17 23799.9 2081.33   1
  -2  -3  17 24758.0 2257.51   1
   5  -2  18 106864. 4760.34   1
  -5   3 -18 106859. 4706.93   1
  -5   2 -18 108665. 4698.08   1
   3   2 -18 92332.9 4535.46   1
   5  -3  18 103067. 4768.28   1
  -3  -2  18 97097.7 4762.55   1
   2   3 -18 92716.4 4496.71   1
   5  -2  18 95157.3 4532.50   2
  -2  -3  18 102378. 4794.94   1
   5  -3  18 99774.4 4685.35   2
   5  -3  19 23992.7 2269.10   1
   5  -2  19 22561.0 2250.10   1
  -5   3 -19 23932.3 2168.06   1
  -5   2 -19 27238.0 2331.31   1
   3   2 -19 23975.6 2266.22   1
   5  -3  19 26085.0 2397.64   2
  -2  -3  19 26066.0 2396.73   1
   5  -2  19 22452.0 2180.92   2
   2   3 -19 24478.0 2289.83   1
  -3  -2  19 25541.2 2376.27   1
  -3  -2  20 7090.47 1252.34   1
  -2  -3  20 5986.76 1132.80   1
   5  -3  20 7311.17 1307.77   2
   5  -2  20 5676.02 1196.33   2
   2   3 -20 7543.06 1323.74   1
   3   2 -20 8019.73 1354.13   1
   4  -5  20 83312.1 4561.03   2
   4  -5  19 1343.37 476.851   1
  -1   5 -19 1299.58 683.364   1
  -4  -1 -19 1596.87 575.802   1
   4   1  19 1491.54 536.336   1
  -4   5 -19 1192.43 584.302   1
   4   1  19 1065.57 676.181   2
   4  -5  19 568.911 355.195   2
   4  -5  18 233.129 307.866   1
   1   4  18 883.799 570.250   1
  -1   5 -18 201.437 394.705   1
   4   1  18 732.309 575.381   1
  -4  -1 -18 866.395 586.729   1
   4  -5  18 481.638 592.333   2
   4   1  18 723.341 557.775   2
  -4   5 -18 820.716 498.793   1
   1  -5  17 1288.13 672.164   1
   1   4  17 1136.49 530.011   1
   4  -5  17 476.848 362.373   1
   1  -5  17 1082.51 583.076   2
  -1   5 -17 165.665 440.760   1
  -1  -4 -17 1685.95 611.639   1
   4   1  17 1017.87 554.449   1
  -4  -1 -17 1381.01 628.227   1
   4   1  17 1434.17 717.414   2
   4  -5  17 1637.80 675.222   2
  -4   5 -17 2415.98 886.013   1
  -4   5 -16 59468.2 3470.11   1
   4  -5  16 58771.0 3460.89   1
   1   4  16 58941.6 3503.50   1
   4   1  16 61593.9 3493.94   1
  -1  -4 -16 55252.9 3189.61   1
  -4  -1 -16 57300.9 3266.25   1
  -1   5 -16 54032.5 3303.69   1
   4  -5  16 63251.8 3503.98   2
   1  -5  16 57120.0 3490.51   1
   4   1  16 54524.2 3303.30   2
   1  -5  16 58820.7 3515.56   2
  -4   5 -15 389.574 449.672   1
   4  -5  15 669.323 501.617   1
  -1   5 -15 149.221 341.075   1
   1   4  15 1064.81 583.790   1
   4   1  15 1000.55 657.321   1
   1  -5  15-184.137 411.901   1
   1  -5  15 201.668 319.940   2
   4   1  15 455.426 361.028   2
  -4  -1 -15-15.8349 270.385   1
   4  -5  15 1087.27 506.791   2
  -1  -4 -15 92.3965 398.624   1
   1   4  15 474.790 415.269   2
   5  -1 -14 1104.68 554.114   1
   4   1  14 447.382 334.372   2
   1  -5  14-115.035 466.553   1
  -5   1  14 1361.58 462.145   1
  -1   5 -14 636.301 591.096   1
   1  -5  14 24.8298 494.981   2
   4   1  14 1375.74 641.919   1
   1   4  14 515.929 430.949   1
  -1  -4 -14 350.382 268.717   1
   4  -5  14 305.155 382.175   2
   1   4  14 522.224 435.430   2
  -4   5 -14 112.123 352.455   1
   4  -5  14 2038.70 824.393   1
  -4  -1 -14 887.838 428.077   1
   5  -1 -13 96.3922 318.966   1
   1  -5  13-631.907 523.055   1
   4  -5  13 521.990 524.939   1
   4   1  13 95.8145 334.780   1
   1   4  13 1626.90 629.649   1
  -1  -4 -13 305.547 330.771   1
   1  -5  13 1172.44 529.388   2
   4   1  13 597.996 524.214   2
  -4   5 -13 1237.08 589.320   1
   1   4  13 408.796 292.771   2
  -1   5 -13 280.335 534.354   1
  -5   1  13 198.636 397.521   1
   4  -5  13 721.567 548.192   2
  -4  -1 -13 477.051 400.759   1
  -4   5 -12 819426. 16387.4   1
   1  -5  12 794065. 16338.7   2
   4   1  12 783115. 16134.2   1
   1   4  12 769353. 15880.3   1
  -4  -1 -12 809651. 16103.9   1
  -1   5 -12 806593. 16375.5   1
   4  -5  12 818917. 16530.7   1
   4  -5  12 778093. 16127.2   2
   1  -5  12 801642. 16557.9   1
   4  -5  11 3386.80 793.754   1
  -5   1  11 2631.04 580.799   1
  -1   5 -11 3130.70 818.909   1
   1  -5  11 4288.82 876.239   1
  -4   5 -11 3618.07 763.752   1
   4   1  11 3231.44 747.835   1
   1   4  11 3707.54 683.930   1
  -4  -1 -11 3669.82 718.226   1
   1  -5  11 3174.40 730.743   2
   4   1  11 2366.73 668.395   2
   4  -5  11 4994.07 895.168   2
   1   4  11 4022.24 848.806   2
  -1  -4 -11 3834.66 677.922   1
   5  -1 -11 3655.79 731.819   1
  -1  -4 -10 3022.41 655.992   1
   4   1  10 2446.57 629.734   1
   4  -5  10 1859.18 538.440   1
   1   4  10 2757.70 699.453   1
  -5   1  10 3776.42 742.252   1
   1  -5  10 2235.14 634.394   2
  -4   5 -10 3608.58 784.468   1
  -1   5 -10 1705.03 557.585   1
   4   1  10 2810.71 642.971   2
  -4  -1 -10 1696.39 531.656   1
   4  -5  10 2197.27 625.153   2
   5  -1 -10 2642.09 632.846   1
   1   4  10 2912.79 701.501   2
   4   1   9 5391.05 872.826   2
  -1  -4  -9 4494.73 773.378   1
  -1   5  -9 4817.45 851.840   1
   4  -5   9 3480.50 705.699   1
   4  -5   9 4263.11 802.561   2
  -5   1   9 3842.27 694.717   1
   1   4   9 3787.28 690.663   1
   5  -1  -9 4177.58 710.315   1
   4   1   9 3662.83 739.004   1
   1  -5   9 5110.85 893.934   2
  -4  -1  -9 4155.51 719.841   1
  -4   5  -9 4615.97 792.861   1
   1  -5   9 4205.91 707.105   1
   4  -5   8 169515. 5272.95   2
  -4   5  -8 170474. 5292.92   1
  -5   1   8 169154. 4876.03   1
   1   4   8 174276. 5127.86   1
   1  -5   8 169525. 5312.35   2
   4   1   8 172049. 5290.33   1
   1  -5   8 153125. 5111.70   1
   4  -5   8 167803. 5229.64   1
   5  -1  -8 181099. 4961.20   1
  -4  -1  -8 175292. 5234.03   1
  -1  -4  -8 146827. 4718.17   1
  -1   5  -8 174861. 5357.46   1
   4   1   8 172798. 5145.70   2
  -5   1   7 8722.39 919.898   1
   4   1   7 11812.6 1154.37   2
   4  -5   7 9747.97 1093.30   1
  -4   5  -7 10422.6 1131.35   1
   4  -5   7 10544.6 1217.95   2
   5  -1  -7 10343.7 1011.02   1
  -1  -4  -7 9951.48 1059.77   1
   1  -5   7 9650.01 1130.54   2
   4   1   7 10022.5 1123.46   1
  -1   5  -7 8557.05 1107.16   1
   1  -5   7 10239.3 1170.43   1
   1   4   7 9423.60 1044.88   1
  -4  -1  -7 10144.8 1116.98   1
   5  -1  -6 6955.95 824.942   1
   4  -5   6 6926.97 911.184   1
  -1   5  -6 6469.06 912.751   1
  -4  -1  -6 7160.51 885.597   1
  -4   5  -6 5737.84 806.965   1
  -1  -4  -6 5295.60 755.688   1
   4   1   6 7676.78 898.736   1
   4  -5   6 8695.19 1088.55   2
  -5   1   6 6039.26 729.613   1
   4   1   6 7030.77 918.202   2
   1   4   6 7948.02 937.321   1
   1  -5   6 5508.37 846.686   1
   1  -5   6 9727.41 1123.03   2
   4  -5   5 31380.6 1816.85   1
   1  -5   5 29866.4 1856.05   1
   1  -5   5 29424.6 1913.72   2
   5  -1  -5 32834.7 1727.69   1
   5  -4  -5 26503.1 1104.54   2
   4   1   5 34846.3 2007.31   1
   4  -5   5 28503.9 1852.74   2
  -1   5  -5 30304.5 1873.94   1
   1   4   5 32208.8 1850.02   1
  -5   1   5 31350.0 1728.98   1
  -4  -1  -5 31347.8 1923.34   1
   5  -1  -5 31688.9 1438.75   2
   4   1   5 35003.1 2011.00   2
  -1  -4  -5 32527.1 1800.87   1
  -4   5  -5 31062.5 1844.02   1
   1   4   4 377387. 8203.43   1
   4   1   4 394873. 8441.34   1
  -4   5  -4 388694. 8055.90   1
  -1  -4  -4 401516. 8259.62   1
  -4  -1  -4 377039. 8378.36   1
  -5   1   4 347092. 7795.87   1
  -1   5  -4 338353. 8157.26   1
   5  -1  -4 389220. 7916.84   1
   4  -5   4 382341. 7973.44   1
   1  -5   4 379785. 8516.94   2
   1  -5   4 371770. 8230.01   1
   4  -5   4 378536. 8337.33   2
   5  -1  -3 6486.70 645.033   2
   1  -5   3 7598.91 830.769   1
   4  -5   3 5899.55 679.178   1
   4  -5   3 6559.89 838.176   2
  -5   1   3 6791.11 793.939   1
  -4  -1  -3 7419.78 918.751   1
   4   1   3 5717.44 777.850   1
   1   4   3 6539.29 760.280   1
   1  -5   3 5631.20 838.031   2
   5  -1  -3 5589.29 693.354   1
   5  -4  -3 6057.68 568.427   2
  -4   5  -3 5452.39 651.130   1
  -1   5  -3 5005.27 704.629   1
  -1  -4  -3 5647.09 754.993   1
   4  -5   2 65720.0 2270.63   1
   5  -4  -2 68909.4 2199.21   2
  -4  -1  -2 63676.0 2662.31   1
   4  -5   2 65978.0 2614.58   2
  -5   1   2 60946.0 2461.63   1
   1  -5   2 74875.5 2955.73   2
   1  -5   2 66436.2 2611.30   1
   4   1   2 66426.6 2686.59   1
   5  -1  -2 64027.6 2447.68   1
   5  -4  -2 60908.2 1520.52   1
   1   4   2 65721.8 2664.44   1
  -5   4   2 58098.7 1516.68   1
   5  -1  -2 75918.1 2458.13   2
  -1   5  -2 64884.5 2594.23   1
  -1  -4  -2 65410.5 2619.19   1
  -4   5  -2 63929.6 2289.39   1
   4  -5   1 2009.39 376.789   1
  -4   5  -1 1843.39 381.693   1
   5  -4  -1 1808.20 256.084   1
  -5   4   1 1649.02 266.981   1
   5  -1  -1 2139.67 404.116   1
  -1  -4  -1 1864.75 492.450   1
   1  -5   1 2861.15 591.232   2
   5  -4  -1 1614.63 368.641   2
  -4  -1  -1 1901.26 504.610   1
   4   1   1 2530.09 554.504   1
   1   4   1 1827.95 541.647   1
  -1   5  -1 2405.99 511.720   1
   1  -5   1 2259.59 515.979   1
   5  -1  -1 2036.06 398.493   2
  -5   1   1 1736.88 470.475   1
   4  -5   1 1678.80 476.509   2
   5  -4   1 19000.6 1222.87   2
   4   1  -1 18549.6 1395.79   1
   5  -4   1 17843.1 1027.01   1
   1   4  -1 15919.5 1282.43   1
  -5   4  -1 18890.1 1061.24   1
   5  -1   1 17078.0 1253.92   1
   1  -5  -1 16381.9 1121.85   1
   4  -5  -1 16711.7 709.151   1
  -4   5   1 16823.0 745.576   1
   4  -5  -1 15793.9 1199.48   2
  -1   5   1 14762.2 1131.64   1
  -4  -1   1 18370.6 1419.98   1
  -1  -4   1 17106.1 1273.61   1
  -5   1  -1 17066.3 1284.21   1
   5  -1   1 17597.9 1244.31   2
   5  -4   2 73395.6 2657.38   2
   4  -5  -2 71968.0 2526.18   2
   5  -1   2 74169.8 2735.49   1
   1  -5  -2 73228.6 2509.67   1
   5  -1   2 68233.9 2603.73   2
  -1   5   2 62771.0 2449.85   1
   4   1  -2 70010.8 2743.55   1
  -4  -1   2 66080.6 2724.95   1
  -5   4  -2 66254.2 2345.39   1
  -1  -4   2 70462.6 2781.36   1
   1   4  -2 68283.0 2779.35   1
   5  -4   2 73124.8 2460.99   1
  -5   1  -2 71397.0 2730.80   1
  -5   1  -3 6381.71 770.101   1
  -1  -4   3 5901.73 844.939   1
   1  -5  -3 7442.30 741.267   1
  -1   5   3 6532.89 694.847   1
  -5   4  -3 6185.55 720.178   1
  -4  -1   3 6526.61 819.548   1
   5  -1   3 5974.51 753.085   2
   5  -1   3 6083.28 741.487   1
   4  -5  -3 6739.33 709.888   2
   5  -4   3 7219.98 744.685   1
   4   1  -3 5699.37 790.245   1
   1   4  -3 6314.92 820.498   1
   5  -4   3 5718.08 755.949   2
   5  -4   4 427114. 8566.49   1
  -5   4  -4 385344. 8352.52   1
  -1  -4   4 390738. 8970.41   1
   5  -4   4 410529. 8733.32   2
  -5   1  -4 442175. 8937.10   1
  -4  -1   4 398156. 8741.99   1
   1   4  -4 413180. 9003.49   1
   4   1  -4 430894. 8964.00   1
   5  -1   4 417327. 8815.72   1
  -5   1  -5 4745.37 719.122   1
   5  -4   5 4246.61 663.079   1
  -1  -4   5 4438.16 766.919   1
   5  -1   5 3824.71 683.028   1
   1  -5  -5 4257.54 560.845   1
  -1   5   5 4757.08 658.202   1
   5  -1   5 3396.46 513.321   2
   5  -4   5 3601.70 643.196   2
  -4  -1   5 3948.61 742.862   1
   4   1  -5 4674.84 697.164   1
  -5   4  -5 4163.80 628.696   1
   1   4  -5 3996.54 708.148   1
   5  -4   6 47446.7 2357.00   1
  -4  -1   6 48665.7 2420.14   1
  -1  -4   6 52453.0 2620.52   2
  -5   4  -6 48197.7 2357.74   1
   5  -1   6 46856.8 2350.11   1
  -1   5   6 47875.9 2146.08   1
  -5   1  -6 50323.7 2452.07   1
   1  -5  -6 54293.3 2174.36   1
   5  -1   6 49799.8 2363.83   2
  -1  -4   6 55926.4 2658.93   1
   5  -4   6 46027.3 2371.12   2
   4   1  -6 45757.9 2346.88   1
   1   4  -6 48729.6 2489.14   1
   5  -1   7 32495.3 1983.91   2
   5  -4   7 27213.8 1824.95   1
  -1  -4   7 32417.5 2073.80   2
  -4  -1   7 31364.2 1974.55   1
  -5   4  -7 29917.7 1897.68   1
  -1   5   7 31951.3 1745.33   1
   5  -1   7 26813.4 1857.01   1
   4   1  -7 29520.6 1888.69   1
  -5   1  -7 31833.6 1970.58   1
   1  -5  -7 29436.9 1645.28   1
   5  -4   7 30666.8 1922.87   2
  -1  -4   7 30089.2 1996.72   1
   1   4  -7 29805.7 1980.12   1
   5  -4   8 202231. 5842.05   1
  -5   4  -8 204276. 5818.97   1
   4   1  -8 219579. 5924.61   1
   5  -1   8 216395. 6025.37   1
  -1   5   8 207592. 5432.99   1
   1  -5  -8 213198. 5369.95   1
  -4  -1   8 201276. 5867.34   1
   5  -4   8 214628. 5981.42   2
   1   4  -8 212074. 6073.82   1
  -1  -4   8 205545. 5946.46   2
  -5   1  -8 209257. 5956.15   1
   5  -1   8 219546. 5983.47   2
  -1  -4   8 195830. 5916.14   1
   1   4  -9 435.077 333.655   1
   5  -4   9 190.288 383.620   1
   5  -4   9 580.935 430.758   2
  -5   1  -9 652.533 375.261   1
  -1   5   9 813.862 362.926   1
  -1  -4   9 840.765 405.180   1
  -5   4  -9 780.103 442.429   1
  -4  -1   9 90.7415 282.848   1
   4   1  -9 587.366 416.049   1
   5  -1   9 1515.73 617.085   1
   5  -1   9 398.925 271.523   2
  -1  -4   9-129.570 316.602   2
   1  -5  -9 611.698 313.556   1
  -1   5  10 11628.7 1197.62   1
   5  -4  10 11221.8 1270.90   1
  -1  -4  10 13487.3 1387.66   1
   5  -1  10 11501.6 1251.11   1
  -4  -1  10 10849.6 1233.20   1
  -5   1 -10 13403.9 1301.79   1
   1  -5 -10 11694.0 1135.02   1
  -5   4 -10 9768.77 1207.63   1
   1   4 -10 13312.3 1413.43   1
  -1  -4  10 10420.5 1152.98   2
   5  -1  10 11470.1 1252.68   2
   5  -4  10 11094.2 1244.03   2
   4   1 -10 11469.8 1237.29   1
  -5   1 -11 5585.44 927.093   1
   1  -5 -11 5001.97 784.714   1
   5  -1  11 5444.09 888.920   1
   5  -4  11 3336.43 826.200   1
  -1   5  11 4816.68 796.197   1
   1   4 -11 4449.63 880.221   1
  -5   4 -11 4234.25 817.326   1
  -1  -4  11 4330.46 882.720   1
  -1  -4  11 5639.98 870.934   2
   5  -4  11 3675.85 738.263   2
   4   1 -11 5515.59 842.492   1
   5  -1  11 4673.22 848.517   2
  -4  -1  11 4682.79 844.360   1
  -1   5  11 2377.60 648.211   2
   5  -4  12 639643. 13628.0   1
  -5   1 -12 622210. 13144.9   1
  -5   4 -12 613931. 13320.7   1
   5  -1  12 657885. 13636.8   1
  -4  -1  12 629779. 13367.9   1
   1  -5 -12 665334. 12789.3   1
  -1  -4  12 626458. 13522.7   1
  -1  -4  12 641502. 13413.3   2
   5  -1  12 624882. 13136.4   2
   5  -4  12 609855. 13225.7   2
   4   1 -12 611082. 13080.2   1
   1   4 -12 613407. 13305.3   1
  -1   5  12 605825. 12873.5   1
   4   1 -13 945.654 493.510   1
   1   4 -13 1258.52 614.397   1
   5  -4  13 796.148 410.773   1
  -1  -4  13 1104.31 598.347   2
  -1   5  13 773.721 395.276   1
   5  -1  13 552.588 544.682   1
  -5   4 -13 553.472 412.982   1
  -1  -4  13 848.725 459.288   1
  -5   1 -13 833.382 427.937   1
   5  -4  13 164.015 396.519   2
   5  -1  13 610.968 448.295   2
  -4  -1  13 585.232 494.777   1
   5  -4  14 18726.6 1901.69   1
   5  -1  14 18614.2 1897.54   1
  -5   1 -14 18275.4 1767.76   1
  -1  -4  14 19713.5 1803.55   2
   4   1 -14 19827.9 1858.14   1
  -1  -4  14 21934.9 1938.15   1
  -4  -1  14 19435.4 1865.52   1
   5  -4  14 19706.8 1838.71   2
   5  -1  14 19731.9 1812.66   2
  -5   4 -14 21929.2 1919.44   1
   1   4 -14 18753.9 1879.36   1
   4   1 -15 699.869 524.215   1
   1   4 -15 1688.63 620.619   1
  -4  -1  15-90.9647 429.784   1
   5  -4  15 974.207 515.219   1
  -1  -4  15-117.683 353.154   1
   5  -1  15 997.964 567.031   1
  -5   1 -15 702.283 379.506   1
  -5   4 -15-576.648 649.285   1
   5  -4  15 1118.49 549.253   2
   5  -1  15 501.225 397.903   2
   5  -4  16 128848. 5362.14   1
   5  -1  16 129198. 5280.92   1
  -5   4 -16 139588. 5347.10   1
  -4  -1  16 135140. 5413.76   1
   5  -1  16 132585. 5244.96   2
  -5   1 -16 131396. 5148.92   1
   5  -4  16 133172. 5359.93   2
   4   1 -16 135133. 5348.23   1
   1   4 -16 137090. 5378.42   1
  -1  -4  16 129844. 5278.43   1
   4   1 -17 82.8147 356.852   1
   1   4 -17 529.401 455.567   1
  -5   1 -17 168.135 324.224   1
  -4  -1  17 617.359 524.805   1
   5  -1  17 1483.46 740.213   1
  -5   4 -17 490.905 555.479   1
   5  -4  17 16.5056 414.297   2
   5  -1  17 950.667 417.876   2
   5  -4  17 446.858 381.914   1
  -1  -4  17 1511.50 637.032   1
  -1  -4  18 7060.44 1239.34   1
   4   1 -18 4754.75 1021.12   1
   1   4 -18 5582.88 1154.86   1
   5  -1  18 5060.33 1072.87   1
  -5   1 -18 5665.61 1062.95   1
  -5   4 -18 7473.88 1240.09   1
  -4  -1  18 5446.06 1094.85   1
   5  -1  18 4545.04 1083.98   2
   5  -4  18 7662.55 1318.91   2
   5  -4  18 7056.99 1267.11   1
  -4  -1  19 3547.66 960.327   1
   5  -4  19 1395.14 484.805   1
   5  -1  19 4067.23 957.355   1
  -5   4 -19 2689.51 711.768   1
   5  -1  19 1107.94 613.056   2
  -1  -4  19 1232.31 378.902   1
   5  -4  19 2850.91 821.511   2
   1   4 -19 2310.63 710.135   1
  -5   1 -19 1784.24 697.120   1
   5  -4  20 35054.9 2841.57   2
   5  -1  20 33214.0 2838.96   2
  -5   5   0 158296. 3631.52   1
   0  -5   0 161002. 4569.07   1
   5  -5   0 164506. 4454.58   2
  -5   0   0 179409. 4919.23   1
   5   0   0 185091. 4906.79   1
   0   5   0 176842. 4806.93   1
   5  -5   0 171885. 3664.14   1
   5   0   0 176215. 4725.28   2
  -5   0  -1 453908. 9288.89   1
  -5   0   1 422544. 9120.60   1
   5  -5  -1 433578. 8598.02   2
   0  -5   1 449146. 9117.72   1
   5   0   1 461492. 9292.84   1
   5   0  -1 444764. 9170.34   1
   0  -5  -1 424615. 8949.60   1
   0   5   1 447558. 9089.69   1
   0   5  -1 410976. 9065.32   1
   5   0   1 389249. 8838.98   2
   5  -5   3 236594. 5534.93   1
  -5   5  -3 226278. 5477.47   1
   0  -5  -3 233986. 5750.62   1
  -5   0  -3 232083. 5981.18   1
   0  -5   3 219995. 5950.83   1
   5   0   3 244879. 6053.18   1
   0   5   3 226420. 5718.54   1
  -5   0   3 223710. 5829.23   1
   5   0  -3 238311. 5854.73   1
   0   5  -3 230123. 6010.04   1
   5  -5  -3 235642. 5279.26   2
   5   0   3 234210. 5944.16   2
   5  -5   4 25368.9 1599.01   1
   0  -5  -4 25691.6 1584.77   1
   5   0   4 26186.0 1744.04   1
  -5   0   4 28817.2 1769.46   1
   5   0  -4 25944.9 1669.51   1
  -5   5  -4 25727.6 1550.88   1
   5  -5  -4 29622.8 1419.22   2
   5   0   4 27082.1 1704.05   2
   0   5   4 24221.3 1588.81   1
   5  -5   4 24162.2 1709.09   2
   0   5  -4 24550.1 1690.85   1
   0  -5   4 28603.3 1939.42   2
   0  -5   4 27231.3 1765.60   1
  -5   0  -4 24940.2 1703.10   1
   5  -5   5 10065.8 1161.37   2
  -5   5  -5 9498.51 1016.75   1
   0  -5  -5 11881.7 1115.04   1
   0  -5   5 8605.45 1129.06   2
   0   5   5 10773.9 1042.73   1
   5   0  -5 10498.3 1075.49   1
  -5   0   5 10036.5 1062.22   1
   0   5  -5 11150.0 1163.25   1
   0  -5   5 11660.5 1215.16   1
   5   0   5 12436.3 1184.31   1
   5  -5   5 9941.72 1055.62   1
   5   0   5 10429.8 1076.56   2
  -5   0  -5 10972.7 1166.06   1
   0   5  -6 619.400 471.413   1
   0   5   6 1431.97 417.244   1
   5  -5   6 439.644 312.359   1
  -5   0  -6 1352.73 507.650   1
   5   0   6 1386.97 474.079   2
   0  -5   6 1871.48 635.157   2
   5   0  -6 1234.58 430.659   1
   0  -5  -6 1266.59 413.899   1
  -5   0   6 1002.52 372.181   1
   5   0   6 794.267 409.422   1
  -5   5  -6 713.940 260.080   1
   5  -5   6 1536.13 539.910   2
   0  -5   6 1295.65 544.134   1
   0   5  -7 512.391 365.876   1
  -5   0  -7 618.742 354.726   1
   5   0   7-139.775 286.133   2
   5  -5   7 253.682 286.123   1
   0  -5   7 1116.56 463.449   1
   0  -5  -7 456.036 213.243   1
  -5   5  -7 261.425 265.127   1
   5   0  -7 468.992 324.202   1
   5   0   7 35.0621 399.539   1
   0   5   7 581.430 360.667   1
   5  -5   7 334.776 367.458   2
   0  -5   7 82.3607 346.456   2
  -5   0   7 771.403 334.273   1
  -5   0   8 320.119 297.761   1
  -5   0  -8 481.940 352.739   1
   0   5  -8 781.218 481.307   1
   5  -5   8-108.672 331.355   1
   0  -5  -8 180.663 344.622   1
   5   0   8-350.049 433.081   1
   0  -5   8-102.922 402.353   1
   0   5   8 236.678 398.715   1
  -5   5  -8 532.741 374.186   1
   5   0   8 599.523 361.354   2
   5   0  -8 297.741 354.847   1
   0  -5   8 327.100 275.290   2
   5  -5   8 329.430 322.636   2
   5  -5   9 82650.3 3598.55   1
  -5   5  -9 83377.3 3605.37   1
  -5   0   9 84621.6 3518.73   1
   0   5   9 80722.3 3335.00   1
   0  -5   9 82814.8 3644.94   1
   5   0   9 88730.5 3681.60   1
   0  -5   9 82194.5 3588.10   2
   0  -5  -9 100026. 3535.97   1
   5  -5   9 79870.3 3594.58   2
   5   0  -9 87499.0 3482.85   1
   0   5  -9 77342.0 3545.89   1
   5   0   9 86072.3 3522.37   2
  -5   0  -9 84372.9 3578.00   1
   5  -5  10 412924. 9718.74   1
  -5   5 -10 394920. 9583.46   1
   5   0  10 408215. 9663.57   1
   0  -5  10 415858. 9785.33   2
  -5   0  10 407545. 9557.77   1
  -5   0 -10 402141. 9516.42   1
   5   0 -10 399279. 9298.41   1
   0  -5 -10 407506. 9158.09   1
   5   0  10 397465. 9443.67   2
   5  -5  10 395989. 9591.40   2
   0  -5  10 401121. 9735.11   1
   0   5 -10 397449. 9713.20   1
   0   5  10 381324. 9101.00   1
   0   5  11 204290. 6060.60   1
   5  -5  11 207764. 6420.92   1
   0  -5  11 204105. 6395.73   2
  -5   5 -11 202175. 6267.49   1
   5   0  11 192406. 6145.71   2
  -5   0  11 219127. 6384.62   1
   5  -5  11 204612. 6347.70   2
  -5   0 -11 204489. 6211.44   1
   5   0  11 200130. 6258.93   1
   0  -5  11 221624. 6588.39   1
   5   0 -11 203777. 6077.87   1
   0   5 -11 202756. 6354.28   1
   0   5  11 207698. 6368.31   2
   0  -5 -11 199026. 5840.79   1
   0   5  12 106856. 4190.87   1
   0   5 -12 101764. 4297.89   1
   5  -5  12 103872. 4363.17   1
  -5   5 -12 101400. 4255.37   1
   5   0  12 96310.4 4119.26   2
   5   0  12 103262. 4356.32   1
  -5   0  12 99072.1 4186.64   1
  -5   0 -12 101360. 4177.76   1
   5  -5  12 104260. 4307.95   2
   0  -5  12 96398.0 4225.43   1
   0  -5 -12 100278. 3946.76   1
   0  -5  12 98309.3 4264.65   2
   5   0 -12 110477. 4284.54   1
   0   5  12 88070.6 3938.16   2
   0  -5  13 92641.1 4237.27   1
   5  -5  13 95711.3 4283.58   1
  -5   5 -13 95955.3 4215.04   1
   5   0  13 102943. 4397.63   1
   0  -5  13 97452.8 4332.58   2
   0  -5 -13 101442. 4061.25   1
  -5   0  13 103858. 4351.96   1
  -5   0 -13 104774. 4270.29   1
   5   0 -13 100903. 4247.54   1
   0   5 -13 95502.0 4242.47   1
   5  -5  13 95552.9 4204.92   2
   0   5  13 99347.2 4150.84   1
   5   0  13 94437.5 4098.42   2
   0   5  13 88429.4 3974.23   2
   0  -5  14 259079. 7780.58   2
   0  -5 -14 257485. 7260.41   1
   0   5  14 282035. 7782.34   1
   5   0  14 249789. 7574.68   1
  -5   0 -14 247661. 7279.95   1
  -5   5 -14 254449. 7599.13   1
   0   5 -14 251902. 7639.30   1
  -5   0  14 277644. 7862.46   1
   5  -5  14 241883. 7440.68   2
   5   0 -14 249247. 7484.69   1
   5  -5  14 225436. 7391.37   1
   0  -5  14 260735. 7771.04   1
   5   0  14 247299. 7347.60   2
   5  -5  15 17193.0 1815.47   1
  -5   5 -15 16664.2 1758.95   1
   0   5  15 16496.3 1736.97   1
   5   0  15 16626.7 1762.44   2
  -5   0  15 14571.9 1646.68   1
   0  -5  15 19070.6 1936.66   2
  -5   0 -15 15994.1 1665.90   1
   0  -5  15 15029.8 1702.07   1
   5  -5  15 13182.0 1594.74   2
   5   0 -15 15219.1 1649.00   1
   5   0  15 13888.4 1615.53   1
   0   5 -15 14220.0 1632.99   1
   0   5 -16 6546.77 1150.30   1
   5   0 -16 3414.77 975.266   1
   0  -5  16 5960.09 1123.39   2
   5   0  16 6898.05 1133.97   1
  -5   0 -16 7304.54 1214.53   1
  -5   5 -16 6483.36 1137.62   1
   0  -5  16 6064.95 1111.91   1
   5  -5  16 8499.32 1231.72   2
  -5   0  16 6564.62 1190.34   1
   5  -5  16 6019.93 1104.88   1
   5   0  16 5865.39 1040.73   2
   5   0  17 6040.35 1084.92   1
   0  -5  17 5288.47 1123.32   1
  -5   5 -17 6506.60 1198.82   1
   5  -5  17 6113.09 1157.00   2
   5   0  17 6077.13 1207.07   2
   0   5 -17 5568.75 1111.34   1
   5  -5  17 6178.12 1161.69   1
  -5   0 -17 4109.70 943.618   1
   5  -5  18 6349.16 1181.39   1
   5   0  18 6884.03 1241.62   1
   5   0  18 4504.64 998.829   2
   0  -5  18 7917.10 1376.91   1
  -5   5 -18 6257.20 1068.82   1
   5  -5  18 5441.07 1159.38   2
  -5   0 -18 7172.16 1164.75   1
   0   5 -18 5328.84 1065.88   1
  -5   5 -19 10370.4 1453.53   1
   5  -5  19 9136.59 1390.61   1
   0   5 -19 9733.29 1390.25   1
   5   0  19 10196.2 1502.07   1
  -5   0 -19 10785.6 1481.08   1
   5  -5  19 9727.57 1411.95   2
   0  -5  19 9326.70 1477.88   1
   5   0  19 7309.33 1356.77   2
   5   0  20 2278.79 958.690   2
   5  -5  20 668.685 331.456   2
  -3  -3 -19 369.459 413.026   1
   3   3  19-164.234 273.945   1
   3  -6  19-826.767 471.846   2
  -3   6 -18 2997.78 809.236   1
  -3  -3 -18 5818.72 1047.70   1
   3   3  18 4961.67 1041.33   1
   3  -6  18 4236.97 993.994   1
   3  -6  18 3684.71 967.889   2
   3   3  17 82.5183 288.103   1
   3  -6  17-82.5872 419.772   1
   3   3  17 278.183 384.482   2
  -3  -3 -17-292.137 335.045   1
  -3   6 -17-10.5417 436.951   1
   3  -6  17 46.5065 442.115   2
   3   3  16 251764. 7680.49   1
   3  -6  16 222243. 7591.11   2
  -3  -3 -16 230818. 7227.17   1
   3   3  16 245829. 7749.07   2
  -3   6 -16 242134. 7604.70   1
   3  -6  16 237118. 7812.82   1
  -3  -3 -15 58.0146 384.904   1
   3  -6  15-12.6482 452.826   1
  -3   6 -15 117.808 325.590   1
   3   3  15 65.5196 303.337   1
   3  -6  15 301.653 297.123   2
   3   3  15-151.067 356.614   2
   3   3  14 150155. 5535.86   1
   3   3  14 144767. 5353.21   2
  -3  -3 -14 150895. 5374.81   1
   3  -6  14 147874. 5749.22   1
   3  -6  14 145903. 5555.94   2
  -3   6 -14 143212. 5482.79   1
   3  -6  13-65.4133 483.477   1
  -3   6 -13 212.665 422.762   1
   3  -6  13-679.560 497.802   2
   3   3  13-55.1233 488.746   1
   3   3  13-76.5226 277.050   2
  -3  -3 -13 407.666 256.119   1
   3   3  12 74712.6 3628.83   1
  -3  -3 -12 75188.1 3558.67   1
   3  -6  12 80787.1 3850.31   2
   3   3  12 82204.6 3697.55   2
  -3   6 -12 72203.6 3638.45   1
   3  -6  12 76673.2 3806.13   1
  -3  -3 -11 759.644 516.981   1
   3  -6  11 55.9160 372.262   1
  -3   6 -11 339.138 443.028   1
   3  -6  11 369.005 261.694   2
   3   3  11-141.485 439.502   1
   3   3  11 871.355 456.237   2
   3   3  10 298361. 7913.55   1
   3   3  10 312925. 8037.43   2
  -3  -3 -10 301440. 7810.70   1
   3  -6  10 304936. 8120.05   2
  -3   6 -10 290219. 7970.08   1
   3  -6  10 294897. 8069.93   1
   3  -6   9 1192.59 474.935   2
   3  -6   9 116.953 304.780   1
   3   3   9 79.3068 328.741   1
  -3  -3  -9 271.073 348.612   1
  -3   6  -9 228.169 326.177   1
   3   3   9 141.997 372.666   2
   3  -6   8 662789. 13882.0   2
   3   3   8 671918. 13831.2   1
  -3  -3  -8 660674. 13531.7   1
   3  -6   8 669156. 13847.1   1
   3   3   8 707764. 13975.6   2
  -3   6  -8 677619. 13768.6   1
   3  -6   7-267.929 266.248   1
  -3   6  -7 151.496 316.596   1
  -3  -3  -7 212.353 421.637   1
   3  -6   7 0.72203 393.201   2
   3   3   7 37.9915 353.603   1
  -6   3   7-36.4694 153.179   1
  -3   6  -6 86767.6 3538.31   1
   3  -6   6 87126.6 3641.71   2
   3   3   6 89561.8 3582.93   1
   6  -3  -6 87204.3 2776.83   1
  -3  -3  -6 89810.0 3547.27   1
   3  -6   6 87323.6 3490.50   1
  -6   3   5 60.0511 180.537   1
  -3   6  -5 1042.90 441.941   1
  -3  -3  -5 873.984 468.154   1
   3   3   5 198.003 396.523   1
   6  -3  -5 264.460 181.692   1
   3  -6   5 75.7468 341.383   2
  -3   6  -3 148.037 200.978   1
   3  -6   3 204.760 235.074   1
   3  -6   3 141.869 358.928   2
   3   3   3-52.5348 274.339   1
   6  -3  -3-127.524 171.262   1
  -6   3   3-119.377 149.970   1
  -3  -3  -3-501.305 406.096   1
   6  -3  -3 244.486 199.157   2
   3   3   2 203752. 5622.91   1
  -3  -3  -2 206864. 5662.73   1
   6  -3  -2 208427. 4628.37   1
   6  -3  -2 209538. 4764.30   2
   3  -6   2 185653. 5465.05   2
  -3   6  -2 193707. 5082.21   1
  -6   3   2 195979. 4649.08   1
   3  -6   2 187463. 4926.31   1
   6  -3  -1 136.837 169.853   2
   3  -6   1 368.214 271.331   2
  -3  -3  -1 175.478 316.535   1
   3  -6   1-94.7838 208.862   1
   6  -3  -1-38.8270 177.825   1
  -6   3   1 269.735 228.673   1
  -3   6  -1-223.565 288.934   1
   3   3   1 162.542 314.070   1
   3  -6   0 74799.6 2477.07   1
   6  -3   0 76116.8 2575.64   1
   6  -3   0 81014.6 2802.10   2
  -6   3   0 69453.1 2515.79   1
   3  -6   0 77841.9 3105.54   2
  -3  -3   0 78584.9 3140.58   1
   3   3   0 76972.6 3143.76   1
  -3   6   0 70527.1 2501.25   1
   6  -3   1 166.840 190.246   1
  -6   3  -1 420.751 334.754   1
   3  -6  -1 429.811 228.321   1
   3  -6  -1 278.726 367.971   2
  -3  -3   1 767.841 431.488   1
   6  -3   1-117.851 259.350   2
   3   3  -1-148.941 246.772   1
  -3   6   1 289.344 147.507   1
  -6   3  -2 180745. 4753.00   1
   3  -6  -2 172459. 4063.70   1
  -3   6   2 190459. 4223.15   1
  -3  -3   2 181158. 5173.31   1
   6  -3   2 179560. 4870.09   2
   6  -3   2 174035. 4637.19   1
  -6   3  -3 1171.47 400.981   1
  -3  -3   3 1010.73 537.415   1
   3  -6  -3 1397.32 296.452   1
   6  -3   3 751.531 257.635   1
  -3   6   3 1550.52 297.104   1
   3   3  -3 1199.32 563.399   1
   6  -3   3 946.988 375.935   2
   3  -6  -5 595.958 200.397   1
   6  -3   5 347.711 326.455   1
  -3   6   5 654.429 224.625   1
   6  -3   5-119.574 262.180   2
   3   3  -5 391.301 346.485   1
  -6   3  -5 228.137 270.520   1
  -3  -3   5-14.4307 266.377   1
  -3  -3   6 30350.2 2052.18   1
   6  -3   6 35998.8 2084.92   1
  -3   6   6 33254.4 1391.69   1
  -6   3  -6 30777.0 1942.27   1
   3   3  -6 31253.3 2061.19   1
   6  -3   6 36062.3 2086.15   2
  -3  -3   7 48.0258 345.441   1
   6  -3   7-81.6034 294.977   1
  -6   3  -7 333.731 252.900   1
   6  -3   7 142.204 317.538   2
   3   3  -7 809.449 472.190   1
   6  -3   8 334711. 8364.06   1
   6  -3   8 354213. 8367.38   2
  -3  -3   8 341794. 8562.47   1
  -6   3  -8 338749. 8304.63   1
   3   3  -8 348879. 8470.87   1
   6  -3   9 234.324 423.453   1
   6  -3   9-312.328 243.680   2
  -3  -3   9-101.950 441.611   1
   3   3  -9 274.965 404.913   1
  -6   3  -9 28.9425 315.989   1
   6  -3  10 292627. 7780.78   1
   6  -3  10 282386. 7509.99   2
  -6   3 -10 275054. 7515.60   1
   3   3 -10 279395. 7556.39   1
  -3  -3  10 266013. 7522.29   1
   3   3 -11 783.782 468.883   1
   6  -3  11 250.060 373.095   2
   6  -3  11 327.539 496.344   1
  -6   3 -11-359.904 442.206   1
  -3  -3  11 131.762 345.733   1
   6  -3  12 254679. 7289.93   2
   6  -3  12 255491. 7511.33   1
  -6   3 -12 253158. 7353.08   1
  -3  -3  12 265496. 7594.70   1
   3   3 -12 272613. 7586.07   1
   3   3 -13 360.519 448.298   1
   6  -3  13-299.528 436.348   1
   6  -3  13 34.9416 381.376   2
  -6   3 -13 196.871 357.094   1
  -3  -3  13 257.663 373.627   1
   6  -3  14 68993.1 3685.80   1
  -6   3 -14 77587.7 3781.06   1
  -3  -3  14 80522.9 3959.18   1
   6  -3  14 75978.7 3717.83   2
   3   3 -14 72747.6 3725.39   1
  -3  -3  15-137.716 363.878   1
   3   3 -15-521.395 323.188   1
   6  -3  15-288.819 387.740   1
   6  -3  15 158.752 346.645   2
  -6   3 -15 389.192 438.032   1
   6  -3  16 79571.1 3995.63   2
   6  -3  16 88019.7 4261.70   1
  -6   3 -16 90092.2 4177.65   1
   3   3 -16 82441.4 4097.92   1
  -3  -3  16 80088.8 4114.83   1
   3   3 -17-507.825 476.872   1
   6  -3  17-155.635 487.309   1
  -3  -3  17 10.9007 328.376   1
  -6   3 -17-674.867 472.771   1
   6  -3  17 339.808 555.284   2
   3   3 -18 66.1728 524.215   1
  -3  -3  18-92.9192 369.991   1
   6  -3  18 419.362 502.650   1
  -6   3 -18-187.104 339.809   1
   6  -3  18-552.498 342.451   2
  -3  -3  19 306.024 487.909   1
   3   3 -19-244.561 462.005   1
   6  -3  19 347.588 424.995   2
   2   4  19 39518.9 3012.22   1
   4   2  19 48107.2 3248.19   1
   4  -6  19 40162.2 3075.41   2
  -4  -2 -19 48644.6 3124.81   1
   4   2  19 41456.8 3126.53   2
   4  -6  18 75740.0 4177.14   1
   4   2  18 77648.0 4130.50   1
  -2  -4 -18 59392.1 3542.45   1
   4   2  18 64621.8 3888.77   2
   4  -6  18 73260.8 4107.49   2
   2  -6  18 71205.6 4109.70   2
  -4   6 -18 75973.7 3975.66   1
   2   4  18 67765.6 3885.72   1
  -2   6 -18 73411.0 3991.71   1
  -4  -2 -18 73390.9 3833.36   1
   4  -6  17 12296.9 1621.97   1
   4   2  17 12943.0 1644.65   1
   4  -6  17 12173.0 1608.30   2
  -4   6 -17 11477.3 1601.89   1
  -2  -4 -17 10612.5 1395.12   1
  -4  -2 -17 11776.9 1466.66   1
   2  -6  17 10658.6 1608.34   2
   2   4  17 12071.7 1563.71   1
   4   2  17 11338.2 1567.91   2
   2  -6  17 13255.1 1703.58   1
  -2   6 -17 16431.9 1897.04   1
   4  -6  16 45554.3 3089.02   1
   2   4  16 41393.9 2875.79   1
   4   2  16 40948.2 2880.96   1
  -2  -4 -16 43154.9 2805.22   1
  -4  -2 -16 41489.1 2742.53   1
   4   2  16 36191.4 2780.60   2
   2  -6  16 39820.1 2916.61   2
   4  -6  16 40563.1 2903.66   2
   2  -6  16 44947.6 3110.80   1
   2   4  16 40713.6 2836.44   2
  -2   6 -16 41067.0 2853.63   1
  -4   6 -16 44095.8 2885.02   1
   4  -6  15 13744.8 1678.70   1
   4   2  15 11969.0 1515.94   1
   2   4  15 13542.6 1531.65   2
  -2  -4 -15 14444.8 1575.24   1
   4  -6  15 12716.4 1613.40   2
  -4   6 -15 13859.2 1620.15   1
   2  -6  15 13244.9 1633.93   2
  -2   6 -15 12538.5 1594.48   1
  -4  -2 -15 13184.4 1538.09   1
   2   4  15 13571.6 1600.32   1
   4   2  15 12921.6 1595.73   2
   2  -6  15 12111.4 1585.23   1
   4  -6  14 117970. 4998.19   1
   4   2  14 122074. 4960.55   1
   2   4  14 120871. 4912.87   1
  -2   6 -14 126670. 5084.25   1
  -2  -4 -14 120038. 4709.50   1
  -4  -2 -14 122605. 4863.44   1
  -4   6 -14 121039. 4977.45   1
   2  -6  14 114573. 4961.37   2
   4   2  14 120229. 4835.43   2
   2   4  14 116637. 4886.39   2
   4  -6  14 116954. 4955.79   2
   2  -6  14 124782. 5138.66   1
  -4   6 -13 23020.1 2007.01   1
   4  -6  13 24563.9 2152.22   1
   4   2  13 25135.6 2119.92   1
   2   4  13 22303.8 1984.97   1
   2  -6  13 22546.0 2062.31   2
   4   2  13 25701.8 2051.08   2
  -4  -2 -13 22057.1 1901.02   1
   4  -6  13 21668.1 1984.83   2
   2   4  13 24917.1 1991.34   2
  -2   6 -13 23348.4 2035.76   1
  -2  -4 -13 23372.9 1930.39   1
   2  -6  13 23192.7 2113.85   1
   4  -6  12 22926.5 2016.30   1
   4   2  12 23506.4 2052.66   1
   2   4  12 27084.7 2066.05   1
  -2   6 -12 26160.1 2143.31   1
   2  -6  12 21475.0 2013.23   2
   4  -6  12 25430.3 2103.20   2
  -4  -2 -12 24916.9 2013.09   1
  -2  -4 -12 27978.1 2077.47   1
   4   2  12 26434.3 2004.93   2
   2   4  12 24583.5 2004.37   2
   2  -6  12 21724.4 2036.82   1
  -4   6 -12 25271.7 2086.23   1
   4  -6  11 34163.1 2425.16   1
  -4  -2 -11 39393.6 2452.23   1
   4   2  11 35359.9 2322.84   2
   4   2  11 36913.7 2440.06   1
   2   4  11 33763.6 2340.67   1
   4  -6  11 33116.9 2329.16   2
  -2  -4 -11 39809.7 2428.34   1
   2  -6  11 33635.7 2418.99   2
   2   4  11 35655.7 2382.37   2
  -2   6 -11 38770.0 2514.69   1
   2  -6  11 35585.1 2500.54   1
  -4   6 -11 33692.2 2403.53   1
   4  -6  10 132485. 5004.37   1
  -6   2  10 154772. 4809.09   1
   2  -6  10 136636. 5075.41   2
   4   2  10 141349. 4974.85   1
   2   4  10 147334. 5039.11   1
   4   2  10 141268. 4905.18   2
  -2  -4 -10 133707. 4709.09   1
   4  -6  10 141052. 5029.74   2
  -2   6 -10 145380. 5161.41   1
   2   4  10 160860. 5354.50   2
  -4  -2 -10 143065. 4984.63   1
  -4   6 -10 137471. 5030.85   1
   4  -6   9 155514. 5305.46   1
   6  -2  -9 169413. 4894.59   1
   2  -6   9 169198. 5483.37   1
   4   2   9 150294. 5231.29   1
   2   4   9 160299. 5244.09   1
  -4  -2  -9 175366. 5448.98   1
  -6   2   9 171954. 5004.13   1
  -4   6  -9 159014. 5348.36   1
   2  -6   9 166689. 5515.54   2
   4  -6   9 161211. 5428.75   2
  -2  -4  -9 156733. 5127.92   1
  -2   6  -9 165131. 5499.13   1
   4   2   9 160176. 5210.97   2
   2   4   9 174940. 5526.19   2
   4  -6   8 8680.96 1135.23   1
  -4  -2  -8 7741.59 1082.39   1
  -2   6  -8 8572.01 1143.95   1
  -4   6  -8 7199.85 1024.95   1
   2   4   8 9375.33 1173.23   1
   2  -6   8 7966.50 1131.25   1
   6  -2  -8 9338.99 965.363   1
   4   2   8 7827.54 1121.47   1
   2  -6   8 9822.12 1239.64   2
   4  -6   8 6662.78 1058.81   2
  -2  -4  -8 9139.58 1051.94   1
   4   2   8 8576.56 1085.22   2
  -6   2   8 9208.55 1000.96   1
   4  -6   7 164916. 5193.12   1
   2   4   7 159401. 5118.25   1
   4   2   7 175886. 5410.19   2
   4   2   7 163488. 5273.98   1
  -4  -2  -7 158139. 5103.76   1
  -6   2   7 170471. 4722.84   1
   6  -2  -7 162883. 4577.88   1
   4  -6   7 159505. 5201.27   2
   2  -6   7 157284. 5244.93   2
   2  -6   7 160215. 5151.51   1
  -2   6  -7 165786. 5262.26   1
  -2  -4  -7 162606. 5004.31   1
  -4   6  -7 165877. 5203.74   1
   4  -6   6 396099. 8990.81   1
  -4   6  -6 386062. 8945.58   1
   4   2   6 373062. 9076.14   1
   2   4   6 386357. 8962.22   1
   6  -2  -6 409700. 8321.31   1
   4  -6   6 388621. 9156.01   2
   2  -6   6 398749. 9309.03   2
  -4  -2  -6 395313. 9114.36   1
   4   2   6 429379. 9373.67   2
  -2   6  -6 373345. 9027.84   1
  -2  -4  -6 400351. 9002.71   1
   2  -6   6 387391. 9023.55   1
  -6   2   6 431308. 8631.18   1
   4  -6   5 77543.2 3112.91   1
  -4   6  -5 77608.2 3108.99   1
  -2   6  -5 78238.9 3242.09   1
   2  -6   5 76546.3 3165.59   1
   2   4   5 76639.7 3190.14   1
  -6   2   5 85484.8 3014.76   1
   6  -2  -5 80048.4 2881.64   1
   2  -6   5 75973.4 3324.05   2
   4  -6   5 76001.1 3276.46   2
   6  -2  -5 70969.4 2262.77   2
   4   2   5 79524.7 3270.27   1
  -4  -2  -5 79060.1 3254.77   1
  -2  -4  -5 76798.2 3153.75   1
   2  -6   4 352382. 8410.33   2
  -6   2   4 360091. 7627.46   1
   4   2   4 333049. 8168.43   1
   2   4   4 348907. 8149.37   1
   6  -2  -4 349502. 7423.22   1
  -4  -2  -4 349322. 8276.91   1
  -2  -4  -4 354674. 8107.74   1
   6  -4  -4 334980. 6544.96   2
  -2   6  -4 349812. 8126.73   1
   2  -6   4 355227. 7968.22   1
  -4   6  -4 361271. 7923.23   1
   4  -6   4 347466. 8172.31   2
   4  -6   4 350807. 7878.73   1
  -4  -2  -3 171654. 5322.93   1
  -2  -4  -3 191453. 5413.33   1
   2  -6   3 188791. 5125.42   1
  -6   2   3 210452. 5100.45   1
   2  -6   3 200185. 5643.53   2
   4   2   3 178204. 5398.22   1
   2   4   3 196788. 5435.28   1
   6  -2  -3 186807. 4777.82   1
  -6   4   3 182606. 3896.23   1
   4  -6   3 199777. 5542.77   2
   6  -4  -3 197732. 4399.81   2
  -2   6  -3 192223. 5269.92   1
   6  -2  -3 206136. 4647.77   2
  -4   6  -3 199724. 5053.99   1
   4  -6   3 208454. 5116.10   1
  -6   2   2 441201. 9237.47   1
  -4  -2  -2 460553. 10047.7   1
   4  -6   2 462363. 9852.44   2
  -2  -4  -2 484278. 10034.8   1
   6  -2  -2 479530. 9137.44   2
   4   2   2 468615. 10049.6   1
   2  -6   2 439855. 9436.63   1
   6  -2  -2 458000. 9171.35   1
   2   4   2 464250. 10028.6   1
   4  -6   2 474876. 9092.18   1
  -2   6  -2 465533. 9617.30   1
  -4   6  -2 473682. 9228.39   1
   2  -6   2 493726. 10247.9   2
   4  -6   1 31782.8 1549.49   1
   2  -6   1 30945.6 1684.97   1
   6  -4  -1 32937.1 1648.92   2
   6  -4  -1 31948.2 1359.72   1
  -4  -2  -1 33974.5 2072.81   1
   6  -2  -1 32976.6 1730.17   1
  -4   6  -1 31923.3 1579.84   1
  -2  -4  -1 32808.0 1976.50   1
   2  -6   1 34677.6 2104.21   2
   4   2   1 33976.8 1996.83   1
   4  -6   1 34541.7 1975.23   2
   2   4   1 34778.9 2035.86   1
  -6   4   1 29707.2 1363.33   1
  -2   6  -1 31725.6 1797.36   1
   6  -2  -1 34543.2 1781.51   2
  -6   2   1 32675.6 1758.53   1
   4  -6   0 6560.99 624.913   1
   2   4   0 6825.16 900.100   1
  -6   4   0 7253.90 682.375   1
   6  -4   0 5268.11 584.500   1
   6  -2   0 6430.45 749.491   1
   2  -6   0 6775.16 903.866   2
   4   2   0 6484.36 882.327   1
   2  -6   0 6039.16 698.859   1
  -4   6   0 6106.74 617.312   1
   6  -4   0 5904.01 745.819   2
   4  -6   0 7131.20 891.052   2
  -2   6   0 6334.48 731.160   1
  -6   2   0 6818.86 812.335   1
  -2  -4   0 7241.85 922.351   1
  -4  -2   0 6018.91 890.393   1
   6  -2   0 6657.02 760.886   2
   2   4  -1 1334.57 502.540   1
   2  -6  -1 1911.00 377.475   1
   6  -4   1 2416.89 467.160   1
  -6   2  -1 2188.30 514.706   1
   6  -2   1 2161.75 528.362   2
  -4  -2   1 1625.31 516.991   1
   6  -2   1 1423.65 401.582   1
   6  -4   1 1852.86 463.405   2
   4  -6  -1 2532.06 596.877   2
  -2  -4   1 2304.50 531.921   1
  -2   6   1 2018.08 408.546   1
  -6   4  -1 1936.46 383.316   1
   4   2  -1 2334.66 650.025   1
  -4   6   1 2017.11 351.088   1
   4  -6  -1 2135.03 330.931   1
   6  -2   2 354638. 7897.98   1
   2   4  -2 396901. 8600.82   1
   4  -6  -2 351409. 6308.28   1
   6  -4   2 353459. 7863.68   2
  -6   4  -2 360592. 7555.08   1
   2  -6  -2 393347. 7632.34   1
   4   2  -2 370317. 8347.65   1
  -4  -2   2 367041. 8380.15   1
   4  -6  -2 380324. 8136.62   2
  -2   6   2 366592. 7582.83   1
  -6   2  -2 379910. 8065.30   1
  -2  -4   2 351551. 8279.22   1
   6  -2   2 337783. 7892.65   2
   6  -4   3 423397. 8840.25   1
   2  -6  -3 461924. 8614.83   1
   6  -2   3 431606. 9077.76   1
  -6   4  -3 418143. 8748.40   1
   2   4  -3 429975. 9555.18   1
  -4  -2   3 421998. 9410.34   1
  -6   2  -3 421993. 9174.46   1
   6  -4   3 436360. 9173.20   2
   6  -2   3 427884. 9183.20   2
  -2  -4   3 430214. 9468.24   1
   4   2  -3 423353. 9476.37   1
  -6   2  -4 496.160 234.463   1
  -4  -2   4-69.1591 348.740   1
   6  -4   4 361.320 352.644   1
   2   4  -4 1657.79 551.397   1
   6  -2   4 508.953 405.746   1
  -6   4  -4 673.411 327.885   1
  -2   6   4 472.757 222.309   1
   4   2  -4 510.219 333.223   1
   2  -6  -4 790.350 276.527   1
   6  -4   4 663.021 358.583   2
  -2  -4   4 891.476 501.285   1
   6  -2   4 655.019 436.930   2
   6  -4   5 372134. 8436.46   1
  -2  -4   5 406953. 9012.52   1
  -4  -2   5 386667. 8851.08   1
   6  -2   5 385898. 8605.24   1
  -6   4  -5 404761. 8584.29   1
   2  -6  -5 363990. 7621.74   1
  -2   6   5 380416. 7769.18   1
  -6   2  -5 380343. 8677.30   1
   4   2  -5 392892. 8899.46   1
   2   4  -5 404508. 9016.01   1
   6  -4   5 367647. 8585.38   2
   6  -2   5 372036. 8604.04   2
   6  -4   6 278900. 6946.41   1
   6  -2   6 288319. 7048.41   1
  -2  -4   6 267129. 7194.69   1
  -2   6   6 273791. 6135.04   1
   4   2  -6 268785. 6993.83   1
  -6   4  -6 287472. 6956.39   1
   2  -6  -6 249916. 5915.31   1
   2   4  -6 286178. 7282.93   1
  -6   2  -6 264751. 6880.33   1
   6  -4   6 280796. 6973.88   2
   6  -2   6 274669. 6904.61   2
  -4  -2   6 254229. 6916.84   1
   6  -4   7 18756.4 1575.24   1
   6  -2   7 17644.6 1534.55   1
  -2   6   7 19310.3 1295.99   1
  -2  -4   7 17783.4 1581.75   1
   2  -6  -7 15870.8 1156.59   1
  -6   2  -7 17218.3 1469.12   1
   2   4  -7 18026.1 1577.60   1
   4   2  -7 16668.5 1514.70   1
   6  -4   7 16546.7 1475.58   2
  -4  -2   7 16560.4 1523.45   1
  -6   4  -7 15675.3 1377.39   1
   6  -2   7 16605.1 1492.26   2
   6  -4   8 108657. 4195.61   1
   6  -2   8 114999. 4301.65   1
  -4  -2   8 114461. 4323.97   1
  -2   6   8 141509. 3947.80   1
  -6   4  -8 117984. 4261.56   1
   2   4  -8 119916. 4453.20   1
  -6   2  -8 127056. 4392.64   1
  -2  -4   8 120905. 4499.14   1
   2  -6  -8 116232. 3579.32   1
   4   2  -8 106139. 4147.76   1
   6  -4   8 117255. 4258.14   2
   6  -2   8 125903. 4338.81   2
   6  -2   9 32013.3 2207.42   1
  -4  -2   9 30163.5 2172.25   1
   4   2  -9 30746.6 2111.01   1
  -6   2  -9 34218.7 2174.42   1
   6  -4   9 32548.8 2131.80   2
  -2  -4   9 30479.7 2178.59   1
   6  -2   9 33355.1 2183.51   2
   6  -4   9 31072.5 2127.62   1
   2   4  -9 28657.8 2121.65   1
  -6   4  -9 32130.3 2141.82   1
   6  -4  10 277982. 7599.49   1
   6  -2  10 291557. 7703.35   1
  -6   4 -10 275206. 7496.51   1
  -4  -2  10 281872. 7681.74   1
  -6   2 -10 267966. 7388.06   1
   6  -2  10 277699. 7380.60   2
  -2  -4  10 277534. 7659.83   1
   4   2 -10 271404. 7416.31   1
   6  -4  10 268266. 7356.71   2
   2   4 -10 281547. 7640.99   1
   6  -4  11 55443.4 3076.11   1
   6  -2  11 57554.3 3084.88   1
   2   4 -11 57783.6 3146.55   1
  -6   4 -11 56373.0 3044.01   1
  -6   2 -11 57716.3 3004.71   1
   6  -2  11 52959.0 2907.83   2
  -4  -2  11 58543.7 3167.84   1
  -2  -4  11 56619.9 3153.40   1
   6  -4  11 56908.9 3020.22   2
   4   2 -11 60340.8 3132.16   1
   6  -4  12 23897.7 2072.93   1
   6  -2  12 26498.4 2193.56   1
  -6   4 -12 25141.7 2048.83   1
  -6   2 -12 24822.0 2049.97   1
   4   2 -12 29291.9 2191.31   1
  -4  -2  12 27605.6 2195.20   1
  -2  -4  12 26016.1 2119.62   2
   6  -2  12 22880.9 1967.62   2
   6  -4  12 26207.5 2036.99   2
   2   4 -12 26020.4 2117.67   1
  -2  -4  12 24932.4 2094.35   1
   6  -4  13 26639.8 2215.15   1
   6  -2  13 25251.0 2150.33   1
  -6   4 -13 30805.5 2205.81   1
  -6   2 -13 24235.6 2063.37   1
   2   4 -13 24361.3 2126.22   1
   6  -4  13 23729.3 1987.76   2
   6  -2  13 24016.9 1967.02   2
   4   2 -13 23381.4 1998.34   1
  -2  -4  13 23656.0 2034.21   1
  -2  -4  13 22237.5 2050.17   2
  -4  -2  13 28959.0 2242.99   1
   6  -4  14 92997.8 4171.58   2
   6  -2  14 88756.9 4243.71   1
  -6   4 -14 91698.6 4187.19   1
  -6   2 -14 94861.8 4212.49   1
  -4  -2  14 87741.0 4167.17   1
   4   2 -14 95916.5 4259.51   1
   6  -2  14 89556.2 4050.63   2
   2   4 -14 88394.3 4206.41   1
   6  -4  14 94849.2 4295.17   1
  -2  -4  14 93312.3 4252.24   1
   6  -4  15 41724.0 2834.87   1
   6  -2  15 45625.9 2871.47   1
  -6   4 -15 42504.5 2807.51   1
  -6   2 -15 42029.2 2697.80   1
   6  -2  15 38254.9 2635.06   2
  -4  -2  15 39241.6 2768.64   1
   4   2 -15 39776.3 2786.17   1
   2   4 -15 37278.5 2728.97   1
   6  -4  15 40505.3 2739.08   2
  -2  -4  15 39079.8 2760.26   1
   4   2 -16 239.568 386.551   1
   2   4 -16 557.478 419.666   1
   6  -4  16 946.742 611.210   1
  -2  -4  16 387.137 521.226   1
  -6   4 -16 430.240 464.269   1
   6  -2  16 178.814 398.418   1
  -6   2 -16 771.250 482.884   1
  -4  -2  16 670.293 390.054   1
   6  -4  16-569.607 376.534   2
   6  -2  16 470.212 524.517   2
   4   2 -17 26570.9 2307.20   1
   6  -4  17 31171.1 2555.68   1
   6  -2  17 30817.2 2470.54   1
  -6   4 -17 31754.8 2468.71   1
  -6   2 -17 32109.6 2445.70   1
   6  -4  17 31178.2 2509.67   2
  -4  -2  17 30786.7 2552.06   1
   6  -2  17 28344.1 2456.39   2
   2   4 -17 29012.0 2467.43   1
  -2  -4  17 31947.4 2604.06   1
   6  -4  18 46373.0 3140.43   1
   6  -2  18 47002.0 3116.74   1
  -6   4 -18 52565.3 3192.74   1
  -4  -2  18 43315.8 3129.63   1
   6  -4  18 50071.2 3255.84   2
   6  -2  18 48371.0 3229.69   2
   4   2 -18 39349.7 2874.48   1
   2   4 -18 45707.1 3147.21   1
  -2  -4  18 44129.0 3138.40   1
  -6   2 -18 50262.3 3143.89   1
   6  -2  19 15215.0 1856.12   2
   2   4 -19 18058.0 2010.65   1
   6  -4  19 15766.4 1867.38   2
   4   2 -19 13829.8 1759.31   1
  -4  -2  19 15994.3 1952.33   1
  -2  -4  19 15785.2 1876.80   1
   5  -6  19 7104.69 1295.48   2
   5   1  19 6812.24 1265.48   2
   5  -6  18 47338.1 3288.90   1
   5   1  18 47455.0 3250.38   1
  -5  -1 -18 57402.3 3333.69   1
   5   1  18 43214.5 3112.13   2
   5  -6  18 52654.2 3369.37   2
  -1   6 -18 50312.0 3203.03   1
   1  -6  18 52522.5 3365.60   1
  -5   6 -18 50584.8 3284.55   1
   5  -6  17 10350.0 1572.29   1
   5   1  17 11018.1 1537.49   1
  -5  -1 -17 12018.2 1513.31   1
  -5   6 -17 8772.13 1398.34   1
   1  -6  17 9302.11 1443.17   1
   1  -6  17 9861.46 1526.11   2
   5  -6  17 9934.06 1483.13   2
  -1   6 -17 8555.14 1364.98   1
   5   1  17 10007.9 1478.28   2
   5  -6  16 3625.58 933.942   1
   1   5  16 3018.19 763.815   1
   5   1  16 3895.27 960.680   1
  -5   6 -16 3243.55 847.374   1
   1  -6  16 4343.50 1056.61   1
   1  -6  16 4085.27 969.299   2
  -1   6 -16 3881.74 961.888   1
  -5  -1 -16 4966.11 1016.19   1
   5  -6  16 4222.57 1002.21   2
   5   1  16 3063.44 712.403   2
  -5   6 -15 41999.5 2862.28   1
   5  -6  15 37279.9 2763.39   1
   5   1  15 40583.6 2831.01   1
   5   1  15 44026.5 2940.50   2
  -1  -5 -15 39963.1 2626.22   1
  -5  -1 -15 41066.9 2725.17   1
   1  -6  15 39100.2 2850.28   2
   5  -6  15 39310.8 2738.12   2
   1   5  15 45690.1 2964.92   1
  -1   6 -15 39280.6 2747.34   1
   1   5  15 34297.0 2629.76   2
   1  -6  15 42519.1 2850.70   1
   5  -6  14 115100. 4924.14   1
  -5   6 -14 122659. 5034.36   1
   5   1  14 114337. 4905.07   1
   1   5  14 119622. 4867.13   1
   1  -6  14 109091. 4918.04   2
  -5  -1 -14 123166. 4820.85   1
   1  -6  14 123728. 5074.77   1
   1   5  14 117823. 4892.03   2
   5  -6  14 113154. 4832.61   2
  -1   6 -14 116865. 4944.69   1
   5   1  14 114093. 4863.76   2
   5  -6  13 55965.9 3344.63   1
  -5   6 -13 63167.4 3440.97   1
   1  -6  13 61063.1 3441.43   2
   5   1  13 63823.0 3437.07   1
   1   5  13 70148.4 3516.13   1
  -6   1  13 69064.0 3562.23   1
   1   5  13 65011.0 3449.62   2
  -5  -1 -13 62865.3 3332.16   1
  -1  -5 -13 69421.8 3387.30   1
   5   1  13 64489.4 3447.61   2
   5  -6  13 64302.4 3488.29   2
  -1   6 -13 62688.4 3487.97   1
   1  -6  13 66960.4 3565.63   1
   5  -6  12 56937.5 3269.31   1
  -5   6 -12 64641.0 3380.19   1
   1   5  12 59426.2 3179.71   1
  -6   1  12 70770.1 3420.91   1
   5   1  12 65275.3 3341.30   1
   6  -1 -12 59027.6 3091.45   1
  -5  -1 -12 63146.1 3278.72   1
  -1  -5 -12 66129.6 3269.78   1
   5   1  12 66017.9 3297.85   2
   1  -6  12 58248.1 3284.03   2
   5  -6  12 59708.1 3233.38   2
  -1   6 -12 57505.4 3302.49   1
   1   5  12 64445.0 3397.43   2
   1  -6  12 59862.3 3350.94   1
   5  -6  11 38002.4 2540.42   1
  -5   6 -11 38139.8 2535.07   1
  -6   1  11 41246.3 2508.05   1
   6  -1 -11 35616.4 2275.13   1
   1   5  11 36849.7 2378.69   1
   1  -6  11 34879.0 2438.61   1
  -5  -1 -11 34587.2 2355.92   1
  -1  -5 -11 35795.1 2286.53   1
   5   1  11 39594.0 2499.96   1
   1   5  11 34040.4 2420.56   2
  -1   6 -11 39447.0 2621.31   1
   5  -6  11 35312.7 2434.77   2
   5   1  11 38054.6 2377.16   2
   1  -6  11 33973.9 2439.24   2
  -6   1  10 291281. 7779.43   1
   5  -6  10 305978. 8288.54   1
  -5   6 -10 321037. 8362.47   1
   5   1  10 313688. 8212.89   1
   1   5  10 313197. 8044.60   1
   6  -1 -10 308327. 7830.31   1
   1  -6  10 310603. 8308.95   1
  -5  -1 -10 305752. 8061.15   1
   1  -6  10 302788. 8314.37   2
  -1  -5 -10 332813. 8044.37   1
   5  -6  10 298846. 8188.54   2
  -1   6 -10 310363. 8322.57   1
   5   1  10 310144. 8045.59   2
   5  -6   9 16677.3 1576.33   1
  -5   6  -9 14535.5 1532.58   1
   5  -6   9 15119.3 1556.12   2
   5   1   9 16497.6 1551.83   1
   1   5   9 15258.2 1431.73   1
   1  -6   9 13836.5 1470.97   1
  -6   1   9 15650.8 1454.17   1
   1  -6   9 18644.1 1672.94   2
   6  -1  -9 19128.6 1533.63   1
  -1  -5  -9 13815.1 1383.17   1
  -1   6  -9 14493.8 1500.19   1
   5   1   9 14978.7 1456.57   2
  -5  -1  -9 16016.5 1531.59   1
   5  -6   8 21289.9 1777.30   1
  -5   6  -8 20104.2 1733.08   1
  -1  -5  -8 20361.2 1620.03   1
   1  -6   8 24178.3 1916.30   1
   5   1   8 22073.1 1767.48   1
   1   5   8 22412.2 1729.55   1
   1  -6   8 21763.2 1865.18   2
   5  -6   8 22561.2 1811.95   2
   6  -1  -8 24981.2 1734.22   1
  -6   1   8 23753.5 1713.85   1
   5   1   8 21486.2 1675.10   2
  -1   6  -8 20463.3 1772.65   1
  -5  -1  -8 25935.7 1938.65   1
  -5   6  -7 117597. 4317.49   1
   6  -1  -7 126972. 4159.85   1
   5   1   7 114700. 4266.23   1
   1   5   7 113629. 4160.72   1
   1  -6   7 116273. 4339.09   1
  -5  -1  -7 118475. 4324.94   1
   1  -6   7 114660. 4425.11   2
   5  -6   7 113715. 4332.49   2
  -6   1   7 124192. 4126.91   1
   5  -6   7 122575. 4331.08   1
  -1   6  -7 116151. 4398.81   1
  -1  -5  -7 112530. 4046.83   1
   5   1   7 119944. 4284.85   2
   5  -6   6 27900.6 1878.62   1
  -5   6  -6 23430.5 1779.05   1
  -6   1   6 22338.8 1637.40   1
   5  -6   6 25098.9 1828.84   2
   5   1   6 25819.6 1878.97   1
  -1   6  -6 22519.1 1793.76   1
   1   5   6 23837.2 1730.54   1
   1  -6   6 22223.5 1808.12   2
  -5  -1  -6 21283.4 1699.91   1
   1  -6   6 20739.4 1683.25   1
   5   1   6 24025.4 1803.27   2
  -1  -5  -6 23491.4 1674.70   1
   6  -1  -6 24553.4 1686.94   1
  -1  -5  -5 257192. 6364.96   1
  -5   6  -5 239896. 6209.03   1
   5  -6   5 231975. 6094.35   1
   5   1   5 230155. 6375.19   1
   5   1   5 237460. 6363.15   2
   1   5   5 233798. 6228.42   1
  -6   1   5 240180. 6143.39   1
   6  -1  -5 245351. 6061.31   1
   5  -6   5 217883. 6235.60   2
   1  -6   5 238914. 6386.82   1
   1  -6   5 228741. 6518.85   2
  -1   6  -5 211180. 6223.70   1
  -5  -1  -5 247606. 6477.84   1
   6  -1  -5 206097. 5313.19   2
   5  -6   4 5077.64 703.558   1
  -5   6  -4 4786.71 746.919   1
  -6   1   4 5260.78 759.576   1
   1  -6   4 5138.35 772.798   1
  -5  -1  -4 4939.75 786.882   1
   5   1   4 4601.85 756.960   1
   1  -6   4 6083.70 952.702   2
   1   5   4 5607.88 840.599   1
  -1   6  -4 4550.38 786.293   1
   6  -1  -4 4285.65 662.568   1
   5  -6   4 4471.90 735.484   2
   6  -5  -4 5137.45 581.863   2
  -1  -5  -4 4792.29 753.525   1
   6  -1  -4 5558.10 638.504   2
   5   1   4 5572.11 869.589   2
   5  -6   3 17675.1 1301.22   1
  -1  -5  -3 20088.1 1507.76   1
   1  -6   3 17631.3 1452.12   1
  -6   1   3 16968.4 1366.27   1
   5   1   3 19635.2 1520.98   1
   1   5   3 20315.1 1549.25   1
   1  -6   3 19959.7 1687.29   2
   6  -1  -3 17767.7 1326.55   1
   6  -5  -3 18914.5 1191.28   2
   5  -6   3 16883.5 1405.10   2
   5   1   3 15737.1 1386.32   2
  -1   6  -3 16970.0 1426.27   1
   6  -1  -3 18621.1 1296.34   2
  -5  -1  -3 16035.1 1409.12   1
  -5   6  -3 16302.9 1259.33   1
   1  -6   2 846311. 15606.3   1
  -5   6  -1 61973.8 2206.97   1
   6  -5  -1 63944.5 1830.16   1
  -6   1   1 64157.7 2751.45   1
  -1   6  -1 63350.9 2761.93   1
  -5  -1  -1 62425.4 2861.02   1
  -6   5   1 62596.3 1842.60   1
   5  -6   1 69872.1 2872.99   2
   6  -1  -1 62497.2 2664.87   1
   5   1   1 61679.5 2823.33   1
  -1  -5  -1 65656.3 2828.30   1
   1   5   1 62479.1 2852.86   1
   6  -1  -1 70458.8 2684.78   2
   6  -5  -1 64834.4 2489.46   2
   1  -6   1 52645.0 2508.51   1
   5  -6   1 64755.8 2221.79   1
  -6   1   0 299917. 6929.87   1
  -6   5   0 271640. 5612.42   1
  -5  -1   0 268983. 6952.13   1
   5  -6   0 268310. 5380.23   1
   6  -1   0 282444. 6673.41   1
   5   1   0 263958. 6815.04   1
   1   5   0 269020. 6914.38   1
   6  -5   0 277414. 6468.67   2
   5  -6   0 287908. 6757.41   2
  -1   6   0 271646. 6676.98   1
   1  -6   0 298456. 6691.67   1
   6  -1   0 289248. 6609.11   2
  -5   6   0 280175. 5507.05   1
  -1  -5   0 261572. 6807.43   1
   6  -1   1 458465. 9294.91   2
   1  -6  -1 422756. 9073.96   1
  -6   5  -1 411792. 8388.43   1
  -5  -1   1 455501. 9757.70   1
   5   1  -1 469863. 9789.43   1
   1   5  -1 456671. 9711.77   1
  -1  -5   1 440124. 9526.42   1
   6  -5   1 437428. 9197.99   2
  -6   1  -1 458915. 9562.98   1
   6  -5   2 319666. 6564.42   1
   6  -1   2 299622. 6975.26   2
  -6   5  -2 294815. 6414.67   1
   6  -1   2 274915. 6846.11   1
   1  -6  -2 309742. 6887.53   1
  -5  -1   2 290154. 7275.18   1
   5   1  -2 299558. 7279.35   1
   6  -5   2 276198. 6846.60   2
   5  -6  -2 311859. 6880.15   2
  -1  -5   2 283474. 7088.70   1
  -6   1  -2 266165. 6909.78   1
  -1   6   2 277492. 6771.59   1
   1   5  -2 268385. 7037.69   1
   6  -5   3 63978.8 2548.07   1
  -6   1  -3 63734.8 2779.76   1
  -6   5  -3 57600.4 2452.46   1
   1  -6  -3 67044.5 2646.86   1
   6  -5   3 61246.6 2736.39   2
   6  -1   3 61977.6 2777.04   1
   5  -6  -3 65421.3 2631.17   2
  -1   6   3 66838.5 2686.43   1
  -5  -1   3 52269.8 2673.41   1
   5   1  -3 61676.1 2786.37   1
   6  -1   3 63058.5 2728.06   2
   1   5  -3 61248.5 2877.77   1
  -1  -5   3 59119.5 2787.64   1
   6  -5   4 15959.6 1283.07   1
   1  -6  -4 16104.6 1231.67   1
   6  -5   4 13593.3 1253.90   2
  -1  -5   4 16443.6 1434.20   1
  -6   5  -4 15546.2 1262.10   1
   6  -1   4 15737.1 1361.00   1
   5   1  -4 15678.9 1389.90   1
  -1   6   4 16435.6 1313.65   1
   5  -6  -4 17185.7 1252.25   2
  -5  -1   4 14805.0 1345.55   1
   1   5  -4 14462.8 1388.51   1
  -6   1  -4 14277.6 1356.13   1
   6  -1   4 17259.7 1365.23   2
  -5  -1   5 4997.68 828.705   1
  -1   6   5 4454.26 686.836   1
  -6   1  -5 4086.19 739.670   1
   6  -5   5 4015.00 697.902   1
  -1  -5   5 4776.15 842.745   1
   6  -1   5 5054.43 785.492   1
   1  -6  -5 4385.49 660.760   1
  -6   5  -5 5092.97 743.588   1
   6  -1   5 4950.44 740.538   2
   5   1  -5 4569.38 767.599   1
   6  -5   5 4739.58 824.999   2
   1   5  -5 3502.24 712.930   1
   6  -5   6 133376. 4355.22   1
  -6   5  -6 128259. 4300.31   1
   6  -1   6 133131. 4493.33   1
  -1   6   6 144287. 4229.14   1
  -1  -5   6 130850. 4591.00   1
   5   1  -6 131534. 4455.52   1
   6  -5   6 130473. 4465.71   2
   1   5  -6 123926. 4547.87   1
  -5  -1   6 119192. 4310.48   1
   6  -1   6 132753. 4394.22   2
  -6   1  -6 121414. 4373.24   1
   1  -6  -6 131042. 4004.10   1
   6  -5   7 106643. 3992.11   1
   6  -1   7 100232. 3932.00   1
   6  -1   7 107750. 4035.03   2
  -1   6   7 116826. 3860.33   1
  -6   1  -7 111898. 4108.52   1
   1  -6  -7 123747. 3836.69   1
  -1  -5   7 107822. 4200.11   1
  -6   5  -7 108082. 4031.36   1
   5   1  -7 107596. 4001.65   1
   6  -5   7 103425. 3975.56   2
   1   5  -7 106614. 4200.30   1
  -5  -1   7 106623. 4027.25   1
  -5  -1   8 21068.7 1722.05   1
   6  -5   8 22195.9 1767.68   1
  -1  -5   8 21279.9 1752.67   1
  -6   5  -8 20175.7 1697.93   1
   6  -1   8 22086.4 1722.46   1
  -1   6   8 23990.1 1640.84   1
   1  -6  -8 22743.7 1572.92   1
  -6   1  -8 22900.6 1785.04   1
   5   1  -8 21110.8 1696.86   1
   6  -5   8 17682.2 1648.52   2
   1   5  -8 22831.8 1825.92   1
   6  -1   8 21536.6 1710.79   2
  -1  -5   8 21760.4 1853.97   2
   6  -5   9 202780. 6248.49   1
  -5  -1   9 191812. 6015.39   1
  -6   5  -9 195205. 6101.36   1
   6  -1   9 219108. 6388.56   1
  -1   6   9 214271. 5796.58   1
  -1  -5   9 200508. 6270.76   1
  -1  -5   9 200103. 6362.44   2
   5   1  -9 200872. 5998.29   1
  -6   1  -9 206696. 6119.17   1
   6  -5   9 201910. 6125.01   2
   1   5  -9 196440. 6239.08   1
   6  -1   9 207877. 6142.69   2
   1  -6  -9 207649. 5615.36   1
   6  -5  10 260139. 7328.25   1
  -1  -5  10 265173. 7614.55   2
  -6   5 -10 262633. 7280.03   1
  -5  -1  10 261395. 7315.96   1
   6  -1  10 274773. 7395.41   1
  -1   6  10 264599. 6869.87   1
  -6   1 -10 249124. 7152.65   1
   5   1 -10 264767. 7254.36   1
   1  -6 -10 258707. 6717.83   1
   6  -1  10 253436. 7171.99   2
   6  -5  10 262506. 7273.07   2
   1   5 -10 254820. 7392.08   1
  -1  -5  10 267101. 7522.32   1
   6  -5  11 48825.9 3003.77   1
  -6   5 -11 55201.6 2964.87   1
   6  -1  11 56776.5 3061.18   1
  -1   6  11 53592.3 2795.97   1
  -5  -1  11 50415.8 2918.75   1
  -6   1 -11 56223.5 2978.76   1
  -1  -5  11 51821.6 3042.23   2
   6  -5  11 58240.8 3112.09   2
   1   5 -11 53880.6 3096.13   1
   6  -1  11 50756.0 2851.39   2
   5   1 -11 58777.9 3031.63   1
  -1  -5  11 52802.1 3038.60   1
   6  -5  12 28375.3 2264.49   1
  -6   5 -12 30447.9 2293.97   1
  -5  -1  12 33947.2 2420.65   1
  -6   1 -12 29004.0 2212.57   1
   6  -5  12 33314.2 2333.03   2
  -1  -5  12 30779.4 2335.32   1
   5   1 -12 31891.0 2292.52   1
   1   5 -12 30953.4 2340.41   1
   6  -1  12 29929.1 2312.39   1
   6  -1  12 31304.2 2222.68   2
  -1  -5  12 29870.0 2298.19   2
   6  -5  13 28099.9 2229.45   1
   5   1 -13 24614.6 1999.60   1
  -5  -1  13 23729.4 2069.99   1
  -6   5 -13 22903.8 2052.48   1
  -6   1 -13 25603.1 2060.82   1
   6  -5  13 23420.7 2077.02   2
  -1  -5  13 23333.9 2118.53   2
   6  -1  13 24677.2 2099.06   1
   6  -1  13 26051.6 2097.78   2
   1   5 -13 22341.0 2022.39   1
  -1  -5  13 25615.2 2198.01   1
  -1  -5  14 147869. 5598.57   1
   5   1 -14 138828. 5299.00   1
  -6   5 -14 136977. 5283.73   1
   6  -1  14 136265. 5366.23   1
  -1  -5  14 127784. 5393.93   2
   6  -5  14 130016. 5204.44   2
  -6   1 -14 141189. 5278.37   1
  -5  -1  14 148902. 5618.94   1
   6  -5  14 133667. 5380.31   1
   6  -1  14 134864. 5169.76   2
   1   5 -14 142235. 5475.82   1
   6  -5  15 21386.2 2070.45   1
  -1  -5  15 24972.8 2259.52   1
  -6   5 -15 23901.7 2108.60   1
   6  -1  15 28401.2 2313.32   1
  -6   1 -15 28709.5 2206.11   1
  -5  -1  15 27115.0 2343.95   1
   6  -1  15 21661.2 2012.26   2
   6  -5  15 25411.3 2141.72   2
   1   5 -15 24908.9 2207.49   1
   5   1 -15 25949.8 2244.98   1
   6  -5  16 20783.9 2058.60   1
  -1  -5  16 25906.9 2320.86   1
  -6   5 -16 21912.3 2080.56   1
   6  -1  16 20801.4 2033.45   1
  -6   1 -16 23073.1 2084.66   1
  -5  -1  16 21460.8 2104.69   1
   6  -5  16 22658.5 2111.80   2
   5   1 -16 22039.8 2117.86   1
   6  -1  16 21591.9 2010.60   2
   1   5 -16 20016.1 1991.60   1
   6  -5  17 23511.2 2177.16   1
  -6   5 -17 22799.1 2117.20   1
  -1  -5  17 23755.1 2240.58   1
   6  -1  17 19137.0 1963.34   1
  -6   1 -17 23362.1 2124.42   1
   6  -5  17 22804.8 2218.13   2
  -5  -1  17 20525.6 2145.17   1
   5   1 -17 19797.2 2016.85   1
   6  -1  17 15353.9 1911.49   2
   1   5 -17 20916.1 2109.31   1
   6  -5  18 31225.5 2589.21   1
  -1  -5  18 28727.8 2523.03   1
  -6   5 -18 29690.1 2485.93   1
   6  -1  18 29658.7 2475.26   1
  -6   1 -18 31727.0 2460.74   1
  -5  -1  18 28814.8 2548.89   1
   6  -5  18 28158.5 2446.75   2
   6  -1  18 26164.1 2387.83   2
   1   5 -18 28681.5 2402.59   1
   6  -1  19 6340.70 1205.74   2
   6  -5  19 6899.00 1234.48   2
   6  -6   1 5775.78 626.775   1
   0  -6   1 5632.17 848.289   1
  -6   0  -1 5401.71 899.680   1
   6  -6   1 5049.72 740.165   2
   0  -6  -1 5368.85 780.637   1
   6   0   1 4681.66 788.062   1
   6   0  -1 5213.22 843.939   1
   0   6   1 4137.59 742.097   1
   6   0   1 4230.44 772.134   2
   6  -6  -1 5269.07 743.955   2
   0   6  -1 5947.51 870.379   1
  -6   6  -1 6767.97 681.537   1
  -6   0   1 5050.99 805.526   1
   6   0  -1 4474.45 853.784   2
   6  -6   2 14744.1 1087.36   1
  -6   6  -2 14314.8 1090.32   1
  -6   0   2 13673.7 1280.02   1
   0  -6  -2 14111.4 1257.38   1
   6   0   2 13564.4 1317.22   1
   6   0  -2 13617.1 1278.44   1
   0   6   2 14507.1 1329.74   1
   6   0  -2 12617.8 1236.27   2
   0  -6   2 12009.2 1208.61   1
   6  -6  -2 13197.2 1153.07   2
   0   6  -2 10947.6 1206.04   1
   6  -6   2 12831.9 1202.24   2
   6   0   2 11983.6 1240.66   2
  -6   0  -2 11632.3 1215.22   1
   6  -6   3 9550.52 926.719   1
  -6   6  -3 8201.21 909.420   1
   0  -6  -3 8413.18 980.750   1
  -6   0   3 8029.03 986.821   1
   0  -6   3 8302.19 1054.83   1
  -6   0  -3 8331.70 1058.91   1
   6  -6  -3 7489.95 844.072   2
   6   0   3 9513.30 1042.83   1
   0   6   3 6705.62 902.181   1
   6   0  -3 7331.55 927.418   1
   6  -6   3 8377.91 1027.98   2
   0   6  -3 7130.22 975.502   1
   6   0   3 8409.70 988.861   2
   6  -6   4 235526. 6094.53   1
  -6   6  -4 251850. 6208.33   1
   0  -6  -4 263584. 6431.35   1
   0  -6   4 220272. 6331.55   1
   6   0   4 211292. 6247.01   1
   0   6   4 247735. 6406.83   1
  -6   0   4 211078. 6219.13   1
   6   0  -4 247181. 6487.81   1
   6  -6  -4 252064. 5747.12   2
   6  -6   4 235953. 6428.53   2
   0   6  -4 245604. 6661.77   1
  -6   0  -4 224125. 6373.49   1
   6   0   4 250176. 6433.19   2
   0   6   5 3649.59 640.706   1
   6  -6   5 4467.06 723.775   1
  -6   0  -5 2455.03 589.979   1
   0  -6   5 4932.54 885.927   1
  -6   6  -5 2957.89 648.839   1
   6   0   5 3897.44 744.934   1
   6  -6   5 3722.69 699.410   2
   0  -6  -5 4213.90 758.017   1
   6   0  -5 5740.41 890.164   1
  -6   0   5 3854.56 722.556   1
   6   0   5 4052.70 769.194   2
   0   6  -5 3842.92 847.835   1
  -6   6  -6 13912.1 1311.03   1
   0   6  -6 12113.4 1353.85   1
   6   0   6 12591.9 1340.46   1
   6  -6   6 15776.1 1396.69   1
  -6   0   6 14507.0 1350.54   1
   0   6   6 14458.9 1346.72   1
   0  -6   6 12369.5 1365.11   1
   6  -6   6 14319.9 1441.45   2
   6   0  -6 13150.7 1306.16   1
  -6   0  -6 14467.4 1368.22   1
   6   0   6 12914.3 1320.55   2
   0  -6   6 14182.4 1505.34   2
   0  -6  -6 14176.3 1282.26   1
  -6   0   7 1940.45 569.708   1
  -6   0  -7 2233.99 630.795   1
   6  -6   7 2635.66 674.643   1
   6   0   7 2232.37 586.071   2
   6  -6   7 1413.73 486.131   2
   0  -6  -7 2592.45 604.264   1
  -6   6  -7 2842.11 675.016   1
   6   0   7 2815.77 701.338   1
   0   6   7 1717.62 420.839   1
   0  -6   7 1452.64 557.069   1
   0  -6   7 4118.91 866.371   2
   6   0  -7 2413.49 582.535   1
   0   6  -7 3115.32 682.746   1
   6  -6   8 353830. 8733.15   1
   0  -6   8 345849. 9004.02   2
  -6   6  -8 353731. 8698.48   1
   6   0   8 354107. 8795.05   1
   0   6   8 333469. 8356.88   1
   0  -6   8 320021. 8627.63   1
   0  -6  -8 366839. 8362.13   1
   6   0  -8 344361. 8472.41   1
   0   6  -8 332493. 8731.41   1
  -6   0   8 345522. 8532.70   1
   6   0   8 355231. 8513.84   2
   6  -6   8 347112. 8735.93   2
  -6   0  -8 339653. 8570.80   1
  -6   0  -9 3902.34 791.069   1
   0  -6  -9 4768.08 793.703   1
   6  -6   9 4836.61 926.327   1
   6   0   9 4004.58 800.315   1
  -6   6  -9 3896.54 810.176   1
   0   6   9 3672.95 754.217   1
   0  -6   9 5893.79 1067.91   2
   0   6  -9 2833.32 745.771   1
  -6   0   9 4388.16 829.982   1
   6  -6   9 4922.19 908.291   2
   6   0  -9 5361.34 966.684   1
   6   0   9 4161.41 801.935   2
   0  -6   9 4368.56 830.803   1
   6   0  10 5165.64 902.208   2
   0  -6  10 3927.17 853.810   1
   6  -6  10 5580.34 1005.88   1
   0  -6 -10 4339.94 737.274   1
   6   0  10 5380.15 921.706   1
   0   6  10 5020.41 894.680   1
  -6   6 -10 3666.08 761.939   1
   0   6 -10 3924.97 918.475   1
   0  -6  10 5529.68 1034.40   2
   6  -6  10 4218.32 943.462   2
  -6   0  10 4684.98 866.946   1
   6   0 -10 5051.33 867.413   1
  -6   0 -10 6821.85 1036.56   1
   0   6 -11-135.553 363.017   1
   6  -6  11 174.509 346.412   1
   6  -6  11 846.059 343.185   2
   0  -6  11 546.994 395.281   1
   6   0  11 1388.91 586.414   1
   0   6  11 503.993 343.076   1
  -6   6 -11 677.252 362.451   1
   0  -6  11 240.820 293.515   2
   6   0  11 317.283 293.848   2
   6   0 -11 1110.03 446.844   1
  -6   0  11 500.074 436.099   1
  -6   0 -11 598.538 539.172   1
   0  -6 -11 404.597 300.265   1
   0  -6  12 314540. 8644.81   1
   6  -6  12 316466. 8635.45   1
  -6   0  12 317281. 8457.30   1
  -6   6 -12 296799. 8408.61   1
   6   0  12 311319. 8413.76   1
   0   6  12 295259. 8140.76   1
   0  -6  12 287977. 8387.97   2
  -6   0 -12 308467. 8277.94   1
   0  -6 -12 302305. 7943.43   1
   6  -6  12 306014. 8334.48   2
   6   0 -12 326072. 8457.97   1
   0   6 -12 294351. 8412.27   1
   6   0  12 311728. 8360.70   2
   0   6 -13 197.226 394.176   1
   6  -6  13-23.0750 373.495   2
  -6   0  13 395.290 352.550   1
   6  -6  13 105.577 314.147   1
   0  -6  13-124.008 520.526   1
  -6   6 -13 124.844 421.515   1
   6   0 -13-245.517 391.184   1
   0  -6  13-213.343 331.190   2
  -6   0 -13-45.1123 375.723   1
   0   6  13-173.649 296.851   2
   6   0  13-409.172 429.278   1
   6   0  13-756.108 487.838   2
   0   6 -14 4041.60 876.078   1
   6  -6  14 5379.29 1056.72   1
  -6   0  14 4263.06 921.341   1
   6   0  14 4241.62 898.091   1
  -6   6 -14 4031.88 894.805   1
   0  -6  14 5667.29 1073.37   1
   6  -6  14 4860.35 965.136   2
   0  -6  14 3932.67 944.945   2
   6   0  14 4429.41 973.560   2
  -6   0 -14 6430.45 1109.55   1
   6   0 -14 4692.05 1040.49   1
   0   6 -15-615.493 465.015   1
   6  -6  15-329.752 401.288   1
   0  -6  15-37.3643 385.166   2
   6   0  15 483.469 514.229   1
  -6   6 -15 379.096 408.721   1
   0  -6  15-94.7493 378.009   1
  -6   0 -15 802.717 540.687   1
   6  -6  15 144.956 374.239   2
   6   0  15 311.998 310.849   2
   6  -6  16 118088. 5182.02   1
  -6   6 -16 118229. 5075.34   1
   6   0  16 128047. 5232.84   1
   0  -6  16 117450. 5242.18   1
   6   0  16 112996. 4976.87   2
  -6   0 -16 126945. 4999.77   1
   0  -6  16 105577. 5117.35   2
   6  -6  16 109588. 4905.55   2
   0   6 -16 106128. 4952.67   1
   0   6 -17 1011.14 510.820   1
   6  -6  17 570.691 336.660   1
   6   0  17 1141.51 588.661   1
  -6   6 -17 1869.74 616.632   1
   0  -6  17 42.8202 372.950   1
  -6   0 -17 1443.08 585.460   1
   6  -6  17 528.409 572.220   2
   6   0  17 1256.00 541.013   2
   0   6 -18 694.217 381.664   1
   6  -6  18 1825.47 785.699   1
   6   0  18 483.131 424.757   1
  -6   6 -18 1779.87 692.185   1
   0  -6  18 866.075 405.710   1
   6  -6  18-332.512 543.665   2
  -6   0 -18 1154.74 617.915   1
   6   0  18 306.078 477.462   2
   3   4  19 331.786 711.854   1
   3   4  18 92979.5 4606.85   1
   4   3  18 102357. 4850.20   1
  -3  -4 -18 90083.1 4391.01   1
  -4  -3 -18 92693.0 4485.56   1
   4  -7  18 100131. 4942.12   2
   4   3  18 86174.3 4591.81   2
  -4   7 -18 105062. 4888.09   1
   3  -7  18 97225.4 4944.87   2
   4  -7  18 103358. 5003.57   1
   3   4  17 47168.5 3180.97   1
   4   3  17 52560.7 3349.94   1
  -3  -4 -17 48389.8 3121.01   1
  -4  -3 -17 47571.6 3025.13   1
   4  -7  17 48383.5 3313.76   2
   4   3  17 46218.8 3243.92   2
   3   4  17 45953.6 3243.95   2
  -3   7 -17 54519.3 3421.64   1
  -4   7 -17 55054.3 3448.69   1
   3  -7  17 48757.5 3374.86   2
   4  -7  17 53416.4 3498.78   1
   4   3  16 41994.5 2958.35   1
   3   4  16 44282.8 3040.99   1
  -3  -4 -16 47031.1 2941.76   1
  -4  -3 -16 44265.5 2854.09   1
   3  -7  16 45580.5 3176.94   2
   4  -7  16 43662.4 3017.83   2
   4   3  16 42162.7 3015.74   2
   3   4  16 41317.1 2921.23   2
  -3   7 -16 46392.6 3078.62   1
  -4   7 -16 45132.5 3033.69   1
   3  -7  16 41746.4 3031.13   1
   4  -7  16 40977.8 3006.02   1
   3  -7  15 7862.44 1330.46   1
   4  -7  15 7513.74 1308.95   1
  -3   7 -15 8100.32 1194.59   1
  -4   7 -15 7153.21 1215.48   1
   4   3  15 8133.16 1300.54   1
   3   4  15 7585.43 1206.93   1
   3  -7  15 8029.59 1281.16   2
   4  -7  15 8055.04 1364.31   2
  -4  -3 -15 7590.65 1152.75   1
  -3  -4 -15 6328.76 1076.34   1
   4   3  15 7473.11 1262.64   2
   3   4  15 5968.71 1103.86   2
   4   3  14 111845. 4860.29   1
   3   4  14 125815. 5083.95   1
   4   3  14 124096. 5010.43   2
   4  -7  14 123332. 5143.44   2
  -4  -3 -14 124887. 4902.63   1
  -3  -4 -14 127230. 4956.47   1
   3  -7  14 121686. 5266.50   1
   3   4  14 120252. 4998.86   2
  -3   7 -14 124835. 5196.72   1
  -4   7 -14 119757. 5117.30   1
   3  -7  14 120200. 5205.71   2
   4  -7  14 123202. 5327.40   1
   3  -7  13 2806.11 817.066   1
   4  -7  13 4488.25 968.198   1
  -3   7 -13 4158.00 962.351   1
  -4   7 -13 4072.58 898.309   1
   4   3  13 4842.82 969.174   1
   3   4  13 4973.06 1014.41   1
   4  -7  13 3458.29 834.514   2
   4   3  13 4123.99 876.870   2
   3  -7  13 4789.62 1081.34   2
  -4  -3 -13 4585.00 883.680   1
  -3  -4 -13 4631.93 866.059   1
   3   4  13 4156.06 870.746   2
   3  -7  12 6357.31 1161.68   1
   4  -7  12 4905.77 968.327   1
  -3   7 -12 5594.65 1024.48   1
  -4   7 -12 5930.93 1120.74   1
   4   3  12 6526.03 1095.52   1
   3   4  12 6880.62 1168.56   1
   3  -7  12 5105.24 1026.18   2
   4  -7  12 6201.34 1156.37   2
   4   3  12 6958.44 1128.14   2
   3   4  12 6864.14 1117.52   2
  -4  -3 -12 5562.73 1034.06   1
  -3  -4 -12 7299.59 1130.21   1
  -4  -3 -11 60353.4 3219.70   1
   4  -7  11 57965.3 3315.12   2
   4   3  11 59878.4 3263.02   1
   3   4  11 65421.3 3356.68   1
   3  -7  11 60087.6 3390.38   2
  -3  -4 -11 64985.9 3271.78   1
   4   3  11 59902.7 3185.23   2
  -4   7 -11 60101.5 3343.08   1
  -3   7 -11 64484.4 3476.11   1
   3   4  11 67814.9 3445.77   2
   4  -7  11 60718.3 3386.35   1
   3  -7  10 24013.9 2054.38   1
  -4   7 -10 28243.9 2158.32   1
   4   3  10 32065.8 2290.18   2
   4   3  10 27765.5 2120.48   1
   3   4  10 26252.4 2059.37   1
   3  -7  10 27251.3 2201.89   2
   4  -7  10 27539.8 2161.64   2
  -4  -3 -10 27843.4 2087.60   1
  -3  -4 -10 26412.8 2051.23   1
  -3   7 -10 27687.8 2193.80   1
   3   4  10 29832.6 2255.11   2
   4  -7  10 28328.2 2236.21   1
   4   3   9 101924. 4182.89   1
  -3  -4  -9 93836.9 3992.87   1
  -4   7  -9 98283.9 4211.46   1
   3  -7   9 100820. 4294.88   2
  -4  -3  -9 95484.7 4051.65   1
  -3   7  -9 100209. 4255.18   1
   4  -7   9 92043.1 4166.94   2
   3  -7   9 103422. 4281.93   1
   4   3   9 113084. 4377.81   2
   3   4   9 110211. 4463.74   2
   3   4   9 106311. 4247.80   1
   4  -7   9 91418.6 4135.67   1
   4  -7   8 915.188 490.975   1
  -3   7  -8 359.832 322.224   1
  -4   7  -8 445.478 370.544   1
  -4  -3  -8 671.005 466.814   1
  -3  -4  -8-139.374 412.451   1
   4   3   8 377.325 404.694   1
   3   4   8 291.141 447.115   1
   3  -7   8 573.337 393.522   2
   4  -7   8-215.796 344.493   2
   4   3   8 534.485 346.033   2
   3  -7   8 332.667 339.345   1
  -4   7  -7 113783. 4410.24   1
   4   3   7 117184. 4483.30   1
   3   4   7 108503. 4313.45   1
   3  -7   7 120706. 4421.95   1
   4  -7   7 112415. 4476.56   2
  -3  -4  -7 120012. 4394.96   1
  -4  -3  -7 122583. 4421.17   1
  -3   7  -7 120062. 4526.31   1
   4   3   7 126338. 4568.52   2
   3  -7   7 118931. 4586.88   2
   4  -7   7 116598. 4420.97   1
   4   3   6 564669. 12405.7   1
   3   4   6 590853. 12450.1   1
   3  -7   6 589465. 12352.0   1
   4  -7   6 576582. 12603.5   2
  -3   7  -6 577481. 12366.6   1
  -4  -3  -6 597680. 12515.5   1
  -4   7  -6 587649. 12476.2   1
  -3  -4  -6 599392. 12423.1   1
   3  -7   6 617012. 12783.1   2
   3  -7   5 109873. 4047.13   1
  -7   3   5 101834. 3437.51   1
   4  -7   5 119043. 4064.75   1
   4   3   5 105956. 4082.03   1
   4  -7   5 106471. 4153.86   2
   3   4   5 108677. 4137.05   1
   7  -3  -5 107582. 3378.77   1
   3  -7   5 102276. 4160.95   2
  -3   7  -5 104716. 4023.76   1
  -3  -4  -5 114922. 4212.29   1
  -4   7  -5 111932. 4070.50   1
  -4  -3  -5 104649. 4067.47   1
  -4  -3  -4 280467. 7502.25   1
  -3  -4  -4 307886. 7650.67   1
  -7   3   4 302465. 6762.52   1
   4   3   4 277169. 7449.88   1
   7  -3  -4 308184. 6637.44   1
   3   4   4 275959. 7452.78   1
   4  -7   4 297132. 7156.70   1
   3  -7   4 276844. 7598.14   2
  -3   7  -4 297159. 7416.83   1
   4  -7   4 281123. 7523.00   2
  -4   7  -4 292974. 7201.65   1
   3  -7   4 299433. 7301.09   1
  -4  -3  -3 37233.2 2215.93   1
  -3  -4  -3 38754.3 2260.36   1
   4  -7   3 36563.1 1992.29   1
   7  -4  -3 37549.0 1739.33   2
  -7   4   3 35196.5 1602.18   1
   7  -3  -3 36077.0 1786.01   2
   7  -3  -3 35519.9 1799.90   1
   4   3   3 39821.1 2371.07   1
   3   4   3 36610.1 2280.00   1
   3  -7   3 35582.4 2275.53   2
  -3   7  -3 33574.0 2038.66   1
  -4   7  -3 37888.1 2060.34   1
   3  -7   3 34527.9 1992.61   1
   4  -7   3 34891.6 2243.95   2
  -7   3   3 35656.9 1866.87   1
   4  -7   2 275756. 7159.47   2
  -4  -3  -2 270999. 7150.10   1
  -3  -4  -2 253032. 6985.67   1
   7  -4  -2 246899. 5743.71   1
   7  -3  -2 279040. 6284.93   1
   3  -7   2 271593. 6607.15   1
   4   3   2 262065. 7062.90   1
   3   4   2 272594. 7146.40   1
  -7   4   2 295917. 6045.11   1
  -3   7  -2 275420. 6749.63   1
   4  -7   2 273787. 6448.40   1
  -4   7  -2 272725. 6560.66   1
   7  -3  -2 287380. 6458.82   2
   3  -7   2 275190. 7250.40   2
  -7   3   2 282982. 6432.86   1
   7  -4  -2 269468. 6258.59   2
  -3   7  -1 39034.9 2021.34   1
   3  -7   1 39234.1 1987.66   1
   7  -4  -1 37732.0 1757.86   1
  -4  -3  -1 35860.2 2250.03   1
   3  -7   1 41613.4 2450.51   2
   7  -3  -1 37337.7 1930.89   1
  -3  -4  -1 39955.0 2336.59   1
   7  -4  -1 41076.6 2008.84   2
   4  -7   1 35581.3 1833.18   1
   4   3   1 37649.4 2307.93   1
  -7   4   1 38252.6 1787.78   1
   3   4   1 38802.9 2325.14   1
   4  -7   1 38417.3 2313.52   2
  -7   3   1 41713.2 2030.76   1
   7  -3  -1 39084.9 1999.15   2
  -4   7  -1 43678.6 1997.76   1
   4  -7   0 9553.58 821.144   1
  -4  -3   0 9183.47 1127.39   1
   7  -4   0 7968.63 794.264   1
   7  -3   0 8883.18 976.538   1
  -3  -4   0 7599.49 1032.67   1
   3  -7   0 10383.8 1242.50   2
   4  -7   0 7066.76 1005.92   2
   3   4   0 9283.51 1127.31   1
  -7   4   0 8291.55 832.591   1
  -4   7   0 8006.91 816.640   1
   4   3   0 8601.90 1037.16   1
   7  -4   0 9856.56 998.904   2
  -7   3   0 8015.07 842.533   1
  -3   7   0 9188.96 910.609   1
   7  -3   0 7966.51 928.050   2
   3  -7   0 7928.63 824.636   1
  -4   7   1 66236.0 2327.48   1
   4  -7  -1 63511.1 2223.61   1
   7  -4   1 72823.1 2656.06   1
  -3   7   1 69878.5 2650.87   1
   7  -3   1 76703.2 2867.90   1
  -4  -3   1 67469.4 3153.43   1
  -3  -4   1 68839.8 3130.49   1
   4   3  -1 69651.9 3147.13   1
  -7   4  -1 64703.1 2584.70   1
   3   4  -1 64977.5 3116.07   1
   7  -4   1 71457.0 2850.81   2
   3  -7  -1 70604.5 2568.20   1
   4  -7  -1 75382.1 3206.25   2
  -7   3  -1 68943.9 2796.31   1
   7  -3   1 71586.9 2928.38   2
   4  -7  -2 136741. 4474.72   2
   7  -4   2 126666. 3822.27   1
   7  -3   2 108577. 3707.66   1
   3  -7  -2 122751. 3496.48   1
  -7   3  -2 118020. 3926.58   1
  -7   4  -2 109856. 3666.77   1
  -4  -3   2 107639. 4133.87   1
  -3   7   2 110042. 3429.13   1
   4   3  -2 115507. 4183.82   1
   3   4  -2 113318. 4192.56   1
  -3  -4   2 115647. 4152.38   1
   7  -4   2 115972. 3975.71   2
   7  -3   2 113936. 3899.23   2
   7  -4   3 136837. 4164.21   1
   7  -3   3 106217. 3950.25   2
   3  -7  -3 121572. 3453.34   1
   7  -3   3 110803. 3851.35   1
  -7   4  -3 119278. 3911.66   1
  -3   7   3 127863. 3593.75   1
   4   3  -3 131477. 4476.02   1
   3   4  -3 130222. 4464.31   1
  -3  -4   3 122785. 4312.38   1
  -4  -3   3 117629. 4310.27   1
  -7   3  -3 128722. 4131.84   1
   7  -4   3 122438. 4112.95   2
  -7   3  -4 2732.58 632.202   1
  -4  -3   4 1948.29 608.100   1
   7  -4   4 2846.16 583.152   1
  -3  -4   4 2181.12 672.834   1
   7  -3   4 2201.04 569.278   1
  -3   7   4 1664.51 374.017   1
   4   3  -4 2355.69 635.375   1
   3   4  -4 3119.01 682.079   1
  -7   4  -4 2410.89 526.290   1
   7  -3   4 1892.02 528.888   2
   7  -4   4 2309.06 579.012   2
   7  -4   5 247820. 6448.16   1
   7  -3   5 214210. 6115.70   1
  -7   4  -5 244728. 6384.39   1
  -7   3  -5 251145. 6540.51   1
   3   4  -5 237933. 6689.00   1
   7  -4   5 243672. 6527.75   2
  -4  -3   5 243506. 6720.80   1
   7  -3   5 221735. 6293.37   2
  -3  -4   5 248759. 6731.53   1
   4   3  -5 236979. 6633.14   1
  -3  -4   6 425265. 9737.53   1
   7  -4   6 396096. 9274.68   1
   7  -3   6 428410. 9473.37   1
  -4  -3   6 402243. 9598.47   1
  -7   4  -6 383999. 9127.94   1
  -7   3  -6 396830. 9292.22   1
   3   4  -6 414296. 9679.57   1
   4   3  -6 403960. 9583.76   1
   7  -4   6 419825. 9451.43   2
   7  -3   6 418096. 9438.40   2
  -3  -4   7 90871.5 3796.57   1
   7  -4   7 74999.1 3371.54   1
   7  -3   7 82947.7 3554.12   1
  -7   4  -7 79590.8 3436.70   1
  -7   3  -7 86587.8 3609.27   1
   4   3  -7 77961.8 3522.51   1
   3   4  -7 82419.1 3703.82   1
   7  -4   7 80295.1 3487.42   2
   7  -3   7 85227.8 3555.50   2
  -4  -3   7 81132.7 3620.77   1
  -4  -3   8 171503. 5695.18   1
   7  -4   8 180647. 5729.62   1
   7  -3   8 171180. 5616.42   1
   3   4  -8 185992. 5909.65   1
  -3  -4   8 186134. 5873.60   1
  -7   4  -8 182556. 5672.58   1
  -7   3  -8 170230. 5560.08   1
   7  -3   8 186805. 5665.93   2
   4   3  -8 171959. 5679.71   1
   7  -4   8 188563. 5736.66   2
  -4  -3   9 1415.62 627.456   1
   7  -4   9 827.843 393.109   1
  -3  -4   9 600.985 473.786   1
   7  -3   9 1306.57 612.307   1
  -7   4  -9 527.092 324.402   1
  -7   3  -9 458.587 400.600   1
   7  -4   9 649.560 419.507   2
   7  -3   9 1307.63 586.761   2
   4   3  -9 431.590 356.485   1
   3   4  -9 280.946 383.577   1
   7  -4  10 212310. 6493.10   1
   7  -3  10 192449. 6236.06   1
  -4  -3  10 203210. 6423.87   1
  -7   4 -10 197314. 6231.98   1
  -3  -4  10 204779. 6516.37   1
  -7   3 -10 195720. 6171.03   1
   7  -4  10 198116. 6174.59   2
   7  -3  10 207006. 6198.13   2
   3   4 -10 199554. 6319.11   1
   4   3 -10 178633. 6050.28   1
   7  -4  11 23777.7 2008.88   1
   7  -3  11 26301.2 2117.59   1
  -4  -3  11 22902.3 2022.45   1
  -7   4 -11 23133.3 1985.74   1
  -7   3 -11 24967.7 2040.89   1
   7  -3  11 22262.1 1908.45   2
  -3  -4  11 25723.9 2152.77   1
   3   4 -11 21728.7 1929.11   1
   7  -4  11 24663.2 1965.00   2
   4   3 -11 22424.4 1940.32   1
   7  -3  12 11643.3 1403.56   2
   7  -3  12 11735.0 1491.70   1
  -7   4 -12 12455.8 1477.97   1
   7  -4  12 10480.3 1385.68   1
  -4  -3  12 11110.7 1450.49   1
  -3  -4  12 12353.1 1521.00   1
  -7   3 -12 10657.8 1334.42   1
   4   3 -12 12084.1 1467.35   1
   7  -4  12 10218.0 1353.76   2
   3   4 -12 10008.6 1344.69   1
   7  -4  13 79715.5 3916.71   1
   7  -3  13 73816.5 3796.10   1
  -7   4 -13 82360.6 3918.18   1
  -7   3 -13 78720.9 3820.39   1
  -4  -3  13 86137.1 4122.41   1
  -3  -4  13 73201.9 3824.54   1
   4   3 -13 78432.7 3899.05   1
   7  -4  13 76678.9 3748.81   2
   3   4 -13 78345.5 3928.31   1
   7  -3  13 69206.8 3588.22   2
   7  -4  14 32781.8 2501.92   1
   7  -3  14 28930.2 2430.01   1
  -7   4 -14 33102.5 2469.38   1
  -7   3 -14 33513.4 2396.11   1
   7  -3  14 30691.9 2367.37   2
  -4  -3  14 30998.2 2492.18   1
  -3  -4  14 28306.4 2326.96   1
   7  -4  14 32258.6 2378.51   2
   4   3 -14 28435.8 2323.06   1
   3   4 -14 29568.9 2377.76   1
   7  -3  15 35708.4 2557.65   2
   7  -4  15 35177.8 2692.45   1
   7  -3  15 36341.5 2626.37   1
  -7   4 -15 36045.8 2570.00   1
  -7   3 -15 37377.1 2610.04   1
  -4  -3  15 33729.4 2559.01   1
  -3  -4  15 36557.2 2681.69   1
   7  -4  15 30156.3 2367.16   2
   4   3 -15 36858.8 2668.59   1
   3   4 -15 34729.5 2638.95   1
   7  -4  16 1544.79 575.220   1
   7  -3  16 1205.64 531.270   1
  -7   4 -16 1492.96 578.483   1
  -4  -3  16 2391.24 779.539   1
  -7   3 -16 1812.59 629.157   1
  -3  -4  16 1480.30 626.172   1
   7  -4  16 1600.48 662.697   2
   4   3 -16 1484.33 691.428   1
   7  -3  16 1969.76 576.884   2
   3   4 -16 248.654 438.247   1
   7  -3  17 19304.8 1999.84   1
  -7   4 -17 23141.8 2112.64   1
  -7   3 -17 21848.8 2084.73   1
  -4  -3  17 17681.4 1917.68   1
  -3  -4  17 19372.6 2051.30   1
   7  -4  17 20683.3 2086.66   1
   7  -4  17 20143.5 1991.73   2
   7  -3  17 20754.3 1996.55   2
   4   3 -17 18032.9 1971.72   1
   3   4 -17 21015.6 2048.97   1
   7  -4  18 111736. 5061.12   1
   7  -3  18 109853. 4900.22   2
  -7   4 -18 115992. 4992.81   1
  -4  -3  18 104163. 4999.64   1
  -3  -4  18 101086. 4856.30   1
   7  -4  18 109282. 4872.32   2
   3   4 -18 102855. 4836.77   1
   5   2  18 650.757 419.053   2
   5   2  18 75.1305 398.344   1
   2  -7  18 327.175 400.017   2
   5  -7  18 368.931 493.140   2
  -5  -2 -18 326.430 327.467   1
   5  -7  17 4878.90 1072.48   1
  -2   7 -17 4682.89 1023.08   1
  -5   7 -17 5555.10 1061.05   1
   2   5  17 4681.57 1019.98   1
   5   2  17 4675.84 952.499   1
   2  -7  17 4582.63 1074.05   1
  -5  -2 -17 4400.66 938.461   1
   5  -7  17 4008.83 965.673   2
   2  -7  17 4314.81 991.117   2
   5   2  17 4376.43 1083.12   2
   5  -7  16 196621. 6965.17   1
   5   2  16 208733. 6950.64   1
   2   5  16 171973. 6570.42   1
  -2  -5 -16 159282. 6066.26   1
  -5  -2 -16 205765. 6709.75   1
   2  -7  16 179717. 6868.46   2
   5  -7  16 191990. 6835.32   2
   2  -7  16 203041. 6997.57   1
   5   2  16 200667. 7005.60   2
  -5   7 -16 210256. 6993.56   1
   2   5  16 175783. 6583.92   2
  -2   7 -16 208892. 7077.04   1
   5  -7  15 573.047 358.567   1
  -2   7 -15 903.368 495.374   1
  -5   7 -15 1530.42 657.810   1
   5   2  15 2185.40 589.479   1
   2   5  15 1079.34 559.851   1
   2  -7  15 923.348 643.052   1
   2  -7  15 1965.77 749.811   2
   5  -7  15 1296.23 493.366   2
  -5  -2 -15 1133.51 527.120   1
  -2  -5 -15 423.526 350.431   1
   5   2  15 1240.21 616.924   2
   2   5  15 1370.48 654.726   2
   5  -7  14 2778.35 804.760   1
   5  -7  14 2178.90 426.974   2
  -2   7 -14 2512.21 741.524   1
   2  -7  14 3775.76 975.908   2
  -5   7 -14 2834.61 764.944   1
   5   2  14 3054.23 802.585   1
   2   5  14 3814.94 908.471   1
   2  -7  14 5231.18 1081.33   1
  -5  -2 -14 3539.90 829.285   1
  -2  -5 -14 2988.40 759.376   1
   5   2  14 2910.55 794.561   2
   2   5  14 3524.94 770.235   2
   5   2  13 906.776 643.398   2
   5  -7  13 217.306 416.838   1
  -2   7 -13 1141.19 658.387   1
  -5   7 -13 344.196 470.530   1
   2  -7  13 360.984 418.941   1
   5   2  13 1100.50 681.327   1
   2   5  13 1308.11 560.859   1
   2  -7  13 483.934 427.723   2
   5  -7  13-173.944 364.004   2
  -5  -2 -13 889.628 511.360   1
  -2  -5 -13 640.173 338.832   1
   2   5  13 966.599 464.048   2
   5  -7  12 84601.3 4204.51   1
   5   2  12 93622.7 4101.32   2
   5   2  12 91138.0 4193.16   1
   2   5  12 94764.3 4191.94   1
   2  -7  12 92025.2 4349.43   2
  -2   7 -12 97010.9 4404.65   1
  -5  -2 -12 105737. 4395.20   1
  -2  -5 -12 102299. 4228.34   1
   2  -7  12 91584.3 4288.22   1
   5  -7  12 95751.6 4333.08   2
   2   5  12 101353. 4468.89   2
  -5   7 -12 89649.9 4223.47   1
  -5  -2 -11 1379.98 396.339   1
  -2  -5 -11 1280.27 425.466   1
   5  -7  11 549.884 476.833   1
   2  -7  11 1418.70 612.880   1
  -2   7 -11 735.516 605.601   1
  -5   7 -11 1590.45 693.969   1
   5   2  11 1841.26 625.079   1
   2   5  11 1450.34 589.183   1
   2  -7  11 707.415 609.569   2
   5  -7  11 592.078 434.918   2
   5   2  11 883.986 461.660   2
   2   5  11 474.751 319.273   2
   5  -7  10 35439.3 2434.52   1
  -2  -5 -10 34591.8 2322.90   1
   5   2  10 32545.0 2377.49   1
   2   5  10 32948.7 2299.01   1
   2  -7  10 29448.5 2297.62   2
   2  -7  10 29297.5 2292.79   1
  -2   7 -10 33043.4 2400.90   1
  -5  -2 -10 32661.0 2315.70   1
   5  -7  10 36793.9 2450.78   2
   5   2  10 34362.8 2329.18   2
   2   5  10 30056.3 2290.05   2
  -5   7 -10 31653.0 2338.94   1
  -2   7  -9 6085.05 1059.22   1
   5  -7   9 4668.52 862.819   1
  -5  -2  -9 5994.48 974.088   1
  -2  -5  -9 8206.51 1094.17   1
  -5   7  -9 6789.80 1042.28   1
   5   2   9 6397.99 979.366   1
   2   5   9 7278.95 1073.88   1
   2  -7   9 6711.29 1105.59   1
   2  -7   9 6720.68 1120.75   2
   5  -7   9 5498.06 1038.99   2
   5   2   9 5989.44 912.617   2
   5  -7   8 439471. 10185.3   1
   2  -7   8 424126. 10207.2   1
   5   2   8 417244. 10035.2   1
   2   5   8 410228. 9891.99   1
  -7   2   8 425993. 9587.15   1
  -5  -2  -8 427205. 10035.2   1
   2  -7   8 426158. 10308.6   2
   5  -7   8 416132. 10167.2   2
  -2  -5  -8 396052. 9646.93   1
  -2   7  -8 408574. 10086.4   1
   5   2   8 440993. 10085.7   2
  -5   7  -8 415943. 10005.0   1
  -2   7  -7 726.831 479.206   1
   5  -7   7 2264.94 586.421   1
   5   2   7 632.375 438.271   2
  -5   7  -7 1852.62 589.681   1
  -5  -2  -7 1674.06 572.441   1
   2  -7   7 914.828 406.815   1
  -2  -5  -7 1277.75 511.511   1
   5   2   7 1563.86 553.451   1
  -7   2   7 1354.77 449.810   1
   2   5   7 1899.03 592.174   1
   2  -7   7 1199.82 558.174   2
   7  -2  -7 1722.88 553.501   1
   5  -7   7 1333.14 562.935   2
  -2   7  -6 8693.09 1088.14   1
   2  -7   6 6964.59 1036.95   1
   5  -7   6 11893.3 1314.34   2
  -5   7  -6 9009.37 1072.07   1
  -5  -2  -6 8707.36 1133.14   1
  -7   2   6 9054.85 1069.70   1
   7  -2  -6 10461.6 1068.74   1
   5   2   6 11174.8 1282.01   1
  -2  -5  -6 7602.96 1007.29   1
   2   5   6 9362.42 1126.50   1
   2  -7   6 10269.8 1228.35   2
   5   2   6 13238.3 1375.73   2
   5  -7   6 10302.1 1154.02   1
  -2  -5  -5 22680.3 1755.84   1
   2  -7   5 18378.3 1770.52   2
  -7   2   5 23477.7 1667.83   1
   5   2   5 24286.6 1860.38   1
   2   5   5 24182.5 1852.54   1
   2  -7   5 22314.1 1763.30   1
   7  -2  -5 23642.0 1595.76   1
  -2   7  -5 21344.9 1745.16   1
   5  -7   5 24329.7 1912.87   2
  -5  -2  -5 22357.6 1749.14   1
   5   2   5 25009.4 1909.45   2
  -5   7  -5 26767.6 1841.27   1
   5  -7   5 21427.7 1710.33   1
  -5   7  -4 569628. 11650.0   1
  -2  -5  -4 579833. 11931.0   1
  -7   2   4 529729. 11306.0   1
   5   2   4 535411. 11950.1   1
   2   5   4 583747. 12118.8   1
   2  -7   4 566545. 12290.8   2
   2  -7   4 569934. 11834.5   1
   5  -7   4 546684. 11967.3   2
  -2   7  -4 588260. 12051.5   1
  -5  -2  -4 549886. 11973.2   1
   5  -7   4 586197. 11578.4   1
  -5   7  -3 6469.70 840.448   1
   2  -7   3 7196.70 997.567   1
   5  -7   3 4854.20 873.041   2
   7  -5  -3 5979.22 715.228   2
  -5  -2  -3 5962.93 953.551   1
   2   5   3 6801.41 947.930   1
   2  -7   3 5869.53 1001.86   2
   7  -2  -3 6438.82 848.229   1
   5   2   3 6142.32 971.882   1
  -7   2   3 5805.12 828.611   1
  -2  -5  -3 6190.17 919.569   1
   7  -2  -3 6872.77 756.689   2
  -2   7  -3 5338.78 813.563   1
   2  -7   2-492.308 356.268   1
  -5   7  -2 216.815 300.899   1
  -2  -5  -2-353.204 358.205   1
   7  -5  -2 98.1235 317.612   2
  -7   2   2 156.853 220.576   1
   7  -2  -2 150.724 270.582   1
   2   5   2-603.253 515.604   1
   5   2   2 900.589 508.473   1
   5  -7   2 128.050 236.950   2
  -5  -2  -2 132.002 351.252   1
   7  -2  -2 129.063 222.061   2
   2  -7   2-337.717 495.256   2
   5  -7   2 195.392 202.815   1
  -2   7  -2 636.191 382.332   1
  -5   7  -1 347.140 211.568   1
   5  -7   1 469.005 207.909   1
  -2  -5  -1 590.300 340.078   1
   7  -2  -1 872.692 388.824   1
   5   2   1 339.696 329.390   1
  -7   2   1 540.484 285.300   1
   2  -7   1 566.165 345.659   1
   5  -7   1-93.8192 265.941   2
   2   5   1 404.984 443.672   1
   7  -5  -1 593.569 361.176   2
  -2   7  -1 341.232 300.786   1
  -5  -2  -1 291.869 405.533   1
   7  -2  -1 690.770 391.908   2
   7  -2   0 484732. 10124.8   2
  -5  -2   0 469223. 10658.4   1
   5   2   0 494640. 10726.6   1
  -2  -5   0 458863. 10507.9   1
   2   5   0 478995. 10664.6   1
   5  -7   0 507406. 10518.9   2
  -2   7   0 501407. 10203.8   1
   2  -7   0 505468. 10078.3   1
  -7   2   0 488613. 10277.2   1
   5   2  -1 7574.61 1039.45   1
   7  -5   1 8514.67 844.870   1
  -5  -2   1 7859.30 1060.16   1
   7  -2   1 9269.84 1039.03   1
  -7   5  -1 7857.34 813.227   1
  -7   2  -1 7237.06 921.795   1
  -2   7   1 9549.17 1036.28   1
   5  -7  -1 7604.46 1007.43   2
   2  -7  -1 7517.83 852.113   1
   2   5  -1 7695.09 1049.60   1
   7  -5   1 7758.39 916.591   2
   7  -2   1 8071.44 993.040   2
  -2  -5   1 6639.17 941.156   1
   7  -5   2 10395.4 998.598   1
   7  -2   2 11017.6 1135.41   1
  -7   5  -2 11213.9 1026.62   1
  -5  -2   2 10763.1 1203.21   1
   2  -7  -2 9467.23 979.299   1
  -2   7   2 9726.89 1040.15   1
   5   2  -2 10302.7 1192.88   1
   5  -7  -2 9849.33 1099.05   2
   7  -2   2 9365.91 1093.85   2
   7  -5   2 8538.60 1005.46   2
  -7   2  -2 9498.09 1113.02   1
   2   5  -2 8999.29 1111.06   1
  -2  -5   2 9819.35 1189.32   1
   2  -7  -3 5542.24 727.847   1
  -7   2  -3 4682.44 777.393   1
   7  -5   3 4836.99 730.441   1
  -2  -5   3 5560.37 942.758   1
   7  -2   3 5432.28 800.789   2
   7  -2   3 4865.43 774.356   1
  -5  -2   3 4790.59 810.528   1
   7  -5   3 6336.73 885.072   2
   5  -7  -3 5576.93 859.182   2
  -2   7   3 5386.08 710.165   1
  -7   5  -3 5646.27 763.559   1
   5   2  -3 3626.70 744.423   1
   2   5  -3 5906.05 886.958   1
   2  -7  -4 263047. 6289.38   1
   7  -5   4 286428. 6848.78   1
   7  -2   4 250130. 6710.71   1
  -7   5  -4 280448. 6748.08   1
  -2   7   4 286170. 6561.77   1
   2   5  -4 266822. 7222.53   1
  -5  -2   4 251790. 7034.54   1
  -7   2  -4 258820. 6920.35   1
   7  -5   4 260899. 6858.21   2
   7  -2   4 277165. 7018.56   2
  -2  -5   4 263656. 7157.61   1
   5   2  -4 253161. 6953.02   1
   2  -7  -5 4570.50 656.328   1
  -7   2  -5 4388.01 788.088   1
   7  -5   5 4863.67 853.020   1
  -7   5  -5 5020.65 760.991   1
   7  -2   5 3782.17 716.578   1
  -2   7   5 5080.66 701.981   1
   5   2  -5 3901.62 759.129   1
   7  -5   5 5216.45 804.022   2
   2   5  -5 5693.57 958.408   1
  -2  -5   5 3548.23 725.138   1
   7  -2   5 3625.66 788.767   2
  -5  -2   5 3749.69 714.852   1
  -7   2  -6 593.580 282.432   1
  -2  -5   6 542.101 375.123   1
  -5  -2   6 1286.00 499.304   1
   7  -5   6 428.193 235.361   1
   7  -2   6 1755.58 585.115   1
  -2   7   6 1014.07 369.663   1
   5   2  -6 733.931 361.207   1
   7  -5   6 126.719 289.030   2
   2   5  -6 744.978 452.577   1
  -7   5  -6 415.363 226.733   1
   7  -2   6 650.412 428.630   2
   7  -5   7 14800.0 1381.88   1
  -2  -5   7 14509.9 1452.53   1
   7  -2   7 14308.7 1404.66   1
  -7   5  -7 15929.6 1507.07   1
   7  -2   7 14201.7 1417.66   2
  -7   2  -7 14356.3 1442.48   1
   5   2  -7 13396.0 1414.29   1
   2   5  -7 12212.8 1421.19   1
   7  -5   7 11853.2 1333.86   2
  -5  -2   7 13199.0 1406.20   1
   7  -5   8 698177. 14179.1   1
   7  -2   8 629237. 13862.9   1
  -2  -5   8 710119. 14684.8   1
   2   5  -8 664131. 14319.5   1
  -7   2  -8 667735. 14065.4   1
   7  -5   8 683472. 14104.4   2
   5   2  -8 746326. 14452.6   1
   7  -2   8 676923. 13975.2   2
  -5  -2   8 711070. 14413.8   1
   7  -5   9 6101.41 987.937   1
   7  -2   9 5935.57 1006.43   1
  -2  -5   9 6105.82 1020.36   1
   2   5  -9 5738.67 999.096   1
   7  -5   9 5627.09 981.137   2
  -7   5  -9 7035.59 1046.20   1
   5   2  -9 6404.71 957.188   1
  -7   2  -9 6040.39 1011.73   1
   7  -2   9 6550.68 986.661   2
  -5  -2   9 7288.46 1090.33   1
  -5  -2  10 721.003 476.223   1
  -7   5 -10 471.899 306.884   1
   7  -5  10 124.355 286.170   1
   7  -2  10 851.585 480.998   1
  -2  -5  10 1299.40 454.514   1
   5   2 -10 1320.92 495.441   1
   7  -5  10 603.800 395.016   2
  -7   2 -10 823.403 455.167   1
   7  -2  10 895.563 500.311   2
   2   5 -10 1394.80 608.307   1
  -5  -2  11 1897.81 637.022   1
   7  -5  11 1593.43 727.164   1
   7  -2  11 1419.80 476.440   1
  -7   2 -11 1675.83 526.379   1
  -7   5 -11 448.716 503.158   1
   7  -5  11 511.388 400.131   2
   7  -2  11 1020.23 438.358   2
   5   2 -11 1217.86 583.356   1
  -2  -5  11 820.037 447.913   1
   2   5 -11 1229.18 580.470   1
   7  -5  12 94827.0 4340.30   1
   7  -2  12 101495. 4376.17   1
  -7   5 -12 90751.3 4138.91   1
  -5  -2  12 95254.7 4264.65   1
   2   5 -12 89045.4 4180.77   1
  -7   2 -12 95969.5 4171.33   1
   7  -5  12 94573.4 4140.19   2
   7  -2  12 94416.1 4193.90   2
   5   2 -12 87784.6 4079.60   1
  -2  -5  12 96882.3 4389.85   1
   7  -5  13 849.853 480.775   1
  -5  -2  13 959.605 456.523   1
   7  -2  13 474.684 454.444   1
   7  -5  13-356.190 390.168   2
  -7   2 -13 462.533 392.108   1
  -7   5 -13 135.793 306.327   1
  -2  -5  13 1025.16 293.539   1
   7  -2  13 1108.48 538.755   2
   5   2 -13 1400.18 605.333   1
   2   5 -13 1013.91 440.219   1
   2   5 -14-37.7460 396.570   1
   7  -5  14 290.674 325.091   1
  -5  -2  14-46.9216 390.055   1
   7  -2  14 37.6395 393.877   1
  -7   5 -14-309.491 276.960   1
  -7   2 -14 650.546 569.383   1
   7  -5  14 878.507 527.481   2
  -2  -5  14-228.593 501.358   1
   7  -2  14 830.421 548.698   2
   5   2 -14 677.333 428.011   1
   2   5 -15 359.357 394.085   1
   7  -5  15 1072.83 539.614   1
   7  -2  15 811.584 347.505   1
   5   2 -15 736.830 423.135   1
  -5  -2  15 1429.23 634.969   1
  -7   5 -15 1310.98 572.044   1
  -7   2 -15 77.5016 448.664   1
  -2  -5  15 1068.22 659.684   1
   7  -5  15 1385.19 482.622   2
   7  -2  15 1038.07 516.671   2
   7  -5  16 138707. 5728.84   1
   7  -2  16 144952. 5714.90   1
  -7   5 -16 152506. 5728.12   1
  -7   2 -16 151872. 5602.27   1
  -5  -2  16 135355. 5718.15   1
   7  -5  16 140307. 5592.11   2
   5   2 -16 132881. 5561.56   1
   7  -2  16 146316. 5635.04   2
   2   5 -16 146384. 5722.99   1
  -2  -5  16 138005. 5716.17   1
   2   5 -17 568.476 348.183   1
   7  -5  17 1219.63 554.897   1
   7  -2  17 2760.92 827.771   1
  -5  -2  17 642.937 470.726   1
  -7   5 -17 1690.45 570.459   1
  -7   2 -17 1552.03 647.383   1
  -2  -5  17 2018.04 624.351   1
   7  -5  17 1383.86 546.412   2
   7  -2  17 959.208 510.321   2
   5   2 -17 2925.29 892.178   1
  -5  -2  18 2889.42 906.416   1
   7  -2  18 2770.78 751.953   2
   7  -5  18 4282.35 991.827   2
   5   2 -18 1973.73 592.346   1
   6  -7  17 54532.5 3543.86   1
   6   1  17 61444.4 3641.63   1
   1  -7  17 56902.9 3522.86   1
  -6  -1 -17 51968.8 3222.74   1
   6  -7  17 50765.0 3323.27   2
  -6   7 -17 53534.7 3409.76   1
   6   1  17 50845.5 3395.47   2
  -1   7 -17 55570.8 3468.19   1
   1  -7  17 42383.0 3273.83   2
  -1   7 -16 999.921 318.280   1
   6  -7  16 763.412 356.006   1
  -6   7 -16 814.742 541.659   1
   1  -7  16 1751.06 662.658   1
   6   1  16 2677.36 854.873   1
   1  -7  16 742.206 563.705   2
   6  -7  16 697.987 458.516   2
  -6  -1 -16 1423.74 492.996   1
   6   1  16 667.717 620.852   2
  -6   7 -15 48814.9 3210.16   1
   6  -7  15 44448.2 3098.83   1
   6   1  15 49003.5 3169.26   1
   1  -7  15 53676.5 3342.23   1
  -6  -1 -15 55420.7 3228.85   1
   1  -7  15 43355.9 3108.10   2
   6   1  15 42503.9 2950.66   2
  -1   7 -15 50106.3 3222.91   1
   6  -7  15 43171.2 2978.15   2
  -6   7 -14 78719.4 4059.68   1
   6  -7  14 67509.9 3900.22   1
   1  -7  14 91765.7 4383.37   1
   6   1  14 77225.4 3961.50   1
   1   6  14 78343.5 3948.72   1
   6  -7  14 84395.1 4127.91   2
  -6  -1 -14 85362.8 3998.11   1
   1  -7  14 68313.6 3932.62   2
  -1   7 -14 77704.7 4076.12   1
   6   1  14 74332.8 3975.00   2
   1   6  14 65541.5 3815.18   2
  -6   7 -13 16076.2 1800.39   1
   6  -7  13 14797.0 1746.43   1
   1  -7  13 13019.2 1587.98   1
   6   1  13 13370.7 1642.05   1
   1   6  13 13843.0 1577.51   1
  -6  -1 -13 16631.1 1701.50   1
  -1  -6 -13 13219.6 1535.99   1
   6  -7  13 15086.4 1634.70   2
   1  -7  13 12533.6 1608.15   2
  -1   7 -13 14670.6 1719.44   1
   6   1  13 13791.2 1602.24   2
   1   6  13 11022.9 1392.55   2
  -6   7 -12 19073.7 1905.99   1
   1  -7  12 20403.9 1985.28   1
   1  -7  12 17646.2 1896.81   2
   6   1  12 20725.1 1900.70   1
   1   6  12 18004.0 1727.37   1
  -6  -1 -12 19858.2 1862.02   1
  -1  -6 -12 17789.5 1713.72   1
   6  -7  12 20524.1 2000.53   1
  -1   7 -12 17836.2 1811.88   1
   6   1  12 20274.3 1813.90   2
   1   6  12 19302.4 1904.03   2
   6  -7  12 16761.0 1779.45   2
  -1   7 -11 5930.11 1090.86   1
  -1  -6 -11 5393.41 991.570   1
   6  -7  11 6544.58 1118.55   1
   1  -7  11 6577.90 1136.72   1
  -7   1  11 7817.13 1186.28   1
  -6   7 -11 8351.95 1249.52   1
   6   1  11 6740.96 1162.89   1
   1   6  11 7170.60 1094.62   1
   1  -7  11 6282.51 1099.12   2
   6  -7  11 6865.30 1131.53   2
   6   1  11 5762.97 981.766   2
   1   6  11 5298.57 942.413   2
  -6  -1 -11 6457.33 1101.59   1
   6  -7  10 114573. 4740.81   1
   6   1  10 111105. 4551.33   1
   1   6  10 113468. 4507.60   1
  -6   7 -10 109028. 4673.57   1
   6  -7  10 109375. 4558.23   2
  -7   1  10 116924. 4519.24   1
  -1  -6 -10 127466. 4681.22   1
  -1   7 -10 118322. 4785.71   1
  -6  -1 -10 117033. 4585.69   1
   6   1  10 112314. 4399.23   2
   1  -7  10 110871. 4649.60   1
   1  -7  10 103089. 4561.86   2
   7  -1 -10 110619. 4372.64   1
  -6   7  -9 28906.2 2249.98   1
   6  -7   9 33403.5 2368.81   1
  -6  -1  -9 27802.2 2184.39   1
   6   1   9 30131.9 2252.78   1
   1   6   9 29080.7 2159.69   1
  -1   7  -9 27896.2 2219.97   1
   1  -7   9 27992.1 2291.50   2
   7  -1  -9 30596.2 2151.68   1
   1  -7   9 28416.2 2234.12   1
  -1  -6  -9 33409.1 2180.16   1
  -7   1   9 28241.0 2061.78   1
   6   1   9 29943.2 2138.73   2
   6  -7   9 28479.4 2205.77   2
  -6   7  -8 108877. 4349.75   1
   6  -7   8 105673. 4267.74   1
   6   1   8 103279. 4188.88   1
   1   6   8 101341. 4145.96   1
   7  -1  -8 100194. 3938.77   1
   1  -7   8 95840.4 4249.62   2
  -7   1   8 97963.8 4030.13   1
  -6  -1  -8 103548. 4200.10   1
   6  -7   8 101955. 4208.83   2
   1  -7   8 97335.4 4218.50   1
  -1  -6  -8 95526.7 3947.90   1
  -1   7  -8 99229.6 4238.45   1
   6   1   8 102513. 4139.06   2
  -6   7  -7 86743.1 3761.82   1
   6  -7   7 87996.2 3775.47   1
   6   1   7 75837.7 3584.47   1
   1   6   7 82716.4 3593.04   1
  -7   1   7 86773.2 3630.11   1
   7  -1  -7 88673.9 3607.67   1
   1  -7   7 81931.4 3868.30   2
  -6  -1  -7 80180.1 3666.84   1
  -1   7  -7 81089.8 3739.84   1
   1  -7   7 78587.2 3655.28   1
  -1  -6  -7 80199.9 3540.02   1
   6   1   7 83166.7 3595.53   2
   6  -7   7 77946.0 3625.83   2
  -6   7  -6 401020. 9343.28   1
   6  -7   6 418363. 9382.45   1
   6   1   6 374404. 9332.89   1
   1   6   6 376000. 9176.97   1
  -1   7  -6 392631. 9525.71   1
  -7   1   6 386146. 9157.70   1
   1  -7   6 375492. 9351.03   1
   7  -1  -6 387926. 9020.74   1
   1  -7   6 373990. 9676.18   2
   6  -7   6 377202. 9303.56   2
  -6  -1  -6 375966. 9303.18   1
   6   1   6 381515. 9177.35   2
  -1  -6  -6 396796. 9159.47   1
   6  -7   5 117049. 4153.81   1
  -1  -6  -5 103710. 4031.86   1
   1  -7   5 112736. 4544.47   2
   1  -7   5 108682. 4283.76   1
   6   1   5 125858. 4568.10   1
   6  -7   5 109905. 4288.61   2
  -7   1   5 110126. 4138.32   1
   1   6   5 121603. 4350.67   1
   7  -1  -5 122555. 4209.32   1
  -1   7  -5 116733. 4426.80   1
  -6  -1  -5 108230. 4254.65   1
   6   1   5 114482. 4311.62   2
  -6   7  -5 118201. 4235.31   1
   6  -7   4 10141.6 1051.82   1
  -1  -6  -4 11160.8 1219.16   1
   1  -7   4 9117.75 1178.86   1
  -7   1   4 9148.69 1120.09   1
   6   1   4 11950.8 1295.36   1
   1   6   4 10518.7 1178.23   1
  -6  -1  -4 8955.23 1189.85   1
   7  -1  -4 10236.9 1117.85   1
   1  -7   4 10395.4 1324.23   2
   6  -7   4 10586.2 1192.40   2
   7  -1  -4 9303.28 988.465   2
  -1   7  -4 9770.05 1216.96   1
   6   1   4 10781.7 1233.35   2
  -6   7  -4 11054.2 1148.38   1
   1  -7   3 267233. 6991.36   1
  -1  -6  -3 264092. 7020.80   1
  -7   1   3 262208. 6911.67   1
   6   1   3 269140. 7151.65   1
   7  -1  -3 272358. 6849.05   1
   1   6   3 253342. 6943.68   1
   7  -6  -3 261263. 6240.07   2
   6  -7   3 254310. 6925.70   2
  -1   7  -3 234136. 6781.13   1
   7  -1  -3 260552. 6524.15   2
   6   1   3 288934. 7345.31   2
  -6  -1  -3 235923. 6908.77   1
  -6   7  -3 269965. 6534.97   1
   6  -7   3 271853. 6482.12   1
  -6  -1  -2 160111. 5225.04   1
  -7   1   2 153465. 4977.21   1
  -1  -6  -2 156336. 5043.34   1
  -1   7  -2 158195. 5125.43   1
   6   1   2 154507. 5115.23   1
   7  -1  -2 159295. 4922.32   1
   1   6   2 164628. 5204.10   1
   6   1   2 161521. 5125.99   2
   7  -6  -2 157618. 4585.10   2
   6  -7   2 156893. 5082.84   2
   7  -1  -2 168068. 4861.08   2
  -6   7  -2 174484. 4587.43   1
   1  -7   2 155415. 4969.81   1
  -7   1   1 224429. 6276.92   1
  -6  -1  -1 239025. 6606.03   1
   7  -1  -1 251460. 6427.18   1
   6   1   1 222838. 6444.08   1
  -1  -6  -1 217532. 6300.33   1
   1   6   1 241750. 6670.39   1
  -1   7  -1 209039. 6137.97   1
   6  -7   1 244545. 6440.90   2
   7  -6  -1 242534. 6051.99   2
   1  -7   1 236404. 6327.83   1
   7  -1  -1 231776. 6116.59   2
   6   1   1 237230. 6525.93   2
  -6  -1   0 46179.5 2621.46   1
  -1   7   0 49963.0 2583.80   1
   7  -1   0 47155.5 2483.88   1
   6   1   0 51195.6 2659.00   1
  -1  -6   0 56444.3 2764.87   1
   1   6   0 46627.5 2596.80   1
   6  -7   0 53319.8 2589.20   2
   7  -6   0 54194.3 2513.83   2
   1  -7   0 50820.3 2507.34   1
   7  -1   0 50860.6 2549.46   2
  -7   1   0 48606.3 2571.72   1
  -6  -1   1 774.315 409.410   1
   7  -6   1 655.664 225.646   2
  -7   1  -1 368.445 261.258   1
   1  -7  -1 356.727 461.991   1
   7  -1   1 721.342 306.529   1
   6   1  -1 1315.50 491.349   1
   6  -7  -1 408.774 273.817   2
  -1   7   1 31.5343 239.392   1
   1   6  -1 426.683 369.747   1
  -1  -6   1 210.020 293.367   1
   7  -1   1 1069.30 471.873   2
  -7   6  -2 341394. 7443.49   1
  -6  -1   2 330587. 8325.65   1
   7  -6   2 329095. 7976.30   2
   6  -7  -2 348186. 7962.77   2
   7  -1   2 350723. 8221.27   1
   1  -7  -2 352451. 8003.19   1
   6   1  -2 323426. 8158.67   1
  -1   7   2 342367. 8087.37   1
   1   6  -2 339665. 8367.51   1
  -1  -6   2 309305. 8060.30   1
  -7   1  -2 319237. 8079.21   1
   7  -1   2 339226. 8015.83   2
   1  -7  -3 4798.74 750.432   1
   7  -6   3 3738.34 637.605   1
  -6  -1   3 4253.49 815.381   1
  -7   1  -3 4298.49 779.195   1
  -1  -6   3 3229.73 743.856   1
   7  -1   3 4214.12 719.194   1
  -7   6  -3 2840.53 589.688   1
  -1   7   3 3803.13 726.734   1
   6   1  -3 3603.58 754.752   1
   7  -6   3 3119.57 732.247   2
   1   6  -3 2207.18 628.692   1
   6  -7  -3 3548.33 690.105   2
   7  -1   3 3279.25 689.710   2
   7  -6   4 111895. 3796.79   1
   1  -7  -4 111994. 3820.54   1
  -7   6  -4 98307.2 3651.05   1
   7  -1   4 105686. 4041.01   1
  -1   7   4 89835.1 3596.59   1
  -6  -1   4 97011.9 3995.95   1
   6   1  -4 103994. 4063.79   1
   1   6  -4 102190. 4117.59   1
   7  -6   4 100095. 3919.78   2
  -7   1  -4 97144.2 3891.02   1
   6  -7  -4 118259. 3893.72   2
   7  -1   4 105550. 3932.96   2
  -1  -6   4 100121. 4032.22   1
   1  -7  -5 146748. 4616.33   1
   7  -6   5 154817. 4851.11   1
  -1  -6   5 162365. 5300.20   1
  -7   6  -5 163167. 5001.78   1
   7  -1   5 139514. 4861.86   1
  -1   7   5 152309. 4715.44   1
   6   1  -5 141115. 4875.28   1
  -6  -1   5 155968. 5182.48   1
   1   6  -5 144292. 5114.91   1
   7  -6   5 146940. 4985.68   2
  -7   1  -5 161878. 5192.97   1
   7  -1   5 142968. 4775.78   2
   7  -6   6 274152. 7234.80   1
  -7   6  -6 290427. 7354.16   1
  -1  -6   6 273809. 7550.92   1
   7  -1   6 274120. 7334.25   1
  -1   7   6 267047. 6913.58   1
  -6  -1   6 283349. 7480.81   1
   6   1  -6 276501. 7334.98   1
  -7   1  -6 253315. 7211.98   1
   7  -6   6 275173. 7374.73   2
   1   6  -6 260732. 7438.43   1
   7  -1   6 272369. 7201.53   2
   1  -7  -6 271418. 6877.21   1
   7  -6   7 234064. 6582.90   1
  -7   6  -7 219858. 6435.46   1
  -1  -6   7 228315. 6811.67   1
   7  -1   7 209381. 6412.45   1
  -1   7   7 203153. 5982.48   1
  -6  -1   7 224438. 6586.64   1
  -7   1  -7 232516. 6643.69   1
   6   1  -7 235748. 6624.47   1
   7  -6   7 222428. 6617.40   2
   1   6  -7 226013. 6744.58   1
   1  -7  -7 244030. 6222.77   1
   7  -1   7 212731. 6372.40   2
  -7   1  -8 909.285 568.136   1
   7  -6   8 1010.15 498.832   1
  -6  -1   8 241.099 312.641   1
   7  -1   8 758.730 349.777   1
  -1  -6   8-42.9795 372.264   1
  -1   7   8 144.458 293.688   1
  -7   6  -8 65.5662 325.618   1
   7  -6   8 1061.07 533.748   2
   6   1  -8 1034.88 487.087   1
   7  -1   8 932.100 513.994   2
   1   6  -8 322.050 305.078   1
   7  -6   9 78130.8 3702.07   1
  -7   6  -9 77440.1 3643.37   1
   7  -1   9 75192.7 3577.73   1
   7  -6   9 70007.2 3543.21   2
  -1  -6   9 78340.1 3749.25   1
  -7   1  -9 75643.3 3550.89   1
   6   1  -9 75801.1 3529.63   1
   1   6  -9 67985.0 3556.93   1
   7  -1   9 75909.9 3607.46   2
  -6  -1   9 75298.0 3595.03   1
   7  -6  10 133483. 5145.77   1
  -7   6 -10 137121. 5145.52   1
   7  -1  10 133640. 5091.74   1
  -7   1 -10 140965. 5083.40   1
  -1  -6  10 147795. 5387.09   1
   7  -6  10 141408. 5205.15   2
   1   6 -10 148537. 5398.79   1
   7  -1  10 139175. 5078.06   2
  -6  -1  10 131245. 5019.91   1
   6   1 -10 145694. 5224.10   1
   7  -6  11 41187.2 2760.77   1
  -7   6 -11 36203.3 2530.74   1
   7  -1  11 43801.5 2762.82   1
   6   1 -11 40169.2 2670.13   1
  -7   1 -11 41588.1 2645.83   1
  -1  -6  11 37332.6 2680.14   1
   7  -6  11 39870.1 2612.29   2
   7  -1  11 38990.2 2588.70   2
   1   6 -11 37099.8 2633.29   1
  -6  -1  11 36799.9 2584.83   1
  -6  -1  12 19970.1 1887.07   1
   7  -6  12 16347.4 1719.25   1
  -7   6 -12 19623.4 1893.99   1
   7  -1  12 17488.3 1799.08   1
  -7   1 -12 17719.6 1746.94   1
  -1  -6  12 14526.4 1747.51   2
   6   1 -12 17779.9 1806.45   1
  -1  -6  12 20843.0 1938.94   1
   7  -6  12 19020.5 1830.08   2
   1   6 -12 16860.5 1709.20   1
   7  -1  12 14886.4 1599.23   2
   7  -6  13 22859.1 2182.98   1
  -6  -1  13 27105.3 2274.99   1
  -1  -6  13 21484.1 2136.94   2
  -7   6 -13 22997.8 2066.93   1
   7  -1  13 22250.7 2036.48   1
  -7   1 -13 22431.0 1964.65   1
  -1  -6  13 22415.1 2059.11   1
   6   1 -13 21938.8 2035.52   1
   7  -6  13 20226.8 1917.81   2
   7  -1  13 19686.0 1883.76   2
   1   6 -13 24134.2 2126.36   1
   7  -6  14 52519.3 3293.57   1
  -6  -1  14 59251.7 3489.81   1
  -7   6 -14 58689.5 3409.17   1
   7  -1  14 62175.9 3527.64   1
  -7   1 -14 60359.2 3291.26   1
   6   1 -14 57606.2 3418.61   1
  -1  -6  14 49379.7 3397.98   2
  -1  -6  14 58727.4 3507.11   1
   7  -6  14 59972.2 3408.08   2
   1   6 -14 58040.7 3447.74   1
   7  -1  14 59913.0 3464.83   2
   1   6 -15 7445.65 1241.05   1
  -6  -1  15 7418.88 1285.52   1
   7  -6  15 8001.51 1294.88   1
   7  -1  15 8981.35 1300.10   1
  -7   6 -15 9648.25 1365.28   1
  -7   1 -15 9536.13 1348.19   1
   7  -6  15 8333.90 1220.88   2
  -1  -6  15 10723.7 1543.73   1
   7  -1  15 6698.08 1235.89   2
   6   1 -15 7640.96 1238.59   1
   7  -6  16 21531.9 2108.53   1
  -7   6 -16 22741.0 2170.35   1
   7  -1  16 23742.3 2235.39   1
  -6  -1  16 18142.3 1963.77   1
  -7   1 -16 23003.1 2092.29   1
   7  -6  16 27429.4 2328.24   2
  -1  -6  16 22876.5 2171.39   1
   7  -1  16 21737.5 2132.60   2
   1   6 -16 23027.9 2150.25   1
   1   6 -17 7238.27 1218.16   1
   7  -6  17 6746.09 1183.75   1
   7  -1  17 7715.74 1270.77   1
  -7   6 -17 7730.47 1264.87   1
  -7   1 -17 6147.83 1083.76   1
   7  -6  17 7831.44 1268.80   2
   7  -1  17 5311.93 1070.06   2
  -1  -6  17 7482.96 1295.61   1
   7   0   0-109.180 351.728   1
   7  -7   0 45.6272 262.632   2
  -7   0   0 507.414 268.854   1
   0   7   0 248.801 246.309   1
   7   0   0 182.021 342.194   2
   0  -7  -1 3111.98 632.460   1
   7   0   1 4357.04 825.746   1
  -7   0  -1 3813.92 809.626   1
   7  -7  -1 3320.05 676.848   2
   0   7   1 3810.44 771.673   1
   7  -7   1 4303.19 722.512   2
   7   0  -1 3954.08 765.465   1
  -7   0   1 2938.63 694.303   1
   0   7  -1 2573.50 652.934   1
   0  -7   1 3992.26 763.743   1
   7   0   1 3063.67 748.060   2
   7   0  -1 3923.31 757.502   2
  -7   0   2 171696. 5501.76   1
   0  -7  -2 164306. 5298.85   1
   7   0   2 168015. 5388.57   1
   7   0  -2 178520. 5448.02   1
   0   7   2 175003. 5475.53   1
   0   7  -2 153825. 5327.87   1
   7  -7   2 171443. 5362.85   2
   0  -7   2 172492. 5415.04   1
   7   0   2 175816. 5423.13   2
   7   0  -2 172292. 5380.26   2
  -7   0  -2 169862. 5512.10   1
   7  -7  -2 178725. 5160.13   2
   0  -7  -3 270224. 7146.38   1
  -7   0   3 268061. 7331.05   1
   7   0   3 253115. 7130.95   1
   0   7   3 278954. 7274.13   1
   7   0  -3 282588. 7315.45   1
   0  -7   3 264099. 7244.79   1
   0   7  -3 269140. 7451.40   1
   7  -7   3 275549. 7251.25   2
  -7   0  -3 264613. 7293.60   1
   7   0   3 267832. 7142.20   2
   7   0  -3 275639. 7206.17   2
  -7   7  -4 114322. 4030.50   1
   0  -7  -4 117335. 4188.56   1
   0   7  -4 101431. 4202.74   1
   7   0   4 117234. 4363.89   1
  -7   0   4 105544. 4172.31   1
   0   7   4 116696. 4255.43   1
   7   0  -4 106750. 4103.73   1
   7   0  -4 96851.9 3852.21   2
   7  -7   4 107145. 4165.38   2
  -7   0  -4 97467.4 4069.12   1
   7   0   4 111505. 4141.74   2
   0  -7   4 97225.6 4103.52   1
   0  -7  -5 132575. 4658.09   1
   7  -7   5 142781. 4696.35   1
  -7   7  -5 150400. 4883.89   1
   0  -7   5 137866. 4997.30   1
   7  -7   5 132565. 4825.91   2
   7   0   5 142001. 4999.67   1
   0   7   5 147289. 4865.54   1
  -7   0   5 141781. 5033.34   1
   7   0  -5 134098. 4795.35   1
   0   7  -5 129213. 4896.47   1
  -7   0  -5 140727. 4921.26   1
   7   0   5 132074. 4705.53   2
   7  -7   6 266998. 6990.01   1
  -7   7  -6 247469. 6923.44   1
   0  -7   6 256705. 7277.84   1
   7   0   6 241515. 6965.26   1
   0   7   6 224752. 6638.64   1
  -7   0   6 254152. 7097.57   1
   7   0  -6 253854. 7033.61   1
   0  -7  -6 230006. 6611.13   1
   0   7  -6 241597. 7110.73   1
  -7   0  -6 234377. 6884.20   1
   7  -7   6 235983. 6941.00   2
   7   0   6 240135. 6780.99   2
   7  -7   7 23417.1 1868.66   1
  -7   7  -7 25209.5 1987.31   1
   7   0   7 21880.5 1846.35   1
   0  -7   7 22005.3 2028.78   1
   0   7   7 17866.5 1625.38   1
   7   0  -7 22237.7 1822.26   1
  -7   0   7 25437.2 1968.63   1
   0   7  -7 22874.3 1942.93   1
  -7   0  -7 25110.4 1945.19   1
   0  -7  -7 25694.0 1897.82   1
   7   0   7 21845.7 1828.79   2
   7  -7   7 22725.6 1914.20   2
   7  -7   8 19852.8 1826.39   1
  -7   7  -8 20142.1 1868.81   1
   7   0   8 17791.3 1698.83   1
   0   7   8 20103.3 1785.68   1
   0  -7   8 21954.7 1931.80   1
   7   0  -8 18852.5 1713.78   1
  -7   0   8 19550.4 1761.90   1
  -7   0  -8 21281.4 1840.67   1
   7  -7   8 17224.0 1746.25   2
   0   7  -8 19596.9 1889.31   1
   0  -7  -8 22225.4 1751.93   1
   7   0   8 17554.3 1650.89   2
   7  -7   9 67391.6 3492.34   1
  -7   7  -9 67115.6 3476.64   1
   7   0   9 69604.2 3443.16   1
   0   7   9 66035.5 3311.36   1
   0  -7  -9 59974.5 3056.71   1
   0  -7   9 58907.8 3441.96   2
   0  -7   9 62166.1 3412.36   1
   7   0  -9 61921.4 3249.74   1
   0   7  -9 67765.6 3512.28   1
   7  -7   9 65728.3 3359.89   2
  -7   0   9 68612.2 3418.98   1
   7   0   9 59158.6 3155.43   2
  -7   0  -9 65091.9 3370.23   1
   7  -7  10 110335. 4662.46   1
   0  -7  10 97259.6 4590.86   2
  -7   7 -10 112711. 4680.13   1
   7   0  10 114788. 4697.90   1
   0   7  10 106509. 4385.38   1
  -7   0 -10 114252. 4527.21   1
   0  -7  10 104288. 4615.11   1
   7   0  10 117351. 4559.75   2
   0   7 -10 108160. 4678.05   1
   7   0 -10 111461. 4565.27   1
   7  -7  10 103801. 4433.60   2
  -7   0  10 112892. 4597.30   1
   7  -7  11 19041.2 1888.61   1
  -7   7 -11 22154.2 2034.90   1
   7   0  11 18763.2 1864.23   1
  -7   0 -11 20300.1 1906.25   1
   0  -7  11 21241.2 2034.39   1
   0  -7  11 20839.5 2093.15   2
   7  -7  11 19382.6 1908.11   2
   0   7 -11 21585.1 2052.57   1
  -7   0  11 23280.3 2032.37   1
   7   0  11 19315.5 1790.29   2
   7   0 -11 20771.8 1923.10   1
   0   7 -12 10323.7 1337.07   1
   7  -7  12 8647.14 1300.44   1
   0  -7  12 7362.27 1287.52   2
   7   0  12 7638.12 1180.86   1
  -7   7 -12 6653.30 1155.09   1
  -7   0  12 10662.1 1410.29   1
   7  -7  12 8173.09 1262.13   2
   0  -7  12 8125.22 1314.33   1
   7   0 -12 6666.42 1118.48   1
  -7   0 -12 10197.8 1292.18   1
   7   0  12 8745.43 1261.48   2
   0   7 -13 10104.5 1495.53   1
   7  -7  13 10070.5 1445.78   1
   7   0  13 13684.8 1655.50   1
  -7   7 -13 11670.6 1512.28   1
   0  -7  13 12738.1 1674.97   2
   7  -7  13 10835.3 1440.56   2
   0  -7  13 10182.7 1447.34   1
  -7   0 -13 11572.3 1421.73   1
   7   0  13 11231.9 1461.17   2
   0   7  13 6749.27 1154.98   2
   7  -7  14 66432.9 3854.92   1
  -7   7 -14 76745.7 4049.20   1
   7   0  14 79808.3 4062.34   1
  -7   0 -14 86094.8 4013.03   1
   0  -7  14 87272.2 4307.64   1
   7  -7  14 74866.7 3901.57   2
   0   7 -14 81708.4 4128.33   1
   7   0  14 76069.0 3946.82   2
   0  -7  14 70136.8 4063.59   2
   7  -7  15 25410.6 2299.07   1
  -7   7 -15 30892.8 2506.54   1
   7   0  15 34069.5 2639.38   1
   0  -7  15 28105.8 2570.13   2
  -7   0 -15 32851.9 2463.96   1
   7  -7  15 27085.8 2319.51   2
   0  -7  15 31606.8 2582.86   1
   0   7 -15 29722.4 2476.40   1
   7   0  15 29662.9 2490.81   2
   0   7 -16 10421.8 1506.51   1
   7  -7  16 8883.68 1329.91   1
   7   0  16 13468.6 1668.15   1
  -7   7 -16 9808.03 1460.90   1
   0  -7  16 5033.90 1252.32   2
  -7   0 -16 9850.37 1322.59   1
   7  -7  16 10832.0 1492.28   2
   7   0  16 8668.25 1459.92   2
   0  -7  16 10580.4 1551.23   1
  -7   7 -17 20844.4 2134.16   1
   7  -7  17 18882.2 2059.11   1
   4   4  17 557.550 471.194   1
   4  -8  17-109.485 368.281   2
  -4  -4 -17-430.514 468.829   1
   4   4  17 20.1231 371.816   2
   4   4  16 138543. 5638.13   1
  -4  -4 -16 125637. 5225.32   1
   4  -8  16 153421. 6086.05   2
   4   4  16 123066. 5437.00   2
  -4   8 -16 153828. 6002.44   1
  -4   8 -15 323.879 438.659   1
   4   4  15 78.5647 489.195   2
   4   4  15 124.582 321.555   1
   4  -8  15 202.529 376.479   2
  -4  -4 -15-84.7695 319.663   1
  -4   8 -14 999.109 672.457   1
   4   4  14 392.078 483.541   1
   4  -8  14 436.120 467.069   2
  -4  -4 -14-19.1287 353.351   1
   4   4  14 418.345 454.024   2
  -4   8 -13 724.956 471.829   1
   4  -8  13 192.851 385.624   2
   4   4  13 129.594 388.012   1
   4   4  13-516.656 414.201   2
  -4  -4 -13 251.397 318.651   1
   4   4  12 242670. 7380.42   1
   4  -8  12 237060. 7584.74   1
  -4  -4 -12 236727. 7162.66   1
   4  -8  12 236074. 7598.20   2
   4   4  12 225017. 7209.60   2
  -4   8 -12 240970. 7618.54   1
  -4  -4 -11-270.357 395.169   1
   4  -8  11 451.531 498.967   1
  -4   8 -11-946.962 545.244   1
   4   4  11 915.755 513.289   1
   4  -8  11 139.683 399.398   2
   4   4  11-495.133 429.463   2
   4  -8  10 2235.71 746.057   2
  -4   8 -10 2527.74 778.720   1
  -4  -4 -10 2667.83 718.275   1
   4  -8  10 2846.46 735.652   1
   4   4  10 3078.49 689.979   1
   4   4  10 4679.18 982.106   2
  -4   8  -9-649.029 491.802   1
  -4  -4  -9-79.2341 289.076   1
   4   4   9 392.967 503.706   1
   4  -8   9-436.212 460.399   2
   4  -8   9-438.904 391.318   1
   4   4   9 323.112 397.788   2
   4   4   8 159938. 5674.75   1
   4  -8   8 178576. 5982.37   2
   4  -8   8 172577. 5805.89   1
  -4  -4  -8 158861. 5536.63   1
  -4   8  -8 171878. 5862.65   1
   4   4   8 162746. 5739.53   2
  -4   8  -7 130.757 279.176   1
  -4  -4  -7-370.983 463.320   1
   4   4   7-35.7261 262.860   1
   4  -8   7 296.435 499.904   2
   4  -8   7-117.179 384.509   1
   4  -8   6 14444.5 1510.60   1
   4   4   6 12746.1 1461.67   1
   4  -8   6 9339.43 1330.84   2
  -4   8  -6 13697.8 1454.58   1
  -4  -4  -6 14376.1 1488.09   1
  -4   8  -5-247.532 311.956   1
   4  -8   5-122.419 342.439   1
   4  -8   5 456.869 484.412   2
   4   4   5 469.717 416.854   1
  -4  -4  -5-285.140 363.573   1
  -4  -4  -4 402511. 9635.46   1
   4   4   4 402805. 9639.63   1
   4  -8   4 381662. 9660.68   2
   4  -8   4 387089. 9113.78   1
  -4   8  -4 417658. 9466.03   1
   4   4   3 240.795 417.855   1
   4  -8   3-194.454 258.590   1
   4  -8   3-50.4971 361.980   2
  -4  -4  -3-169.890 413.612   1
  -4   8  -3 248.331 299.602   1
  -4  -4  -2 17207.8 1596.40   1
   4  -8   2 19832.3 1509.99   1
   4   4   2 16267.0 1589.84   1
   4  -8   2 18410.5 1700.17   2
  -4   8  -2 19804.2 1532.66   1
   8  -4  -2 19031.8 1433.34   2
  -4  -4  -1 878.339 510.176   1
  -8   4   1 208.879 173.665   1
   4  -8   1 160.423 384.969   2
   4   4   1 313.113 441.453   1
   8  -4  -1 481.868 335.856   2
  -4   8  -1 288.120 321.566   1
   4  -8   1 465.870 324.786   1
   4  -8   0 694428. 14533.7   2
  -4  -4   0 714004. 14463.1   1
   4   4   0 693076. 14336.0   1
   8  -4   0 708977. 13763.8   2
  -8   4  -1 1671.54 545.853   1
  -4  -4   1 886.632 584.105   1
   8  -4   1 602.271 322.282   2
   8  -4   1 662.146 340.478   1
   4  -8  -1 1150.50 440.279   2
   4   4  -1 818.081 526.861   1
   8  -4   2 105831. 3723.14   1
  -4  -4   2 102352. 4153.15   1
   4   4  -2 111498. 4300.38   1
  -8   4  -2 105519. 3769.20   1
   8  -4   2 105321. 3915.34   2
   8  -4   3 286.867 305.459   1
   4   4  -3 211.073 292.552   1
  -4  -4   3 272.977 424.219   1
   8  -4   3 98.6870 502.002   2
  -8   4  -3 417.757 263.255   1
   8  -4   4 230975. 6418.95   1
   8  -4   4 255814. 6766.25   2
  -8   4  -4 254348. 6663.48   1
   4   4  -4 236302. 6927.27   1
  -4  -4   4 225451. 6729.64   1
  -4  -4   5 110.251 322.484   1
   8  -4   5 18.0740 373.432   1
   4   4  -5-452.620 419.967   1
  -8   4  -5-105.089 289.808   1
   8  -4   5-210.184 415.929   2
   8  -4   6 66454.0 3155.99   1
  -8   4  -6 61398.2 3059.34   1
   4   4  -6 62460.1 3221.34   1
   8  -4   6 63767.2 3129.59   2
  -4  -4   6 69384.5 3407.12   1
   8  -4   7 336.610 441.695   1
  -4  -4   7 209.898 364.002   1
  -8   4  -7-191.552 328.486   1
   4   4  -7 788.037 577.787   1
   8  -4   7 353.392 405.462   2
   8  -4   8 304777. 8106.14   1
  -8   4  -8 275950. 7785.28   1
   8  -4   8 301921. 8001.49   2
  -4  -4   8 311844. 8327.06   1
   4   4  -8 298780. 8174.19   1
   8  -4   9 306.742 332.133   1
  -8   4  -9 301.054 363.206   1
   8  -4   9-229.912 319.704   2
   4   4  -9-195.220 366.636   1
  -4  -4   9-334.887 481.685   1
   8  -4  10 725.730 544.305   1
  -8   4 -10 115.275 329.584   1
   8  -4  10 1056.83 575.339   2
   4   4 -10 325.521 314.542   1
  -4  -4  11-360.380 461.403   1
   8  -4  11 333.639 519.028   1
  -8   4 -11-343.363 248.920   1
   8  -4  11 700.923 418.496   2
   4   4 -11 611.402 531.113   1
   8  -4  12 178221. 6308.71   1
   8  -4  12 190108. 6203.54   2
  -4  -4  12 184652. 6403.89   1
  -8   4 -12 191437. 6313.81   1
   4   4 -12 185226. 6402.58   1
  -4  -4  13-419.647 470.950   1
   8  -4  13 615.530 380.303   1
  -8   4 -13-101.895 335.318   1
   8  -4  13 625.725 474.342   2
   4   4 -13 453.364 438.780   1
   4   4 -14 4990.04 1066.79   1
  -4  -4  14 4793.38 1003.39   1
   8  -4  14 5977.82 1105.52   1
  -8   4 -14 5011.22 949.172   1
   8  -4  14 7430.44 1198.23   2
   8  -4  15 270.118 511.740   1
  -4  -4  15-114.315 425.377   1
   8  -4  15 406.707 471.878   2
   4   4 -15 53.3280 333.875   1
  -8   4 -15 189.952 428.317   1
   8  -4  16 146445. 5860.51   1
  -8   4 -16 149756. 5749.22   1
  -4  -4  16 146269. 6006.23   1
   4   4 -16 140400. 5764.04   1
   8  -4  16 151202. 5690.43   2
  -4  -4  17 76.4000 485.790   1
   4   4 -17 256.955 508.138   1
   3   5  17 3215.36 877.215   1
   5   3  17 3310.66 818.084   1
   3  -8  17 2782.74 847.243   2
   5  -8  17 3327.05 957.628   2
  -3  -5 -17 2592.15 776.831   1
  -5  -3 -17 4187.10 908.559   1
   5   3  17 4146.75 905.606   2
   5  -8  16 7509.35 1271.93   2
   5  -8  16 8381.26 1445.33   1
  -3   8 -16 7459.12 1311.82   1
  -5   8 -16 7586.63 1283.15   1
   3  -8  16 6805.52 1270.56   1
   5   3  16 6945.28 1213.32   1
   3   5  16 6657.00 1174.32   1
   3  -8  16 6505.46 1238.31   2
  -5  -3 -16 7541.52 1146.44   1
  -3  -5 -16 6783.51 1156.20   1
   5   3  16 7610.93 1366.70   2
   3   5  16 6745.71 1248.53   2
   5   3  15 100671. 4682.48   1
   3   5  15 96177.5 4540.05   1
  -5  -3 -15 102280. 4553.20   1
  -3  -5 -15 96430.2 4439.99   1
   5   3  15 103501. 4702.88   2
   3  -8  15 102434. 4761.68   1
   3  -8  15 96731.1 4713.24   2
   5  -8  15 99617.5 4798.51   2
  -3   8 -15 95290.9 4647.92   1
   3   5  15 85243.6 4365.71   2
  -5   8 -15 101470. 4801.48   1
   5  -8  15 93236.1 4734.64   1
   5   3  14 72173.8 3791.04   1
   3   5  14 66577.1 3699.84   1
  -5  -3 -14 68665.1 3650.27   1
  -3  -5 -14 65683.9 3554.42   1
   3  -8  14 65495.2 3805.83   1
   3  -8  14 64738.7 3807.05   2
   5  -8  14 67232.7 3787.74   2
   5   3  14 72191.3 3765.28   2
  -3   8 -14 67907.1 3774.17   1
   3   5  14 63597.1 3636.37   2
  -5   8 -14 71042.7 3831.34   1
   5  -8  14 61794.9 3783.56   1
   5   3  13 43956.7 2918.05   1
   3   5  13 43868.3 2915.77   1
   3  -8  13 44217.3 3063.81   2
   3  -8  13 47377.6 3143.05   1
  -5  -3 -13 48862.6 3016.21   1
  -3  -5 -13 45989.3 2903.85   1
   5  -8  13 44760.7 3033.02   2
  -3   8 -13 46269.2 3125.54   1
   5   3  13 45007.1 2922.72   2
   3   5  13 49601.1 3056.86   2
  -5   8 -13 41140.6 2984.93   1
   5  -8  13 45571.7 3139.71   1
  -5  -3 -12 1656.17 607.165   1
  -3  -5 -12 3165.06 812.715   1
   5  -8  12 1660.23 650.424   1
  -3   8 -12 2691.98 826.779   1
   3  -8  12 2849.27 819.237   1
  -5   8 -12 2470.70 693.516   1
   5   3  12 2479.80 779.685   1
   3   5  12 2306.89 764.457   1
   3  -8  12 1142.03 689.192   2
   5  -8  12 1993.47 618.880   2
   5   3  12 2036.28 677.448   2
   3   5  12 2166.95 674.979   2
  -5  -3 -11 1782.36 614.220   1
   5  -8  11 585.295 509.927   1
  -3   8 -11 1934.28 705.135   1
  -3  -5 -11 1262.78 504.504   1
   3  -8  11 1309.55 597.438   1
  -5   8 -11 1098.04 464.613   1
   3  -8  11 1634.30 636.304   2
   5   3  11 973.168 385.439   1
   3   5  11 678.897 407.383   1
   5  -8  11 1514.89 684.428   2
   5   3  11 824.089 479.088   2
   3   5  11 1390.46 545.763   2
   5   3  10 173759. 5953.27   1
   3   5  10 167508. 5863.19   1
   3  -8  10 173097. 6032.76   1
  -5  -3 -10 178520. 5973.98   1
   3  -8  10 172348. 6167.85   2
   5  -8  10 167657. 6058.08   2
  -3  -5 -10 180188. 5951.62   1
  -3   8 -10 170980. 6061.86   1
   5   3  10 173208. 5847.86   2
  -5   8 -10 168504. 6035.30   1
   3   5  10 147962. 5681.04   2
   5  -8  10 167657. 6058.25   1
   3  -8   9 23902.0 2052.56   1
   5   3   9 23955.3 2007.99   1
   3   5   9 24312.1 1994.75   1
   3  -8   9 20640.0 1961.55   2
   5  -8   9 21112.4 1965.17   2
  -5  -3  -9 24347.9 2024.68   1
  -3  -5  -9 20806.2 1864.97   1
  -3   8  -9 22562.8 1984.02   1
   5   3   9 25461.3 2040.88   2
  -5   8  -9 23347.2 2061.47   1
   5  -8   9 21745.8 1940.92   1
   3  -8   8 75280.3 3667.44   1
   5   3   8 74066.2 3664.26   1
   3   5   8 67240.2 3469.58   1
   3  -8   8 63926.9 3495.67   2
   5  -8   8 66964.7 3605.41   2
  -5  -3  -8 70497.7 3512.27   1
  -3  -5  -8 68882.6 3387.12   1
  -3   8  -8 70846.2 3624.56   1
  -5   8  -8 74119.0 3626.38   1
   5   3   8 74255.1 3648.84   2
   5  -8   8 73904.6 3698.64   1
   5   3   7 86336.0 3886.92   1
   3   5   7 86386.1 3821.74   1
   5  -8   7 79013.5 3842.92   2
  -5  -3  -7 84562.2 3778.26   1
  -3   8  -7 83549.3 3911.89   1
  -3  -5  -7 82338.0 3704.66   1
  -5   8  -7 86247.1 3896.33   1
   3  -8   7 88855.4 3893.15   1
   5   3   7 89550.0 3982.52   2
   3  -8   7 83842.5 4005.69   2
   5   3   6 113135. 4415.68   1
   3   5   6 108529. 4364.71   1
   3  -8   6 105466. 4458.18   2
   5  -8   6 108768. 4490.72   2
  -3   8  -6 108259. 4388.14   1
   3  -8   6 99846.9 4171.55   1
   5  -8   6 107183. 4196.61   1
  -5  -3  -6 95935.4 4163.31   1
  -5   8  -6 110622. 4367.41   1
  -3  -5  -6 111599. 4317.86   1
   5   3   6 108516. 4388.78   2
   5  -8   5 141981. 4744.28   1
   5   3   5 130534. 4951.03   1
   3   5   5 141467. 4992.54   1
   3  -8   5 138903. 4839.01   1
   5  -8   5 137635. 5054.17   2
   3  -8   5 135293. 5061.86   2
  -3   8  -5 140497. 4962.18   1
  -5   8  -5 141942. 4889.27   1
  -5  -3  -5 138243. 4987.02   1
  -3  -5  -5 139246. 4961.97   1
  -8   3   4 16846.4 1413.53   1
  -3  -5  -4 15654.6 1530.36   1
   5  -8   4 16566.4 1411.93   1
   5   3   4 16196.9 1631.79   1
   3   5   4 15784.4 1554.25   1
   5  -8   4 15779.8 1597.95   2
   3  -8   4 15377.3 1480.93   1
  -3   8  -4 14373.9 1481.88   1
  -5   8  -4 16590.5 1464.21   1
   3  -8   4 13966.7 1547.53   2
  -5  -3  -4 14869.9 1551.37   1
  -5  -3  -3 59510.2 3119.04   1
  -3  -5  -3 64154.9 3200.02   1
   3  -8   3 64604.0 3015.59   1
   8  -3  -3 62684.2 2759.46   1
   5   3   3 62074.2 3172.04   1
   3   5   3 58849.4 3101.63   1
   3  -8   3 64935.8 3304.39   2
   5  -8   3 61794.6 3237.67   2
  -3   8  -3 57336.2 2936.34   1
  -5   8  -3 68847.6 2995.65   1
   5  -8   3 65112.9 2837.31   1
  -8   3   3 61698.9 2783.30   1
   3  -8   2 432422. 9579.71   1
  -5  -3  -2 417752. 10120.3   1
  -3  -5  -2 445320. 10248.1   1
   8  -3  -2 443044. 9384.15   1
   5  -8   2 416115. 10064.5   2
   5   3   2 424213. 10183.2   1
   3   5   2 440784. 10268.5   1
   3  -8   2 423476. 10440.9   2
  -3   8  -2 445247. 9775.82   1
  -5   8  -2 452964. 9392.06   1
   8  -3  -2 433341. 9382.36   2
  -8   3   2 418628. 9394.87   1
  -5  -3  -1 13000.9 1415.73   1
  -3  -5  -1 12380.6 1372.60   1
  -3   8  -1 10300.4 1138.06   1
   8  -3  -1 15245.4 1317.57   1
   5   3   1 13717.9 1448.33   1
   3   5   1 13620.4 1449.55   1
   3  -8   1 12832.4 1458.61   2
   5  -8   1 12612.2 1427.70   2
   8  -5  -1 14050.8 1230.56   2
   8  -3  -1 12037.4 1250.81   2
  -8   3   1 11963.4 1189.81   1
   3  -8   1 11964.6 1180.30   1
   3  -8   0 4281.46 731.118   1
  -5  -3   0 3822.14 744.081   1
  -8   3   0 3475.45 645.602   1
  -3  -5   0 4003.89 736.089   1
   8  -3   0 5918.44 836.725   1
   5   3   0 6134.79 1014.66   1
   3   5   0 6319.50 1008.58   1
  -3   8   0 4782.19 766.410   1
   8  -5   0 6212.31 864.389   2
   5  -8   0 5942.04 954.090   2
   8  -3   0 4989.39 900.298   2
   8  -3   1 171192. 5018.45   1
  -5  -3   1 157887. 5352.89   1
  -8   5  -1 171075. 4747.02   1
   5  -8  -1 163240. 5430.32   2
  -3  -5   1 150530. 5274.38   1
   5   3  -1 167534. 5469.54   1
   3  -8  -1 167916. 4748.81   1
   3   5  -1 165063. 5424.31   1
  -3   8   1 159824. 4756.19   1
  -8   3  -1 158378. 4944.35   1
   8  -5   1 150972. 4932.62   2
   8  -3   1 158693. 4989.49   2
   8  -5   2 116100. 3929.61   1
   8  -3   2 122669. 4155.29   1
  -8   5  -2 117493. 3969.12   1
  -5  -3   2 118284. 4542.87   1
  -3   8   2 123200. 3936.05   1
   5   3  -2 116575. 4462.34   1
   5  -8  -2 133150. 4686.88   2
   3   5  -2 115434. 4445.47   1
  -3  -5   2 125516. 4597.81   1
  -8   3  -2 117479. 4204.91   1
   8  -5   2 112759. 4134.25   2
   8  -3   2 123042. 4298.20   2
   8  -5   3 133634. 4556.73   2
   8  -5   3 133509. 4393.60   1
   8  -3   3 120139. 4316.37   1
  -8   5  -3 129029. 4300.60   1
  -5  -3   3 133942. 4858.97   1
   5   3  -3 132614. 4787.31   1
  -8   3  -3 132061. 4531.14   1
  -3  -5   3 125890. 4660.04   1
   3   5  -3 126361. 4784.62   1
   8  -3   3 134888. 4588.31   2
   8  -5   4 61524.5 2838.39   1
   8  -3   4 55810.4 2765.01   1
  -8   5  -4 56060.1 2713.96   1
   8  -5   4 54457.6 2822.28   2
   5   3  -4 54348.6 2904.83   1
  -5  -3   4 50771.7 2934.10   1
   8  -3   4 54081.5 2833.38   2
   3   5  -4 52646.2 2929.52   1
  -3  -5   4 55380.2 2979.38   1
  -8   3  -4 57362.5 2883.37   1
   8  -5   5 865.343 404.232   1
  -3  -5   5 38.4939 397.012   1
   8  -3   5 350.595 346.894   1
  -5  -3   5 1132.99 501.193   1
  -8   5  -5 1422.49 530.673   1
   5   3  -5-193.778 461.184   1
   3   5  -5 1257.70 576.939   1
   8  -5   5 918.414 474.575   2
   8  -3   5 328.598 269.204   2
  -8   3  -5 918.867 402.230   1
   8  -5   6 314126. 7790.08   1
   3   5  -6 301384. 7969.16   1
   8  -3   6 283722. 7573.18   1
  -8   5  -6 283090. 7481.52   1
   8  -3   6 254432. 7354.08   2
  -8   3  -6 269543. 7451.25   1
   5   3  -6 274315. 7694.98   1
  -5  -3   6 267912. 7551.03   1
   8  -5   6 274484. 7586.32   2
  -3  -5   6 289612. 7787.41   1
   8  -5   7 58481.0 2990.63   1
   8  -3   7 53498.1 2904.86   1
  -8   5  -7 55266.7 2914.70   1
  -3  -5   7 51601.0 2955.91   1
  -8   3  -7 53102.1 2914.54   1
   5   3  -7 51842.9 2925.06   1
   3   5  -7 55223.8 3058.29   1
   8  -5   7 57038.4 3012.97   2
  -5  -3   7 53390.2 3017.95   1
   8  -3   7 52966.2 2932.38   2
  -3  -5   8 34923.7 2449.37   1
   8  -5   8 38775.6 2534.87   1
   8  -3   8 33726.1 2386.15   1
  -8   5  -8 43320.9 2616.94   1
  -8   3  -8 35947.7 2422.96   1
   3   5  -8 36356.9 2473.48   1
   5   3  -8 35987.9 2458.29   1
   8  -5   8 34318.4 2370.14   2
   8  -3   8 36686.5 2427.03   2
  -5  -3   8 36617.6 2506.27   1
   3   5  -9 179194. 6053.32   1
   8  -5   9 182371. 6018.81   1
  -3  -5   9 187489. 6183.59   1
   8  -3   9 175170. 5928.90   1
  -8   5  -9 186271. 6001.71   1
  -8   3  -9 180750. 5931.30   1
   8  -5   9 180602. 5902.08   2
   8  -3   9 174072. 5790.48   2
  -5  -3   9 180566. 6048.75   1
   5   3  -9 171846. 5968.40   1
   8  -5  10 107938. 4590.66   1
   8  -3  10 111444. 4676.78   1
  -3  -5  10 112117. 4755.06   1
  -8   5 -10 115271. 4666.71   1
  -8   3 -10 117053. 4577.61   1
   5   3 -10 113366. 4684.86   1
   3   5 -10 118879. 4837.78   1
   8  -5  10 114250. 4592.90   2
   8  -3  10 113825. 4559.61   2
  -5  -3  10 115579. 4740.86   1
   8  -5  11 9545.26 1359.16   1
  -3  -5  11 8616.05 1228.50   1
   8  -3  11 10284.4 1358.19   1
  -8   3 -11 10009.7 1338.74   1
  -8   5 -11 8859.62 1227.04   1
   8  -5  11 8512.09 1186.82   2
   8  -3  11 9836.14 1255.89   2
   5   3 -11 9224.61 1295.35   1
  -5  -3  11 8453.25 1271.26   1
   3   5 -11 8909.84 1263.15   1
   8  -5  12 586.862 375.904   1
  -3  -5  12 412.244 540.003   1
   8  -3  12 574.892 431.696   1
  -8   5 -12 477.497 436.916   1
  -8   3 -12 636.879 481.906   1
   8  -5  12 241.077 290.695   2
   8  -3  12 875.047 539.829   2
   5   3 -12 1676.76 641.715   1
   3   5 -12 811.741 469.932   1
  -5  -3  12-250.015 307.858   1
  -5  -3  13 2613.76 775.739   1
   8  -5  13 2579.50 730.744   1
   8  -3  13 4836.56 1017.05   1
  -3  -5  13 4096.48 939.171   1
  -8   5 -13 3834.40 898.264   1
  -8   3 -13 4319.02 953.388   1
   8  -5  13 4696.09 957.380   2
   8  -3  13 3519.13 862.295   2
   5   3 -13 3910.54 892.807   1
   3   5 -13 4333.36 1026.49   1
   8  -5  14 68332.4 3806.80   1
   8  -3  14 67316.5 3748.51   1
  -5  -3  14 65758.0 3757.68   1
  -8   5 -14 68860.1 3735.49   1
  -8   3 -14 67444.2 3652.29   1
  -3  -5  14 77656.6 4048.87   1
   5   3 -14 63715.6 3666.72   1
   8  -5  14 71924.6 3725.51   2
   3   5 -14 75414.2 3929.17   1
   8  -3  14 71681.2 3714.11   2
   8  -5  15 65674.9 3730.48   1
   8  -3  15 54423.2 3455.29   1
  -5  -3  15 63124.3 3725.32   1
  -8   5 -15 67847.7 3665.54   1
  -8   3 -15 63315.9 3483.01   1
  -3  -5  15 66125.1 3826.82   1
   5   3 -15 55184.5 3452.96   1
   8  -5  15 65175.3 3542.66   2
   3   5 -15 64321.1 3679.71   1
   8  -3  15 66678.2 3560.32   2
   8  -5  16 53121.4 3312.12   1
   8  -3  16 50591.4 3244.99   1
  -8   5 -16 51193.9 3218.02   1
  -5  -3  16 46794.0 3250.87   1
  -8   3 -16 54885.1 3325.13   1
  -3  -5  16 53031.9 3381.59   1
   8  -5  16 50142.7 3142.65   2
   5   3 -16 40885.7 3015.06   1
   3   5 -16 46179.6 3185.26   1
   8  -3  16 49549.7 3132.19   2
  -5  -3  17 28077.8 2500.26   1
   5   3 -17 25793.8 2376.79   1
   2  -8  17 29442.9 2711.88   2
  -2   8 -16-452.579 496.683   1
   6  -8  16 125.122 509.533   1
  -6   8 -16 337.301 360.852   1
   6   2  16 104.384 398.707   1
   2  -8  16 509.061 394.380   1
   2  -8  16 616.712 464.982   2
   6  -8  16 491.060 597.750   2
  -6  -2 -16-73.5699 402.980   1
   6   2  16 956.011 616.974   2
   6  -8  15 33072.6 2743.54   1
   2  -8  15 37797.3 2897.94   1
   6   2  15 39061.2 2784.58   1
   2   6  15 34618.0 2716.23   1
   6  -8  15 35181.4 2689.83   2
  -6  -2 -15 39334.0 2711.24   1
   2  -8  15 34241.9 2726.48   2
  -2   8 -15 36356.1 2776.81   1
   6   2  15 33972.5 2727.16   2
   2   6  15 31572.9 2584.44   2
  -6   8 -15 34874.6 2746.74   1
   6  -8  14 40610.4 2988.83   1
   2  -8  14 44373.6 3107.76   1
   6  -8  14 46010.3 3050.51   2
   6   2  14 49966.0 3152.54   1
   2   6  14 43670.3 2941.29   1
  -6  -2 -14 46338.9 2956.57   1
  -2  -6 -14 39469.9 2760.44   1
   6   2  14 43397.5 2940.67   2
   2  -8  14 38722.9 2949.61   2
  -2   8 -14 45818.5 3144.09   1
   2   6  14 42191.1 2980.83   2
  -6   8 -14 46103.7 3121.54   1
   6  -8  13 35378.7 2738.51   1
   2  -8  13 39172.0 2912.75   1
   6   2  13 38829.6 2762.17   1
   2   6  13 36715.0 2665.47   1
  -6  -2 -13 40529.8 2752.82   1
  -2  -6 -13 38725.0 2689.98   1
   2  -8  13 36428.2 2817.80   2
  -2   8 -13 42838.1 2966.30   1
   6   2  13 38028.0 2707.51   2
   6  -8  13 37614.5 2751.15   2
   2   6  13 31556.5 2491.58   2
  -6   8 -13 38852.7 2819.19   1
   2  -8  12 12784.7 1606.77   1
  -2  -6 -12 9563.62 1278.73   1
   6  -8  12 9884.56 1453.64   1
   6   2  12 10599.5 1430.02   1
  -6   8 -12 11233.3 1402.17   1
   2   6  12 9897.60 1395.19   1
   6  -8  12 10768.3 1519.00   2
  -6  -2 -12 12468.0 1498.64   1
   2  -8  12 11037.6 1526.80   2
  -2   8 -12 11392.8 1514.68   1
   6   2  12 11406.7 1405.55   2
   2   6  12 10320.2 1452.24   2
   6  -8  11 11686.2 1537.34   1
  -2   8 -11 12117.5 1549.63   1
  -2  -6 -11 10809.4 1381.45   1
   2   6  11 12507.7 1528.75   1
   6   2  11 10960.7 1393.51   1
   2  -8  11 11071.0 1514.27   2
   2  -8  11 11943.4 1539.22   1
   6  -8  11 9203.13 1333.76   2
   6   2  11 10483.8 1356.45   2
  -6   8 -11 13637.1 1575.31   1
  -6  -2 -11 11928.6 1418.91   1
   2   6  11 12102.7 1558.46   2
   6  -8  10 114771. 4921.54   1
   6   2  10 118075. 4777.55   1
   2   6  10 117789. 4692.28   1
   2  -8  10 106833. 4834.14   2
   6  -8  10 120149. 4961.39   2
  -2  -6 -10 108080. 4520.38   1
  -2   8 -10 114473. 4912.32   1
   6   2  10 122488. 4766.95   2
   2  -8  10 111107. 4806.49   1
  -6  -2 -10 109018. 4617.48   1
  -6   8 -10 122034. 4967.37   1
  -2   8  -9 2568.66 731.496   1
   6  -8   9 2838.39 717.717   1
  -6  -2  -9 1801.19 516.706   1
  -6   8  -9 2567.34 713.707   1
  -2  -6  -9 1527.23 572.843   1
   6   2   9 1785.58 541.129   1
   2   6   9 2642.97 724.679   1
   2  -8   9 2732.89 739.496   2
   6  -8   9 2173.72 727.797   2
   6   2   9 2282.92 604.933   2
   2  -8   9 3449.79 866.695   1
   6   2   8 128980. 4995.72   1
   2   6   8 131820. 4972.52   1
   2  -8   8 128887. 5108.96   2
   6  -8   8 123900. 5008.26   2
  -6  -2  -8 128579. 4939.20   1
   2  -8   8 135412. 5140.33   1
  -2   8  -8 122735. 4989.33   1
  -2  -6  -8 138615. 4968.32   1
   6   2   8 132590. 4881.09   2
  -6   8  -8 135562. 5116.81   1
   6  -8   8 133311. 5101.20   1
   6   2   7 46108.3 2840.57   1
   2   6   7 49675.0 2828.67   1
   2  -8   7 48483.2 2952.79   2
   2  -8   7 44042.2 2771.52   1
   6  -8   7 45651.5 2808.30   2
  -2   8  -7 50965.8 2989.86   1
  -6  -2  -7 46391.4 2817.06   1
  -2  -6  -7 51709.3 2901.54   1
   6   2   7 50204.0 2843.97   2
  -6   8  -7 47994.9 2885.45   1
   6  -8   7 46892.2 2825.55   1
  -8   2   6 355852. 8770.51   1
   6   2   6 370528. 9251.20   1
   2   6   6 341045. 8893.43   1
   2  -8   6 344848. 9042.00   1
   8  -2  -6 364268. 8615.41   1
  -6  -2  -6 364923. 9086.66   1
   2  -8   6 358744. 9410.77   2
   6  -8   6 355293. 9159.29   2
  -2   8  -6 321987. 8895.60   1
   6   2   6 375582. 9199.99   2
  -6   8  -6 355772. 8974.15   1
  -2  -6  -6 361439. 8987.92   1
   6  -8   6 355771. 8938.18   1
  -2  -6  -5 161420. 5370.12   1
  -8   2   5 167199. 5255.42   1
   2  -8   5 161434. 5519.18   1
   6   2   5 146229. 5255.26   1
   2   6   5 155923. 5304.10   1
   8  -2  -5 149084. 4854.12   1
   2  -8   5 154109. 5644.94   2
   6  -8   5 145698. 5322.68   2
  -2   8  -5 158624. 5402.53   1
  -6  -2  -5 151811. 5309.59   1
   6   2   5 160764. 5431.24   2
  -6   8  -5 155893. 5159.44   1
   6  -8   5 149084. 5040.07   1
  -6   8  -4 4238.70 798.534   1
   2  -8   4 2188.65 623.016   1
  -6  -2  -4 3040.37 714.509   1
   6   2   4 2767.89 703.171   1
   2   6   4 3547.15 831.794   1
   8  -2  -4 2814.32 687.324   1
   6  -8   4 3877.82 823.636   2
  -2  -6  -4 2952.21 716.903   1
   2  -8   4 3489.11 897.925   2
  -8   2   4 2956.98 617.364   1
  -2   8  -4 4707.36 885.443   1
   6   2   4 2846.06 649.925   2
  -8   2   3 177735. 5530.73   1
   2  -8   3 165965. 5524.91   1
  -2  -6  -3 181665. 5843.22   1
   6   2   3 198345. 6036.50   1
   8  -2  -3 186203. 5511.42   1
   2   6   3 192062. 5941.24   1
   6  -8   3 192675. 5947.05   2
  -2   8  -3 193298. 5887.71   1
   6   2   3 189354. 5949.74   2
  -6  -2  -3 185681. 5927.20   1
  -6  -2  -2 55027.7 2954.65   1
  -2  -6  -2 50279.0 2803.81   1
   8  -2  -2 56063.2 2729.04   1
   6   2   2 52110.5 2894.75   1
   2   6   2 49656.8 2756.81   1
   6  -8   2 54589.3 2964.10   2
  -2   8  -2 51952.8 2766.23   1
   8  -2  -2 51881.6 2652.18   2
   2  -8   2 58448.2 2817.27   1
  -8   2   2 52532.7 2746.51   1
  -6  -2  -1 102476. 4222.47   1
   6  -8   1 114616. 4297.76   2
  -2  -6  -1 99759.5 4091.68   1
   8  -2  -1 109573. 3961.67   1
   6   2   1 103276. 4177.89   1
   2   6   1 102015. 4145.38   1
  -2   8  -1 111831. 4181.31   1
   8  -6  -1 109300. 3829.25   2
   2  -8   1 106388. 3935.85   1
   8  -2  -1 108998. 4011.94   2
  -8   2   1 104061. 3949.81   1
  -6  -2   0 12374.1 1406.15   1
   2  -8   0 15491.5 1368.04   1
   8  -2   0 15505.1 1385.98   1
  -2   8   0 14684.2 1416.27   1
  -2  -6   0 14854.6 1471.96   1
   6   2   0 13989.2 1452.19   1
   2   6   0 13787.1 1470.71   1
   6  -8   0 14493.4 1450.97   2
   8  -6   0 14150.9 1345.90   2
   8  -2   0 14823.0 1437.77   2
  -8   2   0 12791.7 1321.93   1
  -6  -2   1 937.343 368.983   1
  -8   2  -1 482.798 234.839   1
   8  -2   1 644.478 469.758   1
   2  -8  -1 1088.30 463.849   1
  -2  -6   1 520.933 365.320   1
   6   2  -1 248.631 334.324   1
   6  -8  -1 664.416 288.536   2
  -2   8   1 396.279 343.817   1
   2   6  -1 812.129 494.631   1
   8  -6   1 612.218 349.151   2
   8  -2   1 560.088 466.478   2
   8  -6   2 233061. 6563.02   2
   8  -2   2 244288. 6674.81   1
  -6  -2   2 228857. 6792.84   1
   2  -8  -2 217686. 6123.36   1
   6   2  -2 227582. 6744.62   1
  -2   8   2 252842. 6498.07   1
   2   6  -2 237093. 6858.26   1
   6  -8  -2 248376. 6791.86   2
  -2  -6   2 230332. 6795.61   1
  -8   2  -2 244753. 6715.97   1
   8  -2   2 244133. 6658.99   2
  -2  -6   3 977.738 468.915   1
   2  -8  -3 1649.02 443.265   1
  -8   2  -3 1887.57 569.578   1
  -6  -2   3 2012.41 704.247   1
   8  -2   3 970.948 382.256   1
   6  -8  -3 571.405 339.232   2
  -2   8   3 1173.54 478.111   1
   6   2  -3 1199.18 491.125   1
   8  -6   3 1688.59 536.978   2
   2   6  -3 2118.54 695.656   1
   8  -2   3 1501.58 521.541   2
   8  -6   4 195503. 5783.20   1
  -8   6  -4 245015. 6279.29   1
   8  -2   4 225170. 6298.76   1
  -2   8   4 211463. 5889.09   1
  -6  -2   4 199338. 6311.96   1
   6   2  -4 179510. 6049.48   1
   2   6  -4 203537. 6362.59   1
  -8   2  -4 217144. 6314.81   1
   8  -6   4 201487. 6151.69   2
  -2  -6   4 202483. 6316.79   1
   8  -2   4 226405. 6412.43   2
   8  -6   5 106411. 4042.96   1
  -8   6  -5 110213. 4130.79   1
   8  -2   5 108115. 4219.90   1
  -6  -2   5 107899. 4377.57   1
   6   2  -5 107329. 4313.81   1
   2   6  -5 110305. 4444.43   1
  -8   2  -5 98523.0 4118.93   1
   8  -6   5 107428. 4223.51   2
   8  -2   5 114945. 4372.93   2
  -2  -6   5 109377. 4395.38   1
   8  -6   6 370193. 8666.03   1
  -8   6  -6 343650. 8419.02   1
   8  -2   6 363686. 8727.60   1
  -6  -2   6 327496. 8635.08   1
   6   2  -6 304892. 8307.56   1
   2   6  -6 302194. 8509.30   1
   8  -6   6 338930. 8585.66   2
   8  -2   6 298995. 8202.47   2
  -2  -6   6 321773. 8592.13   1
  -8   2  -6 307273. 8275.57   1
  -2  -6   7 151782. 5496.68   1
   8  -6   7 160033. 5412.49   1
  -8   6  -7 169627. 5487.45   1
   8  -2   7 145726. 5194.60   1
  -8   2  -7 163110. 5414.31   1
   6   2  -7 145901. 5310.89   1
   2   6  -7 162759. 5604.18   1
  -6  -2   7 143297. 5269.35   1
   8  -6   7 152915. 5324.02   2
   8  -2   7 152702. 5277.88   2
  -6  -2   8 219.770 321.089   1
  -2  -6   8 811.003 496.867   1
   8  -6   8 1069.68 572.579   1
   8  -2   8 550.989 383.614   1
  -8   6  -8 628.070 327.110   1
   6   2  -8-72.8350 316.649   1
   8  -6   8 462.921 443.893   2
   2   6  -8-91.5052 533.533   1
   8  -2   8 318.994 394.714   2
  -8   2  -8 490.289 332.223   1
   8  -6   9 66883.7 3483.75   1
  -2  -6   9 67361.2 3567.94   1
  -8   6  -9 65191.5 3462.09   1
   8  -2   9 72225.1 3505.85   1
  -8   2  -9 65422.5 3351.35   1
   6   2  -9 63868.8 3345.42   1
   2   6  -9 64306.3 3473.21   1
   8  -6   9 64601.2 3419.71   2
  -6  -2   9 65669.7 3477.40   1
   8  -2   9 66233.5 3390.60   2
   8  -6  10 47066.2 2941.28   1
  -8   6 -10 49065.3 2934.27   1
   8  -2  10 43748.8 2788.90   1
  -2  -6  10 47280.3 3024.10   1
  -8   2 -10 46997.9 2870.31   1
   2   6 -10 47472.4 2987.13   1
   6   2 -10 48502.1 2939.25   1
   8  -6  10 47696.8 2903.33   2
   8  -2  10 45131.7 2805.50   2
  -6  -2  10 48785.1 2986.91   1
   8  -6  11 38674.7 2716.92   1
  -8   6 -11 45295.6 2864.44   1
   8  -2  11 43643.0 2853.57   1
  -2  -6  11 45180.5 2983.75   1
  -8   2 -11 42771.9 2752.30   1
   6   2 -11 42406.1 2842.87   1
   8  -6  11 42790.4 2780.96   2
   2   6 -11 41148.3 2784.37   1
   8  -2  11 39003.6 2753.18   2
  -6  -2  11 44798.9 2867.21   1
   8  -6  12 5346.80 1025.20   1
   8  -2  12 6565.83 1090.75   1
  -2  -6  12 8692.52 1234.54   1
  -8   6 -12 5631.90 997.016   1
  -6  -2  12 6548.41 1120.31   1
  -8   2 -12 4097.06 877.854   1
   8  -6  12 5525.37 1085.50   2
   6   2 -12 5996.11 990.073   1
   8  -2  12 6201.99 1133.03   2
   2   6 -12 6713.49 1154.15   1
   8  -6  13 10140.2 1492.16   1
   8  -2  13 11223.8 1522.66   1
  -8   2 -13 11812.5 1486.53   1
  -2  -6  13 13545.3 1669.05   1
  -8   6 -13 11718.6 1444.17   1
   8  -2  13 11001.6 1458.73   2
   8  -6  13 11557.4 1510.57   2
   6   2 -13 10224.8 1411.72   1
  -6  -2  13 11160.8 1502.67   1
   2   6 -13 11920.7 1549.53   1
   8  -6  14 64903.6 3709.29   1
  -8   6 -14 72368.6 3866.45   1
   8  -2  14 73525.5 3869.97   1
  -8   2 -14 75264.8 3852.81   1
  -2  -6  14 73932.7 4014.89   1
   6   2 -14 72337.8 3936.57   1
   8  -6  14 70661.5 3780.13   2
   2   6 -14 73095.1 3952.88   1
   8  -2  14 73968.4 3780.85   2
  -6  -2  14 71064.0 3925.12   1
   8  -6  15 1048.93 491.537   1
   8  -2  15 1009.17 506.330   1
  -8   6 -15 988.284 672.474   1
  -2  -6  15 888.584 404.954   1
  -8   2 -15 1257.10 560.807   1
   8  -6  15 800.632 464.953   2
   8  -2  15 1741.32 704.130   2
   6   2 -15 363.730 330.248   1
  -6  -2  15 869.094 422.879   1
   2   6 -15 1530.39 661.862   1
   8  -6  16 30478.6 2610.15   1
  -6  -2  16 31173.8 2629.84   1
  -8   6 -16 36112.7 2732.80   1
   8  -2  16 36334.8 2765.72   1
  -8   2 -16 39304.7 2729.44   1
  -2  -6  16 41377.8 3018.33   1
   6   2 -16 30683.4 2638.52   1
   2   6 -16 35119.6 2768.88   1
   8  -6  16 38355.5 2749.15   2
   8  -2  16 38572.3 2765.31   2
  -6  -2  17 13059.2 1780.64   1
   7  -8  16 101650. 4972.56   1
   1  -8  16 95608.5 5098.25   2
  -7   8 -16 112538. 5106.68   1
  -1   8 -15 3028.74 870.824   1
   7  -8  15 2602.74 843.019   1
  -7   8 -15 2835.01 769.869   1
   7   1  15 3735.16 947.229   1
   1  -8  15 1244.50 577.895   2
   7  -8  15 1086.90 468.881   2
  -7  -1 -15 3293.22 803.068   1
   7   1  15 2092.56 767.995   2
   1  -8  15 2364.50 782.357   1
  -1   8 -14 5286.56 1045.19   1
   7  -8  14 4518.66 918.150   1
  -7   8 -14 3567.48 933.176   1
   7   1  14 4527.92 986.233   1
   1  -8  14 4593.18 1081.29   2
   7  -8  14 5852.86 1104.10   2
  -7  -1 -14 6811.69 1155.83   1
   1  -8  14 5416.34 1092.29   1
   7   1  14 4298.23 984.644   2
   1   7  14 2488.81 726.081   2
  -1   8 -13 333.247 551.318   1
   7  -8  13-366.368 348.619   1
  -7   8 -13-6.50698 426.827   1
   7   1  13 102.769 295.092   1
   1  -8  13 696.586 580.697   2
   7  -8  13-579.066 489.391   2
   1  -8  13-40.5585 394.328   1
  -7  -1 -13 18.2383 321.074   1
   7   1  13 1637.16 709.593   2
   1   7  13 878.351 707.132   2
   7  -8  12 101312. 4851.25   1
   7   1  12 120769. 4908.31   1
  -7  -1 -12 117237. 4787.99   1
   1  -8  12 103201. 4980.17   2
   7  -8  12 116510. 4931.54   2
   1  -8  12 110166. 4876.05   1
  -1   8 -12 104929. 4826.52   1
   7   1  12 110153. 4671.67   2
  -7   8 -12 110977. 4950.10   1
  -1   8 -11 520.387 495.228   1
  -1  -7 -11 355.176 404.090   1
   7  -8  11 755.123 464.091   1
   1  -8  11 240.601 439.796   2
  -7   8 -11-393.873 417.515   1
   7   1  11 31.2315 456.821   1
   1   7  11-269.164 447.628   1
   7  -8  11-828.419 478.713   2
   1  -8  11-264.264 462.816   1
   7   1  11 752.967 535.176   2
  -7  -1 -11 589.242 383.826   1
  -7  -1 -10 6764.05 1125.25   1
   7  -8  10 8668.53 1295.68   1
  -7   8 -10 8046.86 1292.01   1
   7   1  10 8464.25 1249.86   1
   1   7  10 7772.82 1205.25   1
   1  -8  10 9349.64 1358.97   2
   1  -8  10 8030.27 1246.28   1
  -1  -7 -10 9350.48 1295.38   1
   7  -8  10 8315.42 1253.28   2
   7   1  10 8709.37 1235.46   2
  -1   8 -10 7062.65 1149.66   1
  -7  -1  -9 2777.61 665.061   1
   7  -8   9 3689.08 858.867   1
   1  -8   9 1985.89 759.400   2
  -1  -7  -9 2850.58 644.079   1
  -7   8  -9 5698.51 1033.76   1
   7   1   9 2772.24 779.222   1
   1   7   9 3645.94 779.112   1
   1  -8   9 3327.92 874.386   1
   7  -8   9 3377.52 867.608   2
   7   1   9 4130.92 915.590   2
  -1   8  -9 3248.99 825.413   1
   7  -8   8 285979. 8085.69   1
   7   1   8 282809. 7890.98   1
   1   7   8 279307. 7858.00   1
   1  -8   8 285653. 8220.74   1
  -8   1   8 289257. 8031.11   1
   8  -1  -8 287230. 7914.54   1
   7  -8   8 266730. 7862.03   2
  -7  -1  -8 278440. 7886.47   1
  -1   8  -8 250504. 7824.22   1
  -1  -7  -8 280952. 7680.01   1
   7   1   8 268565. 7659.27   2
   1  -8   8 254685. 8018.60   2
  -7   8  -8 283951. 8140.21   1
   7  -8   7 4188.09 865.309   1
  -7  -1  -7 4377.61 911.570   1
  -7   8  -7 5225.42 951.652   1
  -8   1   7 5382.39 894.277   1
   1  -8   7 4321.50 945.802   1
  -1  -7  -7 4825.35 822.131   1
   7   1   7 5752.56 933.093   1
   1   7   7 5133.49 950.406   1
   1  -8   7 5450.79 1014.12   2
   8  -1  -7 4994.94 899.274   1
   7  -8   7 3654.01 831.724   2
  -1   8  -7 3131.30 787.717   1
   7   1   7 4113.15 745.801   2
   1  -8   6 59510.3 3236.86   1
   7   1   6 58101.2 3194.59   1
  -8   1   6 54826.7 3033.16   1
   1   7   6 56200.3 3021.00   1
   7  -8   6 53602.3 3110.93   2
   8  -1  -6 54097.2 2913.49   1
  -1   8  -6 54314.4 3123.40   1
  -7  -1  -6 57385.4 3120.52   1
   7   1   6 54127.8 3003.61   2
  -1  -7  -6 53992.8 2966.75   1
  -7   8  -6 57088.5 3104.94   1
   1  -8   5 1302.69 492.298   1
  -8   1   5 1236.67 396.180   1
  -7  -1  -5 1360.03 513.138   1
   7   1   5 933.838 554.062   1
   1   7   5 1522.88 592.718   1
  -1  -7  -5 1336.85 519.562   1
   8  -1  -5 1323.11 463.652   1
   7  -8   5 1310.94 516.680   2
  -1   8  -5 1032.03 394.977   1
   7   1   5 343.193 313.108   2
   1  -8   4 448746. 10583.3   1
  -1  -7  -4 480018. 10605.8   1
  -8   1   4 422970. 10308.4   1
   7   1   4 442260. 10534.1   1
   1   7   4 429966. 10440.0   1
   8  -1  -4 463413. 10354.8   1
   7  -8   4 446709. 10572.7   2
  -1   8  -4 436072. 10580.8   1
  -7  -1  -4 453788. 10642.3   1
   7   1   4 450311. 10491.1   2
  -8   1   3 12583.6 1427.15   1
  -1  -7  -3 10903.8 1306.91   1
   7   1   3 12516.9 1417.53   1
   8  -1  -3 13147.8 1365.36   1
   7  -8   3 13538.6 1470.71   2
   1   7   3 10638.1 1281.95   1
  -1   8  -3 11127.1 1325.16   1
   1  -8   3 14025.2 1420.33   1
   7   1   3 11463.0 1329.42   2
  -7  -1  -3 12930.8 1429.59   1
  -8   1   2 231443. 6623.47   1
  -1  -7  -2 241450. 6786.79   1
   7   1   2 225745. 6712.43   1
   8  -1  -2 224312. 6462.39   1
   1   7   2 222381. 6730.91   1
  -1   8  -2 226006. 6632.60   1
   7  -8   2 225696. 6619.82   2
   1  -8   2 204096. 6344.04   1
   8  -1  -2 224957. 6407.02   2
   7   1   2 231254. 6728.44   2
  -7  -1  -2 217776. 6647.25   1
  -1  -7  -1 371.797 394.311   1
   8  -1  -1 803.497 416.179   1
   7   1   1-439.899 428.633   1
  -8   1   1 119.132 312.389   1
  -7  -1  -1 769.190 587.166   1
   1   7   1 881.733 542.767   1
   7  -8   1-28.3889 368.918   2
   8  -7  -1-110.322 252.836   2
  -1   8  -1 196.889 290.373   1
   1  -8   1-116.478 252.818   1
   8  -1  -1 348.896 388.944   2
   7   1   1 202.024 360.235   2
  -7  -1   0 112331. 4496.95   1
   8  -1   0 136535. 4685.01   1
   7   1   0 116051. 4556.03   1
  -1  -7   0 121924. 4627.20   1
   8  -7   0 127507. 4447.71   2
   1   7   0 120509. 4657.86   1
   1  -8   0 118554. 4395.99   1
  -1   8   0 126039. 4567.96   1
   7  -8   0 131718. 4698.60   2
   8  -1   0 126120. 4535.21   2
   7   1   0 130708. 4733.13   2
  -8   1   0 114748. 4443.58   1
   1  -8  -1 188.219 391.261   1
  -8   1  -1 270.254 487.482   1
   8  -1   1 709.247 378.981   1
  -1  -7   1 438.790 329.163   1
   7   1  -1 1351.57 507.973   1
   7  -8  -1 547.808 468.551   2
  -1   8   1 251.478 280.585   1
   8  -7   1 77.1213 287.839   2
   1   7  -1 373.010 281.953   1
  -7  -1   1 1339.13 572.573   1
   8  -1   1 485.501 341.454   2
   7   1  -1 259.899 328.317   2
  -7  -1   2 157225. 5415.03   1
   1  -8  -2 157808. 5152.08   1
   8  -1   2 166915. 5349.06   1
   7   1  -2 156648. 5345.72   1
  -1   8   2 158736. 5218.12   1
   1   7  -2 147001. 5328.67   1
   7  -8  -2 152605. 5160.69   2
  -1  -7   2 155447. 5294.21   1
   8  -7   2 162426. 5284.90   2
  -8   1  -2 150213. 5195.20   1
   8  -1   2 164142. 5309.53   2
   7   1  -2 149821. 5218.98   2
  -7  -1   3 4474.50 851.805   1
  -1  -7   3 2851.55 741.199   1
  -8   1  -3 4796.79 849.060   1
   8  -1   3 4197.69 779.928   1
   8  -7   3 5351.64 894.580   2
   7   1  -3 4561.31 864.017   1
  -1   8   3 5075.51 909.274   1
   1   7  -3 3546.12 734.809   1
   8  -1   3 3885.56 847.383   2
   1  -8  -3 4417.75 824.296   1
   1  -8  -4 582767. 12141.6   1
   8  -1   4 542669. 12330.3   1
  -7  -1   4 590061. 12732.5   1
  -1   8   4 567255. 12146.6   1
   7   1  -4 585802. 12636.7   1
   1   7  -4 590638. 12792.1   1
   8  -7   4 615879. 12733.9   2
  -8   1  -4 577968. 12496.1   1
   8  -1   4 589577. 12417.8   2
  -8   1  -5 8190.72 1101.50   1
  -7  -1   5 5655.68 994.431   1
   8  -1   5 8198.01 1106.19   1
  -1  -7   5 6083.72 1064.58   1
   1  -8  -5 7179.61 988.962   1
   7   1  -5 5325.66 949.518   1
  -1   8   5 7661.77 1055.90   1
   8  -7   5 4749.66 878.771   2
   1   7  -5 6556.95 1095.25   1
   8  -1   5 6795.26 975.780   2
  -8   1  -6-271.515 474.943   1
   8  -1   6-162.039 320.484   1
  -8   7  -6 413.765 324.167   1
  -7  -1   6 408.522 347.566   1
  -1   8   6-318.013 319.321   1
   7   1  -6 465.521 411.217   1
   8  -7   6 484.790 353.828   2
   1   7  -6 1099.53 551.824   1
  -1  -7   6 316.458 400.543   1
   8  -1   6 361.636 400.217   2
  -1  -7   7 779.120 479.536   1
  -8   1  -7 322.568 356.803   1
   8  -7   7 183.912 316.807   1
   8  -1   7 0.84831 351.934   1
  -8   7  -7 139.727 367.003   1
  -7  -1   7 918.277 519.201   1
   7   1  -7 71.3815 340.638   1
   8  -7   7 726.121 490.734   2
   1   7  -7-177.587 336.475   1
   8  -1   7-518.785 340.846   2
   8  -7   8 194912. 6318.15   1
  -8   7  -8 188159. 6237.90   1
  -1  -7   8 185084. 6277.10   1
   8  -1   8 177015. 6061.19   1
   7   1  -8 187624. 6181.64   1
  -8   1  -8 196302. 6266.40   1
  -7  -1   8 183885. 6207.32   1
   8  -7   8 184096. 6177.11   2
   1   7  -8 194437. 6427.58   1
   8  -1   8 197123. 6253.41   2
   8  -7   9 10020.1 1344.25   1
  -1  -7   9 8762.91 1289.39   1
   8  -1   9 8821.26 1222.28   1
  -8   7  -9 9311.54 1289.57   1
   8  -7   9 7469.54 1138.47   2
   7   1  -9 7694.55 1191.10   1
   8  -1   9 9334.32 1363.07   2
  -7  -1   9 8553.03 1257.41   1
   1   7  -9 9033.54 1332.35   1
  -8   1  -9 9303.41 1264.24   1
  -8   7 -10 10265.5 1430.09   1
   8  -7  10 9689.52 1390.64   1
   8  -1  10 11026.7 1420.64   1
  -1  -7  10 11395.6 1480.61   1
   8  -7  10 9789.02 1334.45   2
   7   1 -10 8715.90 1254.49   1
   8  -1  10 9595.44 1322.51   2
   1   7 -10 10802.6 1427.71   1
  -8   1 -10 11874.4 1315.59   1
  -7  -1  10 10035.1 1311.80   1
  -7  -1  11-289.174 392.975   1
   8  -7  11-566.297 390.760   1
   8  -1  11 150.110 330.440   1
  -1  -7  11 253.850 398.598   1
  -8   7 -11-22.6335 356.686   1
   8  -7  11 38.5237 324.850   2
   7   1 -11 670.402 441.402   1
  -8   1 -11-999.813 537.596   1
   8  -1  11-1074.25 563.714   2
   1   7 -11 7.03786 406.327   1
   8  -7  12 129754. 5391.94   1
  -8   7 -12 120294. 5174.28   1
   8  -1  12 139100. 5331.67   1
  -1  -7  12 133241. 5420.94   1
  -8   1 -12 127356. 5046.30   1
   7   1 -12 116040. 4987.41   1
   8  -7  12 118910. 5011.79   2
   1   7 -12 122734. 5189.75   1
  -7  -1  12 125157. 5239.02   1
   8  -1  12 122402. 4927.86   2
   8  -7  13-64.1474 329.383   1
   8  -1  13 255.934 460.486   1
  -7  -1  13-399.800 503.037   1
  -8   7 -13 526.561 417.296   1
  -1  -7  13-8.74137 554.519   1
   8  -7  13-763.636 559.574   2
  -8   1 -13 51.5146 272.224   1
   7   1 -13 533.288 359.379   1
   8  -1  13 321.201 284.252   2
   1   7 -13-1.05443 407.096   1
   8  -7  14 4293.05 943.107   1
   8  -1  14 4780.45 885.110   1
  -8   7 -14 6507.32 1191.91   1
  -7  -1  14 3366.45 865.696   1
  -1  -7  14 5350.74 1068.91   1
   8  -7  14 4897.17 1013.86   2
  -8   1 -14 4094.13 860.590   1
   8  -1  14 4855.00 1023.23   2
   1   7 -14 4340.35 930.017   1
   8  -7  15 557.806 360.057   1
   8  -1  15-6.33033 376.375   1
  -8   7 -15-364.551 386.890   1
  -1  -7  15-210.695 560.515   1
  -8   1 -15 124.102 309.653   1
   8  -7  15 703.880 452.243   2
   8  -1  15 532.040 393.915   2
   1   7 -15-573.586 458.735   1
   8  -7  16 95081.3 4747.81   1
  -8   7 -16 104662. 4926.00   1
   8   0   0 3065.15 747.821   1
   0  -8   0 3317.14 805.543   1
  -8   0   0 1674.50 623.267   1
   0   8   0 3134.43 719.868   1
   8  -8   0 2948.67 693.013   2
   8   0   0 2749.50 666.059   2
  -8   0   1 119322. 4688.84   1
   8  -8  -1 117084. 4473.71   2
   8   0   1 131113. 4833.74   1
   0  -8  -1 114134. 4524.78   1
   8   0  -1 128291. 4782.62   1
   0   8   1 124002. 4760.72   1
   0   8  -1 120774. 4689.61   1
   0  -8   1 125504. 4740.56   1
   8  -8   1 123123. 4648.61   2
   8   0   1 124214. 4685.18   2
   8   0  -1 129393. 4754.19   2
  -8   0  -1 123720. 4726.31   1
  -8   0   2 155922. 5561.76   1
   0  -8  -2 167866. 5565.79   1
   8   0   2 156421. 5455.16   1
   8   0  -2 165193. 5570.56   1
   0   8   2 167498. 5660.15   1
   0   8  -2 154621. 5537.64   1
   8  -8   2 171746. 5682.02   2
   0  -8   2 173376. 5678.48   1
   8   0   2 172753. 5624.87   2
   8   0  -2 171300. 5671.13   2
  -8   0  -2 162367. 5586.50   1
  -8   0   3 14199.2 1558.81   1
   0  -8  -3 13779.5 1470.59   1
   8   0   3 15994.6 1579.74   1
   8   0  -3 12828.5 1425.94   1
   0   8   3 14581.2 1552.76   1
   0   8  -3 13355.5 1492.15   1
   8  -8   3 15858.9 1655.13   2
   0  -8   3 16290.6 1626.91   1
  -8   0  -3 14941.6 1603.68   1
   8   0   3 14809.6 1495.69   2
   8   0  -3 14013.9 1529.53   2
   0  -8  -4 24456.2 1935.35   1
  -8   0   4 22946.1 1994.80   1
   8   0   4 26883.9 2127.42   1
   0   8   4 27574.2 2105.89   1
   8   0  -4 24916.8 2016.77   1
   0   8  -4 24519.8 2113.84   1
   8  -8   4 27168.3 2142.58   2
  -8   0  -4 25503.3 2047.48   1
   0  -8   4 25668.2 2086.86   1
   8   0   4 25857.7 2039.44   2
   0  -8  -5 57104.1 3052.14   1
  -8   0   5 60471.3 3246.71   1
   8   0   5 53453.0 3067.92   1
   0   8   5 53598.0 2961.15   1
   8   0  -5 50131.7 2924.17   1
   8  -8   5 54588.8 3108.77   2
   0   8  -5 51387.4 3033.33   1
  -8   0  -5 52076.4 2989.75   1
   8   0   5 51422.2 2914.84   2
   0  -8   5 50077.0 3005.11   1
   0  -8   6 182302. 6170.44   1
   8   0   6 160972. 5779.99   1
  -8   0   6 187600. 6240.57   1
   0   8   6 190698. 6117.15   1
   8   0  -6 195617. 6207.53   1
   0   8  -6 186343. 6337.43   1
  -8   0  -6 180864. 6029.70   1
   8   0   6 172758. 5809.68   2
   0  -8  -6 180268. 5912.35   1
   8  -8   6 183123. 6141.91   2
   0  -8   7 39300.9 2718.76   1
   8   0   7 39871.0 2641.57   1
   0   8   7 39704.8 2600.18   1
  -8   0   7 43097.1 2826.98   1
   8   0  -7 44845.9 2775.61   1
   8  -8   7 40809.8 2732.87   2
  -8   0  -7 47713.5 2914.61   1
   0   8  -7 41560.6 2791.93   1
   0  -8  -7 41265.9 2614.55   1
   8   0   7 42603.0 2674.41   2
   0  -8   8 38812.1 2735.35   1
   8   0   8 32612.3 2407.69   1
   8   0  -8 38559.1 2669.50   1
  -8   0  -8 37365.0 2590.98   1
   8  -8   8 33942.7 2462.87   2
   0   8  -8 35852.4 2623.15   1
   8   0   8 34679.4 2452.56   2
  -8   0  -9 6260.56 1080.88   1
   0  -8   9 4857.50 1030.44   1
  -8   8  -9 5538.28 1059.78   1
   8   0   9 5144.32 1064.87   1
  -8   0   9 5342.48 957.754   1
   8   0  -9 5635.45 1062.00   1
   8  -8   9 5719.56 1052.50   2
   8   0   9 5004.07 937.685   2
   0   8  -9 5048.60 991.333   1
   8  -8  10 75124.1 3982.07   1
  -8   8 -10 77495.0 3968.98   1
   8   0  10 71692.0 3720.74   1
   0  -8  10 82154.3 4120.40   1
  -8   0 -10 76862.5 3826.11   1
   8   0 -10 70638.2 3733.90   1
  -8   0  10 81989.4 4083.61   1
   8  -8  10 69372.3 3757.98   2
   0   8 -10 76630.2 3906.45   1
   8   0  10 79328.5 3869.79   2
   8  -8  11 55411.8 3449.59   1
  -8   8 -11 53358.0 3391.14   1
   8   0  11 59761.6 3396.50   1
   0  -8  11 63075.5 3631.80   1
  -8   0 -11 60036.6 3366.95   1
   8  -8  11 53669.2 3277.26   2
   0   8 -11 53884.0 3362.77   1
   8   0  11 54811.5 3285.47   2
   8  -8  12 2981.67 824.480   1
  -8   8 -12 4562.35 1008.89   1
   8   0  12 3407.08 748.764   1
   0  -8  12 4488.20 1083.00   1
   8  -8  12 2975.79 799.173   2
  -8   0 -12 3870.42 815.560   1
   8   0  12 3360.97 769.964   2
   0   8 -12 3768.30 883.217   1
  -8   8 -13 50390.1 3315.01   1
   8  -8  13 43731.2 3187.65   1
   8   0  13 57314.2 3399.51   1
   0  -8  13 60140.5 3571.95   1
  -8   0 -13 53804.4 3264.88   1
   8  -8  13 49853.7 3173.42   2
   0   8 -13 55188.9 3440.24   1
   8   0  13 54702.5 3320.55   2
  -8   8 -14 59088.0 3680.84   1
   8  -8  14 53445.6 3533.22   1
   8   0  14 81607.9 4093.90   1
  -8   0 -14 77777.6 3884.08   1
   0  -8  14 73753.7 4010.94   1
   8  -8  14 66380.1 3693.52   2
   0   8 -14 61495.9 3713.25   1
   8   0  14 73283.4 3865.68   2
   8  -8  15 6866.03 1290.14   1
  -8   8 -15 8797.57 1397.44   1
   4   5  16 10476.6 1499.28   1
  -4  -5 -16 9679.55 1407.70   1
   5   4  16 9839.81 1442.81   2
   4   5  16 8465.11 1355.59   2
  -4   9 -15 6642.77 1192.22   1
  -5   9 -15 4486.52 974.909   1
   5   4  15 5876.36 1146.64   1
   4   5  15 7114.10 1282.31   1
   5  -9  15 6073.98 1188.44   1
   5  -9  15 4992.66 1060.89   2
   4  -9  15 5532.67 1130.01   2
  -5  -4 -15 5228.00 947.626   1
  -4  -5 -15 4783.32 997.088   1
   5   4  15 4547.95 936.563   2
   4   5  15 6529.15 1184.50   2
   4  -9  15 5878.58 1163.25   1
   5   4  14 124414. 5193.42   1
   4   5  14 107303. 4904.36   1
   4  -9  14 120552. 5361.67   1
  -5  -4 -14 114479. 4961.64   1
  -4  -5 -14 114838. 4941.21   1
   4  -9  14 117872. 5297.47   2
   5  -9  14 127413. 5477.57   2
   5  -9  14 115472. 5228.17   1
  -4   9 -14 125414. 5409.92   1
   5   4  14 107764. 5003.61   2
   4   5  14 112596. 5023.27   2
  -5   9 -14 117412. 5273.66   1
   5   4  13 81983.0 4113.47   1
   4   5  13 81434.2 4118.96   1
   4  -9  13 78898.8 4198.73   1
  -5  -4 -13 87273.0 4148.69   1
  -4  -5 -13 80913.5 3993.16   1
   4  -9  13 86686.2 4411.04   2
   5  -9  13 86752.2 4378.77   2
   5  -9  13 70098.2 4012.48   1
  -4   9 -13 83306.5 4300.95   1
   5   4  13 83356.6 4130.07   2
  -5   9 -13 78309.0 4260.18   1
   4   5  13 67413.3 3815.92   2
   5   4  12 18924.8 1916.39   1
   4   5  12 20719.5 1957.72   1
   4  -9  12 19757.0 2025.46   1
  -4  -5 -12 19975.0 1914.24   1
  -5  -4 -12 21294.9 1926.29   1
   4  -9  12 19404.8 2045.64   2
   5  -9  12 21365.9 2151.29   2
   5  -9  12 20244.0 2088.94   1
  -4   9 -12 20054.7 2054.11   1
  -5   9 -12 21139.8 2139.31   1
   5   4  12 18592.2 1898.18   2
   4   5  12 19138.6 1913.27   2
   5   4  11 99267.1 4485.35   1
   4   5  11 97315.9 4400.44   1
   4  -9  11 93492.0 4519.00   1
   4  -9  11 88759.9 4438.18   2
   5  -9  11 90591.4 4480.20   2
  -5  -4 -11 89641.8 4226.04   1
  -4  -5 -11 92193.8 4266.25   1
   5  -9  11 93196.5 4489.39   1
  -4   9 -11 91721.6 4534.67   1
  -5   9 -11 93297.0 4547.87   1
   5   4  11 94039.5 4347.80   2
   4   5  11 94020.7 4430.51   2
   4  -9  10 139941. 5671.70   1
   5   4  10 145968. 5537.56   1
   4   5  10 139574. 5466.96   1
   5  -9  10 144840. 5714.12   2
  -5  -4 -10 162096. 5754.30   1
   5  -9  10 154591. 5836.93   1
  -4  -5 -10 145140. 5401.89   1
   4  -9  10 139386. 5606.63   2
  -4   9 -10 146954. 5793.42   1
  -5   9 -10 154108. 5875.69   1
   5   4  10 160527. 5737.43   2
   4   5  10 149710. 5751.73   2
   4  -9   9 15332.7 1688.88   1
   5   4   9 15283.9 1622.91   1
   4   5   9 18427.4 1788.11   1
   5  -9   9 17553.7 1797.71   1
   4  -9   9 16049.4 1745.36   2
   5  -9   9 15564.0 1765.13   2
  -5  -4  -9 15979.6 1703.84   1
  -4  -5  -9 17015.5 1708.09   1
  -4   9  -9 17200.3 1805.43   1
  -5   9  -9 16144.9 1749.91   1
   5   4   9 18992.9 1860.56   2
   4   5   9 16087.5 1658.40   2
  -4   9  -8 4439.51 1011.16   1
  -5   9  -8 3760.55 862.819   1
   4  -9   8 5121.82 1067.97   1
  -5  -4  -8 5630.84 942.343   1
  -4  -5  -8 4972.03 929.665   1
   5   4   8 3892.50 865.531   1
   4   5   8 5950.45 1036.49   1
   5  -9   8 3753.02 909.057   2
   4  -9   8 5392.77 1104.32   2
   5  -9   8 5193.32 1001.18   1
   5   4   8 5770.05 1074.37   2
   4  -9   7 2793.79 837.614   1
  -4   9  -7 2455.29 687.753   1
  -5   9  -7 3433.96 800.941   1
   5  -9   7 2014.04 655.980   2
  -5  -4  -7 3380.53 879.892   1
  -4  -5  -7 2503.04 718.619   1
   5   4   7 2995.64 777.573   1
   4   5   7 3794.29 909.280   1
   5  -9   7 4595.50 873.446   1
   4  -9   7 3707.25 927.602   2
   5   4   7 2680.57 743.461   2
   5  -9   6 51407.8 2958.05   1
   4  -9   6 50727.8 3045.30   2
   5   4   6 48221.8 2937.11   1
   4   5   6 48096.0 2892.31   1
   5  -9   6 48169.5 2994.12   2
   4  -9   6 47359.6 2878.28   1
  -4   9  -6 52195.8 3053.58   1
  -5   9  -6 51575.4 3039.94   1
  -5  -4  -6 46695.0 2890.26   1
  -4  -5  -6 48813.1 2927.47   1
  -5   9  -5 7055.61 1088.08   1
  -5  -4  -5 6814.29 1074.04   1
   5   4   5 6258.50 987.490   1
  -4  -5  -5 6989.27 1079.08   1
   4  -9   5 6016.29 1000.06   1
   4  -9   5 4790.35 1028.31   2
   5  -9   5 4820.13 1025.76   2
   4   5   5 6938.82 1105.31   1
  -4   9  -5 6346.00 1016.03   1
  -4  -5  -4 36454.3 2461.91   1
   4  -9   4 39663.7 2518.24   1
   5   4   4 36300.8 2493.28   1
   4   5   4 42099.7 2654.22   1
   4  -9   4 33855.0 2508.83   2
   5  -9   4 34661.1 2473.57   2
  -4   9  -4 41493.7 2569.18   1
  -5  -4  -4 40353.8 2594.41   1
  -5  -4  -3 77733.8 3765.73   1
  -4  -5  -3 85224.3 3892.65   1
   4  -9   3 82824.0 3571.09   1
   5   4   3 83439.8 3828.03   1
   4   5   3 86810.3 3897.02   1
   4  -9   3 80132.5 3921.11   2
  -4   9  -3 85880.2 3688.39   1
   5  -9   3 75986.2 3763.57   2
  -5  -4  -2 235406. 6957.52   1
  -4  -5  -2 231216. 6886.41   1
   5   4   2 237943. 6989.05   1
   4   5   2 223102. 6829.21   1
   5  -9   2 225679. 7003.11   2
  -5  -4  -1 165465. 5708.01   1
   4  -9   1 175501. 6050.67   2
  -4  -5  -1 171230. 5831.84   1
   5   4   1 169836. 5725.51   1
   4   5   1 180420. 5890.52   1
   5  -9   1 164016. 5807.89   2
  -5  -4   0 12735.0 1484.37   1
  -4  -5   0 15262.8 1548.67   1
   5   4   0 14462.0 1589.41   1
   4   5   0 16683.9 1664.46   1
   5  -9   0 16737.6 1690.03   2
   9  -5   0 14432.5 1369.37   2
   9  -4   0 16292.2 1506.33   2
   9  -4   1 45304.6 2495.89   1
  -5  -4   1 49926.4 2951.53   1
  -4  -5   1 50499.9 2971.60   1
   9  -4   1 55008.9 2866.81   2
   5  -9  -1 54119.7 3090.70   2
   5   4  -1 49720.3 2910.91   1
   4   5  -1 53034.5 3006.05   1
  -9   4  -1 56465.7 2778.94   1
   9  -5   1 52205.9 2790.13   2
   9  -4   2 390082. 9006.43   1
  -5  -4   2 386450. 9675.18   1
  -4  -5   2 371977. 9620.60   1
   5   4  -2 360475. 9533.50   1
   4   5  -2 360436. 9592.35   1
  -9   4  -2 370146. 9061.59   1
   9  -5   2 402522. 9456.73   2
   9  -4   2 415857. 9587.50   2
   9  -4   3 39858.2 2347.92   1
  -9   5  -3 34235.6 2214.51   1
  -5  -4   3 37968.3 2529.51   1
  -4  -5   3 42711.4 2622.55   1
  -9   4  -3 41890.3 2486.96   1
   5   4  -3 40585.6 2597.10   1
   4   5  -3 39954.6 2565.81   1
   9  -5   3 38964.2 2473.30   2
   9  -4   3 33945.0 2322.33   2
   9  -5   4 32791.6 2178.41   1
   9  -4   4 35400.2 2288.65   1
  -9   5  -4 34081.3 2230.15   1
  -9   4  -4 34367.4 2247.80   1
  -5  -4   4 35090.5 2397.80   1
   4   5  -4 32249.2 2347.26   1
  -4  -5   4 31722.4 2304.70   1
   9  -5   4 34585.9 2339.37   2
   9  -4   4 28725.0 2167.40   2
   9  -5   5 40911.1 2521.87   1
   9  -4   5 43075.1 2570.44   1
  -9   5  -5 40979.5 2486.84   1
  -9   4  -5 42177.1 2554.08   1
  -5  -4   5 38294.3 2562.92   1
   5   4  -5 36833.0 2506.99   1
   4   5  -5 39742.4 2681.20   1
  -4  -5   5 40589.5 2636.65   1
   9  -5   5 41016.5 2557.22   2
   9  -4   5 36118.5 2432.18   2
   9  -5   6 35903.9 2394.62   1
   9  -4   6 37364.6 2433.96   1
  -9   5  -6 34738.6 2309.71   1
  -9   4  -6 37725.3 2427.85   1
   5   4  -6 35315.7 2485.99   1
   4   5  -6 36595.1 2560.92   1
  -5  -4   6 33852.2 2419.61   1
  -4  -5   6 34029.2 2450.86   1
   9  -5   6 36268.9 2446.74   2
   9  -4   6 34958.8 2403.55   2
  -5  -4   7-82.3624 459.154   1
  -4  -5   7 141.992 470.438   1
   9  -5   7 674.999 424.317   1
   9  -4   7 40.2358 368.266   1
  -9   5  -7 721.725 504.420   1
   5   4  -7 1100.18 628.010   1
   4   5  -7 197.050 298.458   1
  -9   4  -7 817.673 424.272   1
   9  -5   7 910.459 517.161   2
   9  -4   7 675.224 346.261   2
  -5  -4   8 6332.53 1104.21   1
   9  -5   8 5885.01 1041.60   1
   9  -4   8 7693.58 1184.83   1
  -4  -5   8 6587.22 1114.05   1
  -9   5  -8 7279.69 1130.68   1
  -9   4  -8 7043.09 1045.70   1
   5   4  -8 6504.29 1104.51   1
   4   5  -8 8101.05 1250.27   1
   9  -5   8 8077.09 1148.20   2
   9  -4   8 7894.41 1137.10   2
   9  -5   9 20230.3 1945.61   1
   9  -4   9 16454.0 1719.35   1
  -9   5  -9 16499.4 1714.00   1
  -9   4  -9 20805.2 1869.87   1
   5   4  -9 16844.5 1760.61   1
   4   5  -9 19080.8 1850.05   1
   9  -5   9 16179.7 1717.80   2
   9  -4   9 16367.2 1668.42   2
  -5  -4   9 17901.9 1793.35   1
  -4  -5   9 18096.9 1802.29   1
   9  -5  10 118900. 4873.75   1
   9  -4  10 112291. 4789.58   1
  -9   5 -10 121147. 4865.39   1
   5   4 -10 115420. 4850.36   1
  -9   4 -10 113481. 4743.77   1
   4   5 -10 121213. 4969.80   1
   9  -5  10 112228. 4589.97   2
   9  -4  10 115893. 4733.30   2
  -5  -4  10 105348. 4680.91   1
  -4  -5  10 114224. 4805.40   1
   9  -5  11 112457. 4895.48   1
   9  -4  11 114453. 4841.58   1
  -9   5 -11 108426. 4675.54   1
  -9   4 -11 113286. 4776.62   1
   5   4 -11 117781. 4947.43   1
   4   5 -11 110562. 4843.99   1
   9  -5  11 112318. 4747.80   2
   9  -4  11 107618. 4608.17   2
  -5  -4  11 113747. 4838.67   1
  -4  -5  11 108597. 4855.52   1
  -4  -5  12 25204.9 2174.79   1
   9  -5  12 20141.8 1985.21   1
   9  -4  12 26105.0 2204.88   1
  -9   5 -12 21316.4 2056.70   1
  -9   4 -12 23449.1 2081.57   1
   5   4 -12 23818.9 2146.69   1
   4   5 -12 21477.4 2051.30   1
   9  -5  12 22155.4 1988.56   2
   9  -4  12 23340.5 1993.43   2
  -5  -4  12 25565.8 2252.59   1
  -4  -5  13 48105.9 3109.26   1
   9  -5  13 47055.1 3097.34   1
   9  -4  13 47701.3 3144.92   1
  -9   5 -13 47467.6 3039.87   1
  -9   4 -13 48341.8 3069.74   1
   5   4 -13 45215.5 3066.25   1
   4   5 -13 48915.5 3179.80   1
   9  -5  13 48118.2 2965.71   2
   9  -4  13 46776.6 2958.94   2
  -5  -4  13 52007.2 3300.90   1
  -5  -4  14 178085. 6407.94   1
   9  -5  14 147729. 5922.18   1
  -4  -5  14 166645. 6274.63   1
   9  -4  14 142063. 5863.42   1
  -9   5 -14 164140. 6079.03   1
  -9   4 -14 170960. 6111.20   1
   5   4 -14 145611. 5900.43   1
   4   5 -14 164830. 6222.98   1
   9  -5  14 165448. 5949.58   2
   9  -4  14 160127. 5833.07   2
  -4  -5  15 7698.94 1298.66   1
   9  -5  15 8772.51 1375.63   1
   9  -4  15 5626.97 1076.23   1
  -9   5 -15 9240.56 1358.75   1
  -9   4 -15 9613.02 1346.63   1
   9  -5  15 7518.87 1217.93   2
   9  -4  15 7228.26 1228.04   2
   5   4 -15 5042.71 993.302   1
   4   5 -15 8816.35 1297.75   1
  -5  -4  15 8923.80 1405.12   1
  -3   9 -15 5346.41 1193.57   1
   6  -9  15 5535.00 1229.94   1
   3  -9  15 5590.14 1331.33   2
  -6   9 -15 6157.71 1181.88   1
   6   3  15 5618.56 1022.38   1
   3   6  15 5406.90 1098.15   1
   3  -9  15 7367.10 1283.12   1
   6  -9  15 4678.44 1028.76   2
  -6  -3 -15 6525.52 1139.86   1
  -3  -6 -15 3713.80 819.482   1
   6   3  15 6271.10 1211.83   2
   3   6  15 4226.33 981.269   2
  -3   9 -14 8808.47 1392.42   1
   6  -9  14 6496.44 1247.38   1
  -6   9 -14 7677.55 1316.70   1
   3  -9  14 9585.62 1462.31   1
   6   3  14 8997.20 1381.04   1
   3   6  14 5836.69 1058.50   1
   6  -9  14 9129.38 1450.35   2
   3  -9  14 7458.35 1359.90   2
  -6  -3 -14 7906.69 1226.25   1
   6   3  14 7864.01 1309.00   2
  -3  -6 -14 7170.24 1136.72   1
   3   6  14 6304.95 1087.35   2
  -3   9 -13 1628.91 706.247   1
   6  -9  13 2670.71 755.779   1
  -6   9 -13 2425.18 756.035   1
   3  -9  13 3202.54 982.137   1
   6   3  13 3197.89 871.367   1
   3   6  13 2229.83 650.292   1
   3  -9  13 3915.49 1030.09   2
   6  -9  13 4686.34 1110.10   2
   6   3  13 2498.87 845.472   2
   3   6  13 1865.20 653.025   2
  -6  -3 -13 2625.30 700.539   1
  -3  -6 -13 2247.72 573.659   1
   6   3  12 214914. 6931.06   1
   3   6  12 198018. 6808.83   1
  -6  -3 -12 223821. 6982.39   1
   3  -9  12 201280. 7027.72   2
  -3  -6 -12 195936. 6559.31   1
   6  -9  12 200431. 6916.26   2
  -3   9 -12 205816. 7191.19   1
   6   3  12 209635. 6856.06   2
   3   6  12 178158. 6738.93   2
  -6   9 -12 208475. 7199.90   1
   3  -9  12 199999. 7045.97   1
   6  -9  12 176964. 6841.15   1
  -3   9 -11 1055.90 618.487   1
   6  -9  11 2017.25 805.408   1
  -6  -3 -11 1796.73 716.832   1
  -3  -6 -11 820.331 504.758   1
   3  -9  11 1458.18 630.260   1
  -6   9 -11 1640.36 638.528   1
   6   3  11 1772.29 665.591   1
   3   6  11 1316.69 496.553   1
   3  -9  11 1630.77 716.864   2
   6  -9  11 1179.64 446.741   2
   6   3  11 1190.99 524.860   2
   3   6  11 2273.12 754.982   2
   6   3  10 13424.7 1598.74   1
   3   6  10 15081.9 1659.02   1
   6  -9  10 16308.6 1812.47   2
  -6  -3 -10 14135.9 1580.01   1
   3  -9  10 13143.8 1626.71   2
  -3  -6 -10 16249.6 1698.15   1
  -3   9 -10 15584.5 1786.06   1
   3  -9  10 15903.9 1767.86   1
   6   3  10 16356.3 1639.20   2
  -6   9 -10 17838.0 1935.65   1
   3   6  10 12353.8 1579.67   2
   6  -9  10 17157.8 1837.13   1
  -3   9  -9 1779.88 676.026   1
  -6   9  -9 1914.24 649.923   1
  -6  -3  -9 1843.30 581.849   1
  -3  -6  -9 2159.80 678.754   1
   6   3   9 1261.50 572.634   1
   3   6   9 967.112 413.507   1
   3  -9   9 1594.89 535.828   2
   6  -9   9 776.707 527.264   2
   3  -9   9 2473.86 666.518   1
   6   3   9 1488.92 634.406   2
   6   3   8 240961. 7479.54   1
   3   6   8 261790. 7676.07   1
   3  -9   8 234718. 7609.16   2
   6  -9   8 255556. 7805.66   2
   3  -9   8 257662. 7778.02   1
  -6  -3  -8 243078. 7430.14   1
  -3   9  -8 248881. 7696.68   1
  -3  -6  -8 249417. 7395.35   1
   6  -9   8 243869. 7493.38   1
  -6   9  -8 276300. 7936.68   1
   6   3   8 254912. 7580.13   2
   6   3   7 24577.2 2136.09   1
   3   6   7 24795.7 2047.02   1
   3  -9   7 24676.3 2109.96   1
   3  -9   7 20519.8 1936.83   2
   6  -9   7 22367.5 2062.63   2
  -3   9  -7 23815.2 2112.97   1
  -6  -3  -7 24063.5 2066.85   1
  -3  -6  -7 23170.7 2010.37   1
  -6   9  -7 23385.1 2046.94   1
   6   3   7 24083.7 2036.69   2
  -6  -3  -6 440.162 399.518   1
   3  -9   6 384.268 401.251   1
   6   3   6 699.078 465.032   1
  -3  -6  -6 26.0876 295.072   1
   3   6   6-41.3038 324.954   1
   3  -9   6-803.393 586.983   2
   6  -9   6 854.626 516.508   2
   6   3   6 248.054 408.914   2
  -3   9  -6 782.619 433.990   1
   3  -9   5 1023.05 551.945   1
  -6  -3  -5 1656.24 546.576   1
   3  -9   5 939.538 556.275   2
   6   3   5 1195.74 446.393   1
   3   6   5 1246.66 494.339   1
  -3  -6  -5 1571.44 610.868   1
   6  -9   5 842.900 595.372   2
  -3   9  -5 1442.25 464.030   1
   6   3   5 737.146 489.539   2
  -3  -6  -4 177649. 5893.57   1
   3  -9   4 168596. 5634.50   1
   6   3   4 166748. 5838.42   1
   3   6   4 158707. 5705.43   1
   6  -9   4 169090. 5928.80   2
   3  -9   4 172564. 6197.78   2
  -3   9  -4 176061. 5833.11   1
  -6  -3  -4 167201. 5819.56   1
   6   3   4 171413. 5814.10   2
   3  -9   3 15593.7 1501.51   1
  -6  -3  -3 13020.1 1515.73   1
  -3  -6  -3 12576.3 1477.66   1
   6   3   3 14968.8 1596.76   1
   3   6   3 14663.6 1626.17   1
   3  -9   3 14407.5 1639.30   2
   6  -9   3 13401.6 1551.87   2
  -3   9  -3 13859.2 1467.54   1
   3  -9   2 6576.70 977.348   1
   6   3   2 7148.78 1149.32   1
   3   6   2 6001.86 973.021   1
   6  -9   2 6174.74 1116.49   2
  -6  -3  -2 6861.63 1105.23   1
  -9   3   2 7868.84 1066.38   1
  -3   9  -2 7295.52 1082.83   1
  -3  -6  -2 6378.67 1036.55   1
  -3  -6  -1 6771.04 1060.36   1
   3  -9   1 7022.57 942.750   1
  -9   3   1 7278.87 1001.05   1
   9  -3  -1 6839.32 982.584   1
   6   3   1 7697.89 1150.08   1
   6  -9   1 6630.44 1090.60   2
   3   6   1 6834.83 1056.08   1
  -3   9  -1 6670.85 1011.11   1
  -6  -3  -1 8549.61 1259.05   1
   9  -3  -1 7224.67 1083.81   2
  -6  -3   0 389212. 9881.88   1
   9  -3   0 387561. 9224.41   1
  -3  -6   0 383997. 9705.92   1
   6   3   0 389572. 9720.39   1
   3   6   0 387753. 9800.15   1
   6  -9   0 412282. 9940.54   2
   9  -6   0 394829. 9343.79   2
  -9   3   0 382940. 9240.28   1
   9  -3   0 394792. 9532.16   2
  -6  -3   1 883.294 452.869   1
  -9   3  -1 871.228 421.109   1
  -3  -6   1 504.583 453.466   1
   9  -3   1 829.695 302.787   1
   6  -9  -1 1013.69 600.931   2
   6   3  -1-328.793 445.321   1
   3   6  -1 704.556 385.943   1
   9  -6   1 1598.09 498.989   2
   9  -3   1 1442.69 486.082   2
  -6  -3   2 4630.89 864.802   1
  -9   3  -2 4600.61 848.691   1
   9  -3   2 4238.08 767.972   1
  -3  -6   2 4475.63 902.941   1
   6  -9  -2 4563.93 975.143   2
   6   3  -2 6111.26 1089.86   1
   3   6  -2 3868.52 846.934   1
   9  -6   2 4935.80 900.251   2
   9  -3   2 5399.04 929.952   2
  -9   3  -3 278.964 384.337   1
  -6  -3   3-466.367 375.245   1
   9  -3   3 378.009 425.075   1
  -3  -6   3-273.279 408.817   1
   6   3  -3 179.105 389.076   1
   3   6  -3-125.398 266.124   1
   9  -6   3 74.6074 395.565   2
   9  -3   3 39.6541 314.003   2
   9  -3   4 344650. 8755.56   1
  -6  -3   4 353402. 9309.17   1
   6   3  -4 352575. 9235.29   1
   3   6  -4 350684. 9283.85   1
  -9   3  -4 346367. 8831.95   1
  -3  -6   4 354584. 9182.28   1
   9  -6   4 366297. 9130.18   2
   9  -3   4 352819. 8952.59   2
   9  -3   5 24665.8 1926.55   1
  -6  -3   5 24750.9 2059.51   1
   6   3  -5 21963.8 1993.37   1
  -9   3  -5 28164.7 2112.34   1
   3   6  -5 24620.3 2028.70   1
   9  -6   5 27327.6 2064.82   2
  -3  -6   5 25326.6 2050.91   1
   9  -3   5 22974.4 1981.21   2
   9  -6   6 3155.21 742.221   1
  -3  -6   6 3525.53 683.263   1
   9  -3   6 3314.99 791.543   1
  -9   6  -6 3677.35 847.293   1
  -6  -3   6 4041.90 937.957   1
   6   3  -6 2320.51 585.014   1
   9  -6   6 3832.29 847.821   2
   3   6  -6 2898.69 807.873   1
   9  -3   6 2888.64 733.887   2
  -9   3  -6 3118.83 703.641   1
   9  -6   7 4822.84 879.924   1
   9  -3   7 5149.99 950.304   1
  -3  -6   7 3133.58 807.222   1
  -9   6  -7 6011.11 1024.26   1
   6   3  -7 4528.54 926.202   1
  -6  -3   7 5145.96 983.041   1
   9  -6   7 4667.28 981.902   2
   3   6  -7 4629.27 908.972   1
   9  -3   7 3816.67 844.097   2
  -9   3  -7 4796.38 871.218   1
   9  -6   8 173329. 5999.14   1
   9  -3   8 183366. 6112.74   1
  -9   6  -8 194235. 6211.32   1
  -9   3  -8 188413. 6166.03   1
   6   3  -8 158924. 5891.95   1
   3   6  -8 177889. 6157.39   1
  -6  -3   8 178557. 6152.06   1
   9  -6   8 174515. 6004.18   2
   9  -3   8 174631. 5954.95   2
  -3  -6   8 199157. 6430.99   1
  -6  -3   9 11136.7 1455.31   1
   9  -3   9 12139.4 1502.18   1
  -9   6  -9 11270.2 1406.08   1
   9  -6   9 10268.9 1372.73   1
  -9   3  -9 12046.0 1426.93   1
   9  -3   9 11491.9 1397.87   2
   6   3  -9 11333.1 1472.90   1
   9  -6   9 10060.5 1306.32   2
   3   6  -9 9987.54 1376.74   1
  -3  -6   9 11565.3 1420.07   1
  -3  -6  10 13875.7 1588.33   1
   9  -6  10 14283.7 1674.95   1
   9  -3  10 13890.8 1622.41   1
  -9   6 -10 13628.1 1548.01   1
  -9   3 -10 12660.6 1505.46   1
   6   3 -10 15576.8 1711.51   1
   3   6 -10 14976.7 1651.56   1
   9  -6  10 13394.4 1576.58   2
  -6  -3  10 14932.1 1677.22   1
   9  -3  10 13022.8 1478.64   2
  -3  -6  11 3506.17 959.853   1
   9  -6  11 3446.31 907.665   1
  -6  -3  11 4237.46 924.826   1
   9  -3  11 3878.31 889.979   1
  -9   6 -11 3640.99 813.177   1
  -9   3 -11 2984.44 805.347   1
   9  -6  11 3617.69 777.373   2
   6   3 -11 3050.83 736.528   1
   9  -3  11 2583.36 753.885   2
   3   6 -11 2436.19 788.409   1
   9  -6  12 110687. 4951.93   1
  -3  -6  12 114409. 4935.51   1
   9  -3  12 127625. 5185.19   1
  -9   6 -12 116441. 4940.76   1
  -9   3 -12 118169. 4908.75   1
   3   6 -12 122580. 5135.76   1
   9  -6  12 117028. 4867.78   2
   9  -3  12 108139. 4715.98   2
   6   3 -12 107064. 4836.76   1
  -6  -3  12 105917. 4803.90   1
  -3  -6  13-451.632 345.561   1
   9  -6  13 638.333 511.497   1
   9  -3  13-132.202 429.363   1
  -9   6 -13 310.131 368.994   1
  -6  -3  13 344.188 407.856   1
  -9   3 -13-176.938 301.019   1
   9  -6  13-295.400 581.946   2
   6   3 -13-89.9856 419.592   1
   9  -3  13-563.518 545.941   2
   3   6 -13-169.753 363.377   1
   9  -6  14 17261.9 1927.86   1
   9  -3  14 17773.1 1899.75   1
  -9   6 -14 18539.1 1888.67   1
  -3  -6  14 19928.7 2031.36   1
  -9   3 -14 18866.0 1948.82   1
   6   3 -14 15341.8 1805.76   1
   3   6 -14 18899.5 1979.27   1
   9  -6  14 20065.2 1986.89   2
   9  -3  14 18553.9 1883.62   2
  -6  -3  14 18581.5 1946.84   1
  -3  -6  15 217.373 352.447   1
   9  -6  15 180.382 415.922   1
   9  -3  15 889.535 536.925   1
  -9   6 -15 985.139 520.781   1
  -9   3 -15 433.106 500.664   1
  -6  -3  15 1319.08 760.438   1
   6   3 -15 449.621 528.113   1
   3   6 -15 616.189 561.122   1
   6   3 -16 122394. 5482.29   1
  -6  -3  16 137761. 5857.62   1
   7  -9  15 7070.84 1386.38   1
  -7   9 -15 8292.62 1403.47   1
   2  -9  15 7277.72 1266.05   2
   7   2  14 33801.5 2678.20   1
  -7  -2 -14 34238.4 2555.20   1
   2  -9  14 31413.6 2814.50   2
   7  -9  14 35259.2 2695.33   2
   2  -9  14 35349.0 2816.15   1
  -2   9 -14 35816.3 2766.08   1
   7   2  14 36092.8 2808.69   2
  -7   9 -14 29632.1 2634.11   1
   7  -9  14 27611.4 2592.70   1
   7   2  13 23193.7 2130.63   1
   2   7  13 17834.9 1916.98   1
   7  -9  13 24251.5 2182.90   2
  -7  -2 -13 26174.1 2179.07   1
   2  -9  13 19154.5 2086.41   2
   2  -9  13 19549.7 2100.15   1
  -2   9 -13 20278.6 2075.46   1
   7   2  13 20260.0 2016.78   2
  -7   9 -13 19894.8 2086.83   1
   2   7  13 13588.3 1762.16   2
   7  -9  13 16411.8 1989.20   1
  -2   9 -12 8468.14 1310.48   1
  -2  -7 -12 9212.74 1324.16   1
   7  -9  12 9412.79 1510.32   1
  -7   9 -12 9252.65 1362.62   1
   7   2  12 10829.2 1437.59   1
   2   7  12 7854.15 1274.78   1
  -7  -2 -12 12638.6 1599.88   1
   2  -9  12 7718.55 1351.01   2
   7  -9  12 9552.41 1394.43   2
   2  -9  12 9206.21 1415.37   1
   7   2  12 8468.52 1278.89   2
   2   7  12 4432.14 1012.25   2
   7   2  11 50176.3 3106.83   1
   2   7  11 51027.9 3111.40   1
   2  -9  11 50967.9 3246.00   1
  -7  -2 -11 57018.1 3249.38   1
   2  -9  11 41582.7 3107.41   2
   7  -9  11 53664.6 3283.39   2
  -2  -7 -11 40745.1 2818.31   1
  -2   9 -11 49905.5 3253.33   1
   7   2  11 48994.1 3063.57   2
  -7   9 -11 51723.4 3351.87   1
   7  -9  11 46906.8 3183.82   1
   7   2  10 147712. 5524.34   1
   2   7  10 148172. 5571.29   1
   2  -9  10 135375. 5603.39   1
   2  -9  10 137142. 5735.19   2
  -7  -2 -10 143367. 5446.32   1
   7  -9  10 128196. 5381.93   2
  -2   9 -10 133530. 5510.89   1
  -2  -7 -10 138432. 5352.92   1
   7   2  10 146101. 5377.23   2
  -7   9 -10 136525. 5577.41   1
   7   2   9 18895.4 1826.77   1
   2   7   9 20336.6 1890.78   1
   2  -9   9 19716.7 2003.12   1
   2  -9   9 15669.4 1809.63   2
   7  -9   9 19913.9 2002.81   2
  -7  -2  -9 23089.6 2053.82   1
  -2   9  -9 22355.6 2090.04   1
  -2  -7  -9 18163.5 1776.60   1
   7   2   9 20263.5 1911.39   2
  -7   9  -9 19878.6 1955.58   1
   7   2   8 49367.4 3048.11   1
   2   7   8 44170.7 2891.75   1
   2  -9   8 48302.6 3104.95   1
   2  -9   8 42017.9 2988.45   2
   7  -9   8 39568.3 2866.40   2
  -7  -2  -8 49320.4 3003.73   1
  -2   9  -8 45978.1 3067.04   1
  -2  -7  -8 52688.8 3020.52   1
   7   2   8 48348.4 2898.84   2
  -7  -2  -7 8144.36 1223.59   1
   2  -9   7 9423.97 1354.80   1
  -2  -7  -7 9387.55 1221.25   1
   7   2   7 9167.13 1303.80   1
   2   7   7 7052.16 1083.94   1
   2  -9   7 7444.35 1240.00   2
   7  -9   7 9240.56 1361.66   2
  -2   9  -7 7720.51 1254.10   1
   7   2   7 7358.52 1095.96   2
   2  -9   6 211097. 6709.38   1
   7   2   6 194743. 6493.40   1
   2   7   6 201624. 6587.33   1
   2  -9   6 180659. 6590.99   2
   7  -9   6 197030. 6541.24   2
  -2   9  -6 209980. 6791.57   1
  -7  -2  -6 200403. 6497.93   1
   7   2   6 200879. 6419.00   2
  -2  -7  -6 207306. 6519.51   1
  -2  -7  -5 103119. 4376.52   1
   2  -9   5 112467. 4621.18   1
   7   2   5 116905. 4675.27   1
   2   7   5 98102.1 4361.71   1
   7  -9   5 105294. 4503.61   2
  -2   9  -5 112902. 4678.58   1
  -7  -2  -5 103705. 4465.97   1
   7   2   5 98244.8 4279.38   2
  -9   2   4 14006.1 1495.59   1
  -2  -7  -4 12697.4 1473.87   1
   7   2   4 12580.4 1521.55   1
   2   7   4 14094.0 1510.27   1
   7  -9   4 14257.9 1630.05   2
  -2   9  -4 10774.6 1423.24   1
  -7  -2  -4 13993.8 1638.46   1
   7   2   4 11576.0 1392.70   2
   2  -9   4 13923.6 1486.86   1
  -2  -7  -3 146491. 5370.05   1
   7   2   3 148703. 5387.88   1
   9  -2  -3 146736. 5122.62   1
   2   7   3 157559. 5512.77   1
   7  -9   3 148518. 5521.97   2
  -2   9  -3 163689. 5597.86   1
   2  -9   3 146766. 5283.31   1
   7   2   3 159784. 5597.33   2
  -7  -2  -3 148447. 5441.69   1
  -9   2   3 147613. 5265.30   1
  -7  -2  -2 41922.4 2730.93   1
  -2  -7  -2 49216.5 2933.76   1
   9  -2  -2 45476.5 2654.10   1
   7   2   2 46552.2 2799.83   1
   2   7   2 45329.3 2803.44   1
   7  -9   2 50261.3 2977.32   2
  -2   9  -2 48879.9 2842.34   1
   2  -9   2 48733.6 2805.88   1
   7   2   2 44817.4 2856.92   2
  -9   2   2 48013.8 2730.08   1
  -2  -7  -1 3437.55 802.741   1
  -9   2   1 4040.86 863.901   1
   9  -2  -1 3174.65 660.368   1
   7   2   1 2766.58 757.820   1
   7  -9   1 3953.31 804.842   2
   2   7   1 4160.58 902.992   1
  -7  -2  -1 2503.37 749.485   1
  -2   9  -1 4060.75 864.227   1
   2  -9   1 4711.52 803.966   1
   9  -2  -1 3709.12 829.138   2
   7   2   1 3506.12 883.070   2
  -2  -7   0 2126.68 689.850   1
  -9   2   0 833.435 384.544   1
   9  -2   0 963.992 431.868   1
   2  -9   0 808.683 398.969   1
   7   2   0 844.785 486.734   1
   7  -9   0 483.428 559.087   2
   2   7   0 284.300 348.657   1
  -2   9   0 2003.15 632.349   1
  -7  -2   0 1775.40 658.255   1
   9  -2   0 1392.50 593.135   2
  -9   2  -1 929.981 571.082   1
  -2  -7   1 1463.76 584.690   1
   9  -2   1 1209.57 526.469   1
   7   2  -1 953.806 513.182   1
   7  -9  -1 130.208 283.173   2
  -2   9   1 1222.09 562.604   1
   2   7  -1 811.880 401.591   1
   9  -7   1 1248.14 515.397   2
  -7  -2   1 559.782 542.420   1
   9  -2   1 983.538 567.481   2
  -7  -2   2 246021. 7407.79   1
   9  -2   2 270479. 7422.43   1
   7   2  -2 252170. 7399.82   1
  -2  -7   2 264326. 7582.21   1
   2   7  -2 234509. 7260.60   1
   7  -9  -2 254577. 7371.23   2
   9  -7   2 265577. 7384.04   2
  -9   2  -2 245242. 7182.00   1
   9  -2   2 256484. 7457.73   2
  -7  -2   3 94957.5 4240.64   1
   9  -2   3 88467.5 3931.00   1
   7   2  -3 87260.9 4068.75   1
   2   7  -3 88454.1 4073.59   1
  -2  -7   3 97393.2 4232.52   1
   9  -7   3 98050.3 4163.76   2
  -9   2  -3 98446.1 4154.71   1
   9  -2   3 105631. 4290.74   2
   9  -2   4 153745. 5297.55   1
  -7  -2   4 142117. 5317.81   1
   7   2  -4 130894. 5129.38   1
   2   7  -4 132729. 5231.09   1
  -9   2  -4 142384. 5191.39   1
   9  -7   4 151674. 5327.74   2
  -2  -7   4 138325. 5171.13   1
   9  -2   4 148338. 5322.26   2
   9  -2   5 105782. 4371.36   1
  -7  -2   5 111771. 4649.34   1
   7   2  -5 103493. 4490.51   1
   2   7  -5 105264. 4530.66   1
  -9   2  -5 110059. 4484.70   1
   9  -7   5 110426. 4509.43   2
  -2  -7   5 100546. 4426.74   1
   9  -2   5 103803. 4378.37   2
   9  -2   6 223871. 6905.06   1
  -7  -2   6 238348. 7306.11   1
   7   2  -6 222673. 7045.68   1
   2   7  -6 219365. 7078.40   1
   9  -7   6 236673. 7145.39   2
  -9   2  -6 228705. 7000.90   1
   9  -2   6 244334. 7167.85   2
  -2  -7   6 221321. 7047.13   1
   9  -2   7 36616.2 2496.59   1
  -7  -2   7 35904.6 2569.09   1
   7   2  -7 33790.0 2484.56   1
  -9   2  -7 36407.7 2518.79   1
   2   7  -7 30442.8 2430.42   1
   9  -7   7 38045.2 2597.35   2
   9  -2   7 36503.7 2492.01   2
  -2  -7   7 34919.6 2554.06   1
   9  -2   8 1911.54 614.793   1
  -9   7  -8 1183.73 563.531   1
  -7  -2   8 52.8829 314.536   1
   7   2  -8 1755.33 679.887   1
  -2  -7   8 2120.71 714.992   1
   9  -7   8 1304.70 560.426   2
   2   7  -8 1248.73 566.463   1
   9  -2   8 450.407 370.623   2
  -9   2  -8 1500.60 572.327   1
  -2  -7   9 37880.8 2642.96   1
   9  -7   9 35088.8 2601.33   1
  -9   7  -9 39302.1 2699.66   1
   9  -2   9 33566.6 2505.00   1
  -9   2  -9 32256.9 2404.78   1
   7   2  -9 33539.3 2533.41   1
   2   7  -9 36403.2 2650.30   1
   9  -7   9 37539.2 2598.51   2
   9  -2   9 31115.8 2381.06   2
  -7  -2   9 32201.9 2486.14   1
   9  -7  10 22427.4 2139.37   1
  -2  -7  10 25299.0 2301.68   1
  -9   7 -10 24777.3 2209.59   1
   9  -2  10 27951.7 2249.86   1
  -9   2 -10 24104.8 2033.29   1
   7   2 -10 25578.8 2250.14   1
  -7  -2  10 23513.2 2149.15   1
   2   7 -10 24562.5 2256.30   1
   9  -7  10 26788.7 2235.12   2
   9  -2  10 24126.1 2109.46   2
   9  -7  11 31870.7 2542.90   1
  -9   7 -11 31294.6 2505.32   1
  -2  -7  11 33154.3 2554.52   1
   9  -2  11 33359.6 2561.40   1
  -9   2 -11 31703.6 2448.74   1
   7   2 -11 30871.0 2464.84   1
   2   7 -11 34550.4 2587.03   1
   9  -7  11 33557.6 2528.63   2
  -7  -2  11 29039.1 2422.39   1
   9  -2  11 32154.8 2543.47   2
  -7  -2  12 9335.04 1400.10   1
  -2  -7  12 12429.6 1595.54   1
   9  -7  12 8474.58 1339.24   1
   9  -2  12 11530.0 1429.76   1
  -9   2 -12 12623.5 1534.92   1
  -9   7 -12 10991.0 1506.24   1
   9  -2  12 11614.9 1565.01   2
   9  -7  12 13103.7 1545.94   2
   7   2 -12 9074.22 1347.16   1
   2   7 -12 11936.1 1476.99   1
  -2  -7  13 9240.84 1467.80   1
   9  -7  13 8120.11 1371.94   1
  -7  -2  13 8275.01 1315.16   1
   9  -2  13 9689.17 1369.98   1
  -9   7 -13 6811.22 1175.79   1
  -9   2 -13 8741.67 1300.99   1
   9  -7  13 8042.47 1248.76   2
   7   2 -13 7969.68 1324.80   1
   9  -2  13 8115.93 1288.54   2
   2   7 -13 9556.43 1442.33   1
   9  -7  14 78835.4 4355.17   1
  -9   7 -14 80170.8 4273.02   1
   9  -2  14 97534.7 4646.15   1
  -2  -7  14 102968. 4778.38   1
  -9   2 -14 103280. 4524.57   1
   7   2 -14 75451.5 4214.37   1
   9  -7  14 101694. 4614.68   2
   2   7 -14 97826.0 4626.25   1
   9  -2  14 92479.6 4338.04   2
  -7  -2  14 86870.6 4491.90   1
   9  -7  15 3187.00 925.016   1
  -7  -2  15 2655.82 845.401   1
  -9   7 -15 3097.53 848.749   1
   8  -9  14 61891.8 3845.77   1
   1  -9  14 53497.0 3705.31   2
  -8   9 -14 60966.6 3786.89   1
  -8   9 -13 5804.01 1175.55   1
   8   1  13 7656.68 1194.40   1
   1  -9  13 6403.14 1231.08   1
   1  -9  13 5329.64 1113.18   2
   8  -9  13 6171.97 1183.05   2
  -8  -1 -13 7445.98 1199.65   1
   8   1  13 8441.11 1301.67   2
   1   8  13 2189.76 644.681   2
  -1   9 -13 6453.60 1251.01   1
  -8   9 -12 1636.36 794.852   1
   8   1  12 843.839 522.291   1
   1  -9  12 880.048 382.996   1
   8  -9  12 992.154 470.985   2
   8   1  12 1267.57 633.461   2
  -1   9 -12 206.105 399.954   1
  -8  -1 -12 741.181 437.767   1
   1   8  12 703.466 604.012   2
   8   1  11 41465.9 2850.92   1
   1  -9  11 41763.7 3068.20   1
  -8  -1 -11 41756.9 2838.66   1
   8  -9  11 39455.1 2788.33   2
  -1   9 -11 39832.7 2899.17   1
   8   1  11 40557.5 2761.39   2
   8   1  10 102217. 4505.78   1
   1  -9  10 95461.3 4662.34   1
  -8  -1 -10 100743. 4507.66   1
   8  -9  10 99886.4 4608.14   2
  -1   9 -10 94834.3 4642.70   1
   8   1  10 95146.0 4247.67   2
   1  -9   9 73189.4 3944.33   1
   8   1   9 83198.0 4028.78   1
   1   8   9 78971.3 4013.79   1
  -8  -1  -9 83583.7 4039.52   1
   8  -9   9 72292.1 3882.03   2
  -1   9  -9 73495.9 4016.96   1
   8   1   9 79815.1 3863.92   2
   1  -9   8 70662.3 3830.34   1
   8   1   8 71174.4 3692.57   1
   1   8   8 76581.7 3888.87   1
   8  -9   8 69927.1 3754.45   2
  -8  -1  -8 77747.7 3851.12   1
  -1   9  -8 69730.3 3828.93   1
  -1  -8  -8 75372.1 3790.44   1
   8   1   8 74702.3 3698.16   2
   1  -9   7 7508.99 1182.58   1
  -8  -1  -7 7897.81 1205.22   1
  -1  -8  -7 7266.41 1165.81   1
   8   1   7 6028.59 1070.65   1
   1   8   7 6870.14 1124.13   1
   8  -9   7 6492.34 1128.46   2
  -1   9  -7 7222.99 1182.13   1
   8   1   7 6191.22 1035.11   2
   1  -9   6 105595. 4675.68   1
  -9   1   6 109473. 4697.66   1
   8   1   6 118518. 4829.09   1
   1   8   6 112552. 4680.64   1
   8  -9   6 110961. 4714.09   2
  -1   9  -6 107879. 4726.66   1
  -8  -1  -6 104466. 4539.77   1
   8   1   6 108717. 4494.93   2
  -1  -8  -6 122489. 4774.04   1
  -1  -8  -5 13764.2 1533.52   1
  -9   1   5 14286.6 1609.37   1
   8   1   5 13834.9 1579.94   1
   1   8   5 14036.0 1533.24   1
   9  -1  -5 11837.8 1424.36   1
   8  -9   5 13282.6 1587.68   2
  -1   9  -5 12140.5 1491.40   1
  -8  -1  -5 13351.0 1563.62   1
   8   1   5 12373.2 1435.47   2
   1  -9   5 12910.8 1593.42   1
   1  -9   4 1408.76 555.737   1
  -8  -1  -4 1412.98 546.850   1
   8   1   4 1369.40 423.573   1
   1   8   4 1837.35 739.227   1
   9  -1  -4 1681.77 440.164   1
   8  -9   4 1408.91 609.201   2
  -1  -8  -4 1055.33 452.260   1
  -9   1   4 2491.92 700.997   1
  -1   9  -4 2068.15 711.712   1
   8   1   4 1605.12 604.910   2
  -9   1   3 66042.2 3472.40   1
  -1  -8  -3 56081.5 3197.81   1
   8   1   3 63424.8 3353.00   1
   9  -1  -3 66538.3 3428.46   1
   1   8   3 66494.1 3502.78   1
  -1   9  -3 60685.0 3354.49   1
   8  -9   3 62991.4 3490.52   2
   1  -9   3 61517.4 3270.57   1
  -8  -1  -3 64545.4 3449.32   1
   8   1   3 55208.1 3106.62   2
  -9   1   2 108270. 4547.02   1
  -1  -8  -2 107382. 4517.52   1
   8   1   2 102042. 4417.80   1
   9  -1  -2 111109. 4512.43   1
   1   8   2 122567. 4830.75   1
  -1   9  -2 108826. 4584.69   1
   8  -9   2 120289. 4827.60   2
   1  -9   2 107045. 4484.40   1
   8   1   2 115144. 4661.65   2
  -8  -1  -2 115328. 4682.51   1
  -1  -8  -1 60698.1 3282.96   1
   9  -1  -1 52050.7 3003.04   1
   8   1   1 51809.8 3073.54   1
   1   8   1 55634.2 3201.73   1
   1  -9   1 57313.7 3129.82   1
  -1   9  -1 59019.5 3181.62   1
   8  -9   1 46060.9 3046.84   2
   9  -1  -1 54137.2 3133.01   2
   8   1   1 54102.5 3087.89   2
  -9   1   1 52747.8 3064.60   1
  -8  -1  -1 48829.3 2997.60   1
  -1  -8   0 8915.76 1300.80   1
   1  -9   0 9100.06 1229.29   1
  -9   1   0 7857.38 1148.43   1
   9  -1   0 9659.22 1201.83   1
   8   1   0 8065.27 1151.21   1
   8  -9   0 6873.00 1097.15   2
  -8  -1   0 9114.78 1297.82   1
   1   8   0 9532.58 1308.16   1
  -1   9   0 8159.42 1216.27   1
   9  -1   0 8375.39 1201.63   2
   8   1   0 9981.03 1346.91   2
  -8  -1   1 64847.7 3483.39   1
   9  -1   1 60999.3 3282.32   1
   1  -9  -1 67243.1 3399.07   1
   8   1  -1 69127.2 3477.31   1
  -1  -8   1 70273.1 3605.13   1
  -1   9   1 70013.9 3517.18   1
   1   8  -1 62843.4 3434.77   1
   9  -8   1 64691.0 3381.08   2
   9  -1   1 73291.5 3526.37   2
  -9   1  -1 64195.8 3404.31   1
   8   1  -1 75056.5 3668.53   2
  -8  -1   2 186126. 6437.35   1
   1  -9  -2 207623. 6447.02   1
   9  -1   2 203361. 6484.46   1
   8   1  -2 187729. 6339.32   1
  -1   9   2 212124. 6566.69   1
   1   8  -2 225854. 6859.28   1
  -1  -8   2 216921. 6778.64   1
   9  -8   2 219299. 6695.90   2
  -9   1  -2 199414. 6461.30   1
   9  -1   2 231360. 6808.18   2
   8   1  -2 188411. 6559.82   2
  -8  -1   3 38473.6 2659.05   1
   9  -1   3 43295.2 2717.45   1
  -1   9   3 43194.9 2660.31   1
   8   1  -3 42247.1 2755.66   1
   1   8  -3 36561.7 2595.28   1
  -1  -8   3 44080.6 2789.91   1
   9  -8   3 42750.5 2729.24   2
  -9   1  -3 36593.5 2557.82   1
   9  -1   3 42221.9 2678.87   2
   8   1  -3 31953.2 2421.31   2
  -8  -1   4 69776.0 3609.84   1
   9  -1   4 77552.7 3709.76   1
   8   1  -4 66952.6 3517.39   1
   1   8  -4 65250.2 3605.01   1
   9  -8   4 71272.5 3612.34   2
  -1  -8   4 67906.9 3543.92   1
  -9   1  -4 69766.2 3564.08   1
   9  -1   4 80669.4 3714.48   2
   9  -1   5 14725.4 1602.78   1
  -8  -1   5 18018.2 1833.85   1
   8   1  -5 18694.6 1844.90   1
   1   8  -5 16713.2 1775.50   1
   9  -8   5 19290.9 1813.53   2
  -9   1  -5 16395.6 1699.89   1
  -1  -8   5 16688.0 1760.90   1
   9  -1   5 15992.8 1687.44   2
   9  -1   6 96462.9 4259.92   1
  -8  -1   6 83929.6 4086.85   1
   8   1  -6 84845.4 4051.65   1
   1   8  -6 86067.1 4130.80   1
  -9   1  -6 83310.2 4003.05   1
   9  -8   6 85988.7 4014.44   2
   9  -1   6 87267.8 4039.70   2
  -1  -8   6 75860.7 3881.01   1
   9  -1   7 43224.1 2796.36   1
  -8  -1   7 45983.1 2998.71   1
   8   1  -7 45896.0 2926.17   1
  -9   1  -7 40025.2 2717.14   1
   1   8  -7 44955.6 2976.07   1
   9  -8   7 43051.5 2863.77   2
   9  -1   7 42302.7 2786.45   2
  -1  -8   7 45609.4 2908.38   1
  -9   1  -8 2064.69 580.282   1
   9  -1   8 3783.12 888.199   1
  -8  -1   8 3283.80 800.895   1
   8   1  -8 2524.39 738.940   1
   9  -8   8 2734.68 672.682   2
   1   8  -8 4188.91 1033.43   1
  -1  -8   8 3283.64 804.998   1
   9  -1   8 2880.04 805.038   2
  -1  -8   9 23953.3 2159.10   1
   9  -1   9 21454.0 1989.90   1
  -8  -1   9 24443.2 2176.07   1
  -9   1  -9 23888.2 2052.16   1
   8   1  -9 19294.4 1964.93   1
   9  -8   9 22180.1 2097.61   2
   1   8  -9 22877.2 2085.65   1
   9  -1   9 23241.7 2119.96   2
  -1  -8  10 94897.0 4553.63   1
   9  -1  10 97587.2 4419.43   1
  -9   1 -10 93413.3 4248.88   1
  -8  -1  10 89342.4 4433.78   1
   8   1 -10 87779.6 4267.01   1
   9  -8  10 90320.2 4266.50   2
   1   8 -10 95079.7 4559.23   1
   9  -1  10 93742.2 4341.85   2
  -1  -8  11 9647.32 1455.88   1
   9  -1  11 10582.8 1392.35   1
  -9   1 -11 10260.6 1406.21   1
  -8  -1  11 8122.19 1301.34   1
   8   1 -11 8553.93 1279.37   1
   9  -8  11 7618.39 1287.84   2
   1   8 -11 9979.35 1384.91   1
   9  -1  11 6530.55 1162.06   2
  -1  -8  12 8799.51 1335.74   1
   9  -1  12 5250.50 1035.27   1
  -9   8 -12 5949.25 1175.06   1
   9  -8  12 6177.52 1154.67   2
  -8  -1  12 5103.19 1075.60   1
  -9   1 -12 6884.26 1129.81   1
   9  -1  12 6232.22 1177.70   2
   1   8 -12 7254.56 1250.18   1
   9  -8  13 44489.1 3201.15   1
  -9   8 -13 44769.4 3148.57   1
   9  -1  13 54498.4 3322.87   1
  -1  -8  13 59566.9 3614.40   1
  -9   1 -13 60023.1 3377.54   1
   9  -8  13 50152.9 3199.53   2
   1   8 -13 53475.9 3368.13   1
   9  -1  13 54618.8 3269.92   2
   9  -8  14 48549.7 3332.95   1
  -9   8 -14 40838.7 3091.41   1
  -9   8 -15 32226.2 2722.42   1
   9   0   0 909603. 18510.3   1
   0  -9   0 919507. 18657.2   1
   9   0   0 889527. 18488.4   2
  -9   0   0 938379. 18745.7   1
   0  -9  -1 1173.80 588.841   1
   0  -9   1 1236.71 569.901   1
  -9   0  -1 749.741 486.243   1
   9   0   1 809.929 514.475   1
   9   0  -1 1525.96 540.256   1
  -9   0   1 498.177 356.096   1
   0   9   1 1815.76 709.955   1
   9  -9   1 1573.99 689.509   2
   0   9  -1 1463.38 613.374   1
   9   0   1 734.043 450.841   2
   9   0  -1 74.5952 461.343   2
   0  -9  -2 1449.68 636.693   1
  -9   0  -2 680.060 426.236   1
   9   0   2 806.806 520.456   1
   9   0  -2 1925.97 635.403   1
   0   9   2 1533.13 643.847   1
   0  -9   2 1044.65 549.294   1
  -9   0   2 704.898 366.905   1
   9  -9   2 1579.18 709.837   2
   0   9  -2 1772.48 727.103   1
   9   0   2 1380.55 653.524   2
  -9   0  -3 1551.44 567.479   1
   9   0   3 1649.08 627.745   1
   9   0  -3 930.538 368.541   1
   0   9   3 1541.17 585.255   1
   9  -9   3 1661.37 696.084   2
   0   9  -3 1263.41 551.626   1
  -9   0   3 807.349 371.565   1
   0  -9   3 2939.67 786.671   1
   0  -9  -3 648.786 319.567   1
   9   0   3 1850.11 607.670   2
   0  -9  -4 25050.0 2098.87   1
  -9   0   4 27821.7 2333.01   1
   9   0   4 26783.1 2208.76   1
   0   9   4 27293.8 2262.81   1
   9   0  -4 25762.7 2185.62   1
   0   9  -4 29216.1 2330.21   1
   9  -9   4 28354.4 2369.02   2
   0  -9   4 26763.0 2194.83   1
  -9   0  -4 27112.9 2228.18   1
   9   0   4 28640.2 2263.85   2
   9   0  -5 517.641 294.506   1
  -9   0  -5-18.9444 324.548   1
   0  -9   5-219.125 372.828   1
   9   0   5 489.288 371.100   1
   0   9   5 603.288 428.082   1
   9  -9   5 901.532 472.975   2
   0   9  -5 668.754 492.535   1
   9   0   5 185.762 374.405   2
  -9   0   5 743.091 623.258   1
  -9   0   6 5612.23 1106.43   1
  -9   0  -6 6817.03 1192.08   1
   0  -9   6 6227.66 1119.86   1
   9   0   6 5495.65 1066.59   1
   9   0  -6 4235.62 891.060   1
   9  -9   6 5596.55 1063.90   2
   0   9  -6 3967.88 926.629   1
   9   0   6 5027.16 948.895   2
  -9   0   7 1218.30 690.316   1
  -9   0  -7 887.518 477.723   1
   9   0   7 1666.25 591.352   1
   0  -9   7 1747.49 762.182   1
   9   0  -7 705.916 423.557   1
   9  -9   7 1101.03 674.127   2
   0   9  -7 941.591 594.094   1
   9   0   7 840.386 359.773   2
   9   0   8 148315. 5665.84   1
  -9   0   8 153533. 5986.82   1
  -9   0  -8 162300. 5813.73   1
   9  -9   8 153801. 5913.71   2
   0   9  -8 152002. 5932.99   1
   9   0   8 153078. 5614.23   2
   0  -9   8 155589. 5993.12   1
  -9   0  -9 833.525 507.023   1
   9   0   9 842.362 524.717   1
   9  -9   9 1163.23 629.934   2
   0   9  -9 1790.84 739.407   1
   9   0   9 840.794 474.687   2
   0  -9   9 1528.90 641.705   1
   0  -9  10 562.490 395.573   1
   9   0  10 1028.09 544.766   1
   9  -9  10 523.053 450.814   2
   0   9 -10 1387.54 737.015   1
   9   0  10 1081.92 673.321   2
  -9   0 -10 1469.77 525.571   1
   0  -9  11 241.094 497.194   1
   9   0  11 1065.71 515.935   1
   9  -9  11 1164.99 565.792   2
   0   9 -11 693.130 559.797   1
   9   0  11 327.162 401.689   2
  -9   0 -11 1147.66 560.089   1
   0  -9  12 188573. 6978.67   1
   9   0  12 202908. 6859.30   1
  -9   0 -12 188963. 6518.32   1
   9  -9  12 186763. 6724.90   2
   0   9 -12 194167. 6979.59   1
   9   0  12 185687. 6566.53   2
   5   5  14 32973.6 2553.84   1
   5 -10  14 28598.3 2631.22   1
  -5  -5 -14 33858.9 2612.90   1
  -5  10 -14 33749.0 2837.78   1
  -5  -5 -13-136.907 348.453   1
  -5  10 -13-494.231 465.976   1
   5   5  13 186.235 506.850   1
   5 -10  13-144.152 452.874   1
   5 -10  13-277.997 500.281   2
   5   5  13-383.024 546.489   2
   5 -10  12 262920. 8862.75   1
   5   5  12 324810. 9108.34   1
   5 -10  12 301389. 9185.11   2
  -5  -5 -12 350977. 9226.33   1
  -5  10 -12 297249. 9307.48   1
   5   5  12 306324. 8986.46   2
  -5  10 -11-189.610 394.672   1
  -5  -5 -11 254.576 475.794   1
   5 -10  11 163.308 431.659   1
   5   5  11 643.912 516.818   1
   5 -10  11-586.997 490.909   2
   5   5  11 944.234 629.579   2
   5   5  10 17605.6 1854.38   1
   5 -10  10 18118.0 1883.41   2
  -5  -5 -10 17714.1 1784.14   1
  -5  10 -10 16396.3 1835.08   1
   5   5  10 18202.5 1846.80   2
   5 -10  10 15325.8 1779.56   1
  -5  10  -9-647.592 546.334   1
   5 -10   9 360.339 408.312   1
  -5  -5  -9 546.891 385.203   1
   5   5   9 1201.20 660.149   1
   5 -10   9-524.225 480.853   2
   5   5   9 193.102 299.853   2
   5   5   8 79309.5 3967.74   1
   5 -10   8 72271.0 3894.90   2
  -5  -5  -8 71369.8 3752.03   1
  -5  10  -8 78457.7 4109.10   1
   5   5   8 67349.5 3726.27   2
  -5  -5  -7 9.49402 291.190   1
   5   5   7-137.524 311.656   1
   5 -10   7 610.439 528.868   2
   5   5   7-421.532 422.210   2
  -5  -5  -6 8509.58 1259.67   1
   5   5   6 8123.21 1247.98   1
   5 -10   6 6107.60 1154.33   2
   5   5   5 117.160 294.550   1
   5 -10   5-322.757 473.754   2
   5   5   4 140786. 5360.48   1
   5 -10   4 127686. 5272.96   2
  -5  -5  -4 146423. 5467.64   1
   5   5   3 389.342 447.670   1
   5 -10   3 1177.60 642.375   2
  -5  -5  -3-529.036 474.982   1
  -5  -5  -2 15912.9 1646.86   1
   5   5   2 14578.9 1625.02   1
   5 -10   2 12540.7 1576.68   2
   5 -10   1 885.009 677.643   2
   5   5   1 66.0016 356.645   1
  -5  -5  -1 1466.61 695.436   1
  -5  -5   0 714785. 14968.1   1
   5   5   0 660863. 14667.8   1
  -5  -5   1-685.011 534.821   1
   5   5  -1 41.8982 304.076   1
  -5  -5   2 27891.1 2284.11   1
   5   5  -2 23518.1 2099.19   1
  10  -5   2 26989.9 2108.98   2
  -5  -5   3 872.968 537.715   1
   5   5  -3 243.541 496.211   1
  10  -5   3 62.3699 357.546   2
  -5  -5   4 161412. 5924.17   1
   5   5  -4 160566. 5872.24   1
  10  -5   4 176318. 5959.86   2
  -5  -5   5 776.910 454.828   1
   5   5  -5 1142.78 602.701   1
 -10   5  -5 106.869 337.090   1
  10  -5   5 611.142 401.043   2
  10  -5   6 21870.8 1975.46   1
 -10   5  -6 21777.9 1928.66   1
   5   5  -6 20672.4 1925.46   1
  -5  -5   6 22655.6 2065.67   1
  10  -5   6 22418.6 1997.64   2
  10  -5   7 116.596 267.150   1
 -10   5  -7 597.227 428.208   1
   5   5  -7 366.769 515.238   1
  -5  -5   7 285.652 502.663   1
  10  -5   7-110.885 376.388   2
  10  -5   8 35113.2 2618.33   1
 -10   5  -8 41271.5 2732.49   1
   5   5  -8 38076.7 2696.31   1
  -5  -5   8 40451.6 2695.98   1
  10  -5   8 38146.4 2717.69   2
  -5  -5   9-329.991 538.793   1
  10  -5   9-113.235 375.040   1
 -10   5  -9 549.952 470.938   1
   5   5  -9-844.850 531.634   1
  10  -5   9 538.770 299.150   2
  -5  -5  10 5213.30 1060.16   1
  10  -5  10 4311.03 997.009   1
 -10   5 -10 4085.86 857.978   1
   5   5 -10 6232.06 1159.53   1
  10  -5  10 4121.74 941.470   2
  10  -5  11-171.742 526.168   1
  -5  -5  11-139.973 390.958   1
 -10   5 -11 892.988 625.332   1
   5   5 -11 229.017 363.675   1
  10  -5  11 1074.37 593.219   2
   5   5 -12 507084. 12168.3   1
  10  -5  12 480756. 11560.8   2
  -5  -5  12 489853. 11993.0   1
  10  -5  13 378.618 372.829   1
  -5  -5  13 288.865 472.989   1
 -10   5 -13 599.563 457.230   1
  10  -5  13 191.966 480.540   2
   5   5 -13 1064.19 545.574   1
  10  -5  14 848.496 594.195   1
 -10   5 -14 1151.58 538.418   1
   4   6  14 79540.2 4199.07   1
  -4  -6 -14 68851.5 3923.12   1
   6 -10  14 76665.7 4375.30   1
  -4  10 -14 84380.2 4567.22   1
  -6  10 -14 82638.1 4454.89   1
   4   6  14 74176.2 4107.01   2
   4 -10  14 80357.1 4466.21   1
  -4  -6 -13 64.5350 343.056   1
  -4  10 -13 60.6908 540.493   1
  -6  10 -13 488.767 428.129   1
   4 -10  13-32.8488 399.455   1
   6 -10  13 101.883 399.984   1
   6   4  13 234.952 292.116   1
   4   6  13 132.443 355.720   1
   4 -10  13-620.375 528.492   2
   6 -10  13 871.915 708.215   2
   6   4  13 434.663 393.709   2
   4   6  13 17.9911 410.783   2
  -6  -4 -13 64.5531 349.674   1
  -4  10 -12 13483.4 1760.75   1
   6   4  12 17604.1 1852.52   1
   4   6  12 15338.6 1740.83   1
   6 -10  12 11972.4 1676.73   1
  -6  -4 -12 16924.3 1808.97   1
   6 -10  12 16008.3 1862.21   2
   4 -10  12 13889.5 1729.60   2
  -4  -6 -12 14278.1 1653.47   1
   4 -10  12 13323.5 1741.99   1
  -6  10 -12 15537.8 1831.22   1
   6   4  12 16584.2 1840.03   2
   4   6  12 13888.8 1587.56   2
   6   4  11 76245.1 3930.06   1
   4   6  11 72258.1 3881.54   1
   4 -10  11 67284.5 3924.02   2
   6 -10  11 70546.8 3947.37   2
  -6  -4 -11 77504.0 3967.78   1
  -4  -6 -11 71036.6 3820.82   1
  -4  10 -11 67699.4 3908.96   1
   4 -10  11 62429.1 3832.74   1
  -6  10 -11 69504.3 4013.45   1
   6   4  11 77924.1 3898.57   2
   4   6  11 71463.0 3942.95   2
   6   4  10 105286. 4619.43   1
   4   6  10 100002. 4607.37   1
   4 -10  10 100618. 4760.72   2
   6 -10  10 98226.7 4694.52   2
  -6  -4 -10 110842. 4765.58   1
  -4  -6 -10 101182. 4569.73   1
   4 -10  10 93199.2 4673.40   1
  -4  10 -10 91774.9 4645.34   1
  -6  10 -10 91361.4 4598.07   1
   6   4  10 105159. 4617.20   2
   4   6  10 90067.8 4466.78   2
   6   4   9 115422. 4831.34   1
   4   6   9 106023. 4667.89   1
   4 -10   9 100495. 4650.28   2
   6 -10   9 105667. 4733.75   2
   4 -10   9 91208.5 4568.98   1
  -6  -4  -9 97219.0 4507.28   1
  -4  -6  -9 104314. 4553.67   1
  -4  10  -9 98519.5 4725.64   1
   6   4   9 99539.4 4529.92   2
   6   4   8 11376.7 1560.78   1
   4   6   8 11874.5 1512.86   1
   4 -10   8 13422.8 1701.27   1
   4 -10   8 10105.5 1479.78   2
   6 -10   8 11161.8 1517.45   2
  -4  10  -8 13413.4 1653.28   1
  -6  -4  -8 11873.3 1524.90   1
  -4  -6  -8 12596.2 1547.49   1
   6   4   8 13843.5 1562.51   2
  -6  -4  -7 5915.06 1059.81   1
  -4  -6  -7 6650.54 1113.88   1
   4 -10   7 5917.61 1085.19   1
   6   4   7 5243.04 1043.11   1
   4   6   7 6586.89 1090.93   1
   4 -10   7 6097.48 1121.40   2
   6 -10   7 5630.55 1031.18   2
   6   4   7 5790.31 1079.86   2
  -4  10  -7 5841.39 1089.87   1
   6   4   6 62245.0 3509.10   1
   4   6   6 70123.0 3637.72   1
   6 -10   6 66320.8 3604.94   2
  -4  10  -6 68193.7 3659.92   1
   4 -10   6 64638.1 3663.36   2
  -6  -4  -6 66688.1 3599.94   1
  -4  -6  -6 73616.2 3742.41   1
   6   4   6 57873.7 3361.00   2
   6   4   5 12171.2 1450.17   1
   4   6   5 12648.6 1581.55   1
   4 -10   5 11632.9 1518.45   2
   6 -10   5 10714.1 1475.80   2
  -4  10  -5 11224.3 1471.26   1
  -6  -4  -5 13458.2 1580.61   1
  -4  -6  -5 13236.2 1568.36   1
   6   4   5 11294.1 1433.89   2
   6   4   4 2685.79 794.906   1
  -6  -4  -4 1880.01 704.237   1
   4   6   4 2177.41 670.659   1
   4 -10   4 2198.07 716.796   2
   6 -10   4 2959.91 768.352   2
  -4  -6  -4 2197.55 717.934   1
  -6  -4  -3 24764.4 2150.32   1
  -4  -6  -3 24370.6 2117.42   1
   6   4   3 24475.8 2118.36   1
   4   6   3 23373.2 2102.14   1
   4 -10   3 21400.4 2060.66   2
   6 -10   3 24118.2 2110.71   2
  -6  -4  -2 152512. 5633.15   1
  -4  -6  -2 166018. 5876.38   1
   6   4   2 160818. 5786.46   1
   4   6   2 161676. 5824.02   1
   6 -10   2 158560. 5852.01   2
  -6  -4  -1 25177.6 2113.70   1
  -4  -6  -1 26658.4 2159.91   1
   6   4   1 26502.5 2171.28   1
   4   6   1 27779.9 2262.13   1
   6 -10   1 25221.6 2225.03   2
  -6  -4   0 57153.5 3269.50   1
  -4  -6   0 57735.3 3301.63   1
   6   4   0 54859.8 3208.58   1
   4   6   0 60180.6 3351.46   1
   6 -10   0 61721.1 3468.19   2
  -6  -4   1 76793.2 3932.25   1
  -4  -6   1 82697.4 3952.02   1
   6   4  -1 81488.6 3949.26   1
   4   6  -1 81179.1 3949.31   1
   6 -10  -1 84336.1 4217.71   2
  10  -4   1 79927.1 3798.61   2
  -6  -4   2 230551. 7303.39   1
  -4  -6   2 246823. 7524.78   1
   6   4  -2 228508. 7239.29   1
   4   6  -2 238303. 7358.47   1
  10  -6   2 238992. 7210.75   2
  10  -4   2 247439. 7320.92   2
  -6  -4   3 32035.3 2453.70   1
  -4  -6   3 31656.7 2433.52   1
   6   4  -3 34490.0 2502.74   1
 -10   4  -3 32464.1 2353.49   1
   4   6  -3 31497.5 2475.45   1
  10  -6   3 34158.6 2454.12   2
  10  -4   3 34519.4 2491.84   2
  -6  -4   4 7132.14 1124.05   1
  10  -4   4 7096.67 1081.81   1
  -4  -6   4 6338.93 1086.22   1
   6   4  -4 7289.05 1166.64   1
   4   6  -4 7386.55 1196.58   1
  10  -6   4 7217.61 1203.37   2
  10  -4   4 7496.37 1118.43   2
 -10   4  -4 7064.03 1159.13   1
  10  -4   5 20181.4 1849.05   1
   4   6  -5 19309.7 1867.04   1
  -6  -4   5 18102.4 1824.76   1
 -10   4  -5 20855.5 1837.13   1
   6   4  -5 21612.7 2003.28   1
  -4  -6   5 19471.7 1897.33   1
  10  -6   5 22141.8 1975.50   2
  10  -4   5 21863.3 1917.85   2
  10  -4   6 47669.2 2886.01   1
 -10   4  -6 48549.7 2890.60   1
  -6  -4   6 38422.7 2706.08   1
   6   4  -6 37433.0 2671.50   1
   4   6  -6 38067.0 2703.45   1
  -4  -6   6 43895.6 2834.89   1
  10  -6   6 42140.7 2813.20   2
  10  -4   6 40645.0 2721.93   2
  10  -4   7 59161.6 3317.33   1
 -10   4  -7 59639.2 3369.89   1
   6   4  -7 55871.7 3273.61   1
  -6  -4   7 56841.6 3376.94   1
   4   6  -7 59947.7 3377.77   1
  -4  -6   7 56751.3 3287.48   1
  10  -6   7 54779.5 3249.08   2
  10  -4   7 63829.4 3347.96   2
  -4  -6   8 212.124 453.432   1
  10  -4   8 455.643 319.071   1
 -10   6  -8 344.718 436.714   1
   6   4  -8-117.026 410.747   1
  -6  -4   8-8.11283 397.401   1
 -10   4  -8 483.490 471.744   1
   4   6  -8 485.563 323.634   1
  10  -6   8 253.420 273.210   2
  10  -4   8 962.608 564.592   2
  -4  -6   9 5644.07 1086.95   1
  10  -4   9 4373.50 973.771   1
 -10   6  -9 7174.23 1193.00   1
 -10   4  -9 6122.62 1081.74   1
   6   4  -9 5904.43 1089.16   1
  10  -6   9 7382.61 1117.21   2
   4   6  -9 6464.02 1087.58   1
  10  -4   9 6353.87 1182.95   2
  -6  -4   9 5877.30 1138.56   1
  10  -6  10 135537. 5612.44   1
  10  -4  10 150199. 5737.46   1
 -10   6 -10 150368. 5741.47   1
 -10   4 -10 146487. 5608.11   1
   6   4 -10 143665. 5670.65   1
   4   6 -10 155349. 5890.39   1
  -6  -4  10 147646. 5703.93   1
  10  -6  10 147023. 5569.96   2
  10  -4  10 150330. 5604.90   2
  -4  -6  10 156102. 5885.76   1
  -6  -4  11 8144.31 1340.87   1
  10  -6  11 5574.22 1082.46   1
  10  -4  11 5756.00 1101.65   1
  -4  -6  11 9083.88 1329.25   1
 -10   6 -11 9149.41 1349.32   1
 -10   4 -11 8088.01 1205.67   1
   6   4 -11 7133.16 1204.41   1
  10  -6  11 8642.40 1230.00   2
   4   6 -11 6779.69 1189.65   1
  10  -4  11 6737.31 1164.15   2
  10  -6  12 39491.6 2941.01   1
  10  -4  12 46303.4 3140.06   1
 -10   6 -12 46846.5 3134.66   1
 -10   4 -12 47668.1 3080.18   1
   6   4 -12 46444.7 3135.32   1
   4   6 -12 52567.8 3299.70   1
  10  -6  12 49503.2 3096.90   2
  10  -4  12 47955.9 3079.78   2
  -6  -4  12 54877.7 3399.73   1
  -4  -6  12 52048.7 3310.88   1
  10  -6  13 70541.0 4061.65   1
  10  -4  13 78648.5 4194.31   1
 -10   6 -13 73760.5 4001.41   1
 -10   4 -13 81340.2 4120.58   1
   6   4 -13 81923.1 4260.01   1
   4   6 -13 85017.5 4270.62   1
  10  -6  13 83225.7 4125.63   2
  10  -4  13 89329.8 4183.82   2
  -6  -4  13 76793.7 4209.41   1
  -4  -6  13 86203.6 4355.77   1
  10  -6  14 49231.7 3342.23   1
 -10   6 -14 51455.9 3315.92   1
   6   4 -14 49779.3 3334.75   1
  -6  -4  14 52911.3 3408.57   1
   3   7  14 10581.7 1477.42   2
   3   7  13 28865.3 2491.53   1
   3 -10  13 35671.9 2913.85   2
   3 -10  13 33208.7 2706.13   1
  -3  10 -13 35193.7 2771.83   1
  -7  -3 -12 8445.86 1257.90   1
  -3  -7 -12 6172.47 1079.78   1
   7   3  12 8065.68 1267.17   1
   3   7  12 6217.47 1106.66   1
   3 -10  12 6864.68 1320.15   2
   3 -10  12 5966.45 1249.21   1
   7 -10  12 7055.76 1205.79   2
   7   3  12 6959.12 1172.48   2
   3   7  12 5787.86 1254.19   2
  -3  10 -12 6488.19 1292.03   1
  -7  -3 -11 5648.39 991.573   1
  -3  -7 -11 5069.52 1018.05   1
   7   3  11 5833.34 959.681   1
   3   7  11 5566.41 1035.95   1
   3 -10  11 4371.94 1018.08   1
   3 -10  11 5312.18 1142.88   2
   7 -10  11 6648.51 1110.75   2
   7   3  11 5817.80 1047.14   2
   3   7  11 3927.41 964.146   2
  -3  10 -11 5060.50 1107.98   1
   7   3  10 162958. 5943.42   1
   3   7  10 149888. 5801.89   1
   3 -10  10 145658. 6006.33   1
   3 -10  10 141577. 6004.20   2
   7 -10  10 161173. 6139.76   2
  -7  -3 -10 181658. 6137.25   1
  -3  -7 -10 131450. 5357.29   1
  -3  10 -10 151242. 6016.06   1
   7   3  10 160844. 5788.07   2
   7   3   9 32483.1 2607.21   1
   3   7   9 31654.7 2543.67   1
   3 -10   9 31172.5 2560.77   1
   3 -10   9 29379.7 2555.34   2
   7 -10   9 31083.9 2617.45   2
  -7  -3  -9 33858.0 2532.22   1
  -3  10  -9 31849.6 2634.30   1
  -3  -7  -9 34026.0 2575.81   1
   7   3   9 33863.5 2426.31   2
  -7  -3  -8 7593.17 1169.78   1
  -3  -7  -8 6944.66 1120.31   1
   3 -10   8 7963.09 1296.08   1
   7   3   8 7747.64 1157.87   1
   3   7   8 8076.05 1247.74   1
   3 -10   8 8337.96 1393.92   2
   7 -10   8 6923.62 1270.30   2
  -3  10  -8 6683.53 1163.36   1
   7   3   8 7786.61 1225.51   2
   3 -10   7 172145. 6272.76   1
   7   3   7 160944. 5969.96   1
   3   7   7 165683. 6014.73   1
   7 -10   7 154775. 6008.07   2
  -3  10  -7 167757. 6238.18   1
  -7  -3  -7 168247. 6065.71   1
  -3  -7  -7 178076. 6126.84   1
   7   3   7 167492. 5978.36   2
   3 -10   6 98654.7 4524.23   1
   7   3   6 96995.1 4433.79   1
   3   7   6 92528.7 4340.65   1
   3 -10   6 82093.6 4378.07   2
   7 -10   6 95577.8 4527.47   2
  -3  10  -6 93148.4 4460.09   1
  -7  -3  -6 100692. 4464.95   1
   7   3   6 98404.3 4398.45   2
  -3  -7  -6 96053.9 4348.22   1
   3 -10   5 39661.7 2724.06   1
   7   3   5 35800.2 2578.91   1
   3   7   5 37017.6 2676.84   1
   7 -10   5 35656.2 2612.14   2
  -3  10  -5 42208.8 2871.30   1
  -7  -3  -5 36718.5 2643.63   1
   7   3   5 33603.6 2521.94   2
  -3  -7  -5 37936.3 2606.80   1
  -3  -7  -4 22013.5 2008.46   1
   7   3   4 22600.3 2040.60   1
   3   7   4 21582.2 1991.37   1
   7 -10   4 20438.0 2050.53   2
  -3  10  -4 20605.8 1952.13   1
  -7  -3  -4 20334.0 1932.62   1
   7   3   4 19795.2 1939.87   2
   3 -10   4 20814.5 1931.17   1
   7   3   3 2561.33 784.619   1
  -7  -3  -3 2038.05 628.617   1
   3   7   3 1332.12 485.660   1
   7 -10   3 1991.87 741.323   2
  -3  -7  -3 1316.65 559.211   1
  -3  10  -3 1666.06 634.949   1
   7   3   3 1708.96 602.982   2
  -7  -3  -2 112064. 4708.41   1
  -3  -7  -2 106432. 4573.32   1
   7   3   2 104242. 4574.05   1
   3   7   2 116177. 4785.04   1
   7 -10   2 108849. 4694.52   2
  -3  -7  -1 8409.06 1255.56   1
   7   3   1 8904.00 1275.45   1
   7 -10   1 9574.23 1341.74   2
   3   7   1 9827.98 1336.55   1
  -7  -3  -1 10607.9 1388.34   1
  -7  -3   0 28509.7 2299.69   1
  -3  -7   0 28561.0 2303.06   1
   7   3   0 29259.5 2300.88   1
   3   7   0 29471.7 2342.30   1
   7 -10   0 30125.8 2368.90   2
 -10   3   0 30189.1 2225.37   1
  -7  -3   1 47800.6 2979.35   1
  10  -3   1 47554.1 2838.67   1
  -3  -7   1 47074.5 2997.18   1
   7   3  -1 49641.3 3048.22   1
   3   7  -1 51062.4 3120.55   1
   7 -10  -1 50763.9 3186.63   2
 -10   3  -1 54571.8 3095.42   1
  10  -3   1 53143.2 3121.28   2
  -7  -3   2 125001. 5155.19   1
  10  -3   2 129552. 4902.49   1
  -3  -7   2 118747. 5013.97   1
   7   3  -2 145168. 5371.41   1
   3   7  -2 126257. 5147.14   1
 -10   3  -2 137334. 5129.07   1
  10  -7   2 132734. 5105.82   2
  10  -3   2 124149. 5050.04   2
  10  -3   3 64409.7 3401.13   1
  -7  -3   3 72943.6 3749.19   1
   7   3  -3 73198.8 3756.12   1
  -3  -7   3 71404.5 3738.76   1
   3   7  -3 66445.5 3604.21   1
 -10   3  -3 72790.6 3654.72   1
  10  -7   3 77100.0 3773.13   2
  10  -3   3 77939.9 3833.54   2
 -10   3  -4 1932.75 623.337   1
  -7  -3   4 877.887 568.104   1
  10  -3   4 1416.07 488.100   1
   7   3  -4 1500.53 656.212   1
  -3  -7   4-52.0968 392.905   1
   3   7  -4 1131.81 574.771   1
  10  -7   4 1502.74 567.198   2
  10  -3   4 1764.84 583.123   2
  10  -3   5 60945.8 3271.70   1
  -7  -3   5 58924.4 3381.38   1
   7   3  -5 55187.5 3274.20   1
 -10   3  -5 60555.0 3301.96   1
   3   7  -5 56319.2 3357.07   1
  -3  -7   5 55580.2 3293.08   1
  10  -7   5 56397.2 3287.31   2
  10  -3   5 62947.5 3417.95   2
  10  -3   6 167952. 5893.67   1
  -7  -3   6 163836. 6011.16   1
   7   3  -6 168148. 6072.05   1
 -10   3  -6 160959. 5828.40   1
   3   7  -6 169008. 6133.53   1
  -3  -7   6 177278. 6127.78   1
  10  -7   6 169488. 6071.12   2
  10  -3   6 170789. 6017.21   2
  10  -3   7 28687.8 2254.20   1
 -10   3  -7 28575.5 2263.00   1
  -7  -3   7 31450.1 2492.46   1
   7   3  -7 25970.6 2246.72   1
   3   7  -7 31981.1 2563.98   1
  10  -7   7 30681.2 2424.22   2
  -3  -7   7 29379.2 2393.79   1
  10  -3   7 29655.4 2309.95   2
  10  -3   8 34741.2 2546.93   1
 -10   3  -8 32223.1 2389.05   1
  -7  -3   8 35007.2 2643.79   1
   7   3  -8 34779.8 2609.11   1
   3   7  -8 34606.5 2605.44   1
  10  -7   8 35222.2 2540.27   2
  10  -3   8 37301.2 2606.66   2
  -3  -7   8 37436.9 2668.94   1
  10  -3   9 29855.5 2395.40   1
 -10   3  -9 33829.2 2546.24   1
   7   3  -9 32109.1 2473.35   1
  -7  -3   9 33093.5 2579.12   1
   3   7  -9 36738.5 2720.64   1
  10  -7   9 35656.7 2647.88   2
  10  -3   9 32972.4 2512.38   2
  -3  -7   9 37459.5 2744.53   1
  10  -3  10 40237.7 2839.09   1
 -10   3 -10 44034.0 2901.80   1
   7   3 -10 41211.7 2907.23   1
  -7  -3  10 41609.3 2972.91   1
   3   7 -10 47473.3 3054.28   1
  10  -7  10 45331.6 2993.91   2
  10  -3  10 38356.2 2759.78   2
  -3  -7  10 50819.2 3175.58   1
  10  -3  11 7715.04 1206.15   1
  -3  -7  11 9028.02 1367.87   1
   7   3 -11 7328.52 1227.86   1
 -10   3 -11 8154.96 1212.02   1
  10  -7  11 9772.64 1349.72   2
  -7  -3  11 9253.25 1355.73   1
   3   7 -11 7233.14 1215.73   1
  10  -3  11 7316.41 1216.05   2
  10  -3  12 8352.30 1315.28   1
 -10   7 -12 6070.43 1091.26   1
 -10   3 -12 8475.42 1273.02   1
   7   3 -12 7445.81 1269.35   1
  10  -7  12 8333.06 1254.49   2
  -3  -7  12 7773.40 1310.19   1
   3   7 -12 8541.24 1400.30   1
  10  -3  12 8579.98 1320.27   2
  -7  -3  12 8216.77 1364.05   1
  -7  -3  13 739.165 542.466   1
  10  -7  13 472.465 505.614   1
  10  -3  13-159.308 354.142   1
 -10   7 -13-190.782 464.409   1
 -10   3 -13 716.238 494.632   1
   7   3 -13 66.0251 341.893   1
 -10   7 -14 71024.0 4036.39   1
   7   3 -14 67503.0 3953.11   1
  -7  -3  14 69709.0 4034.70   1
   2   8  13 644.436 718.755   2
   8   2  12 127705. 5213.57   1
   2 -10  12 111551. 5311.30   1
  -8  -2 -12 136160. 5325.38   1
   2 -10  12 108454. 5213.61   2
   8 -10  12 116476. 5182.89   2
  -2  10 -12 116678. 5291.94   1
   8   2  12 126875. 5033.47   2
  -8  -2 -11 668.933 577.071   1
   2 -10  11 867.812 612.589   1
   8   2  11 780.789 512.695   1
   2 -10  11 1408.25 627.987   2
   8 -10  11 560.421 437.978   2
   8   2  11-12.6691 358.724   2
  -2  10 -11 847.855 271.880   1
   2   8  11 339.288 410.902   2
  -8  -2 -10 472.132 354.226   1
   2 -10  10 1000.43 568.383   1
   8   2  10 782.694 449.139   1
   2   8  10 900.523 431.476   1
   8 -10  10 149.034 539.429   2
  -2  10 -10 1898.97 806.333   1
   8   2  10 1637.98 662.463   2
  -8  -2  -9 3318.03 819.818   1
   2 -10   9 3390.20 898.112   1
  -2  -8  -9 2844.28 832.354   1
   8   2   9 3610.92 818.334   1
   2   8   9 3085.34 839.036   1
   8 -10   9 2573.54 832.290   2
  -2  10  -9 3352.07 937.731   1
   8   2   9 4215.56 855.834   2
   2 -10   8 163140. 6373.43   1
   8   2   8 197787. 6606.73   1
   2   8   8 173263. 6297.92   1
   8 -10   8 185028. 6694.16   2
  -2  10  -8 172691. 6549.09   1
  -8  -2  -8 195561. 6605.96   1
  -2  -8  -8 172693. 6223.74   1
   8   2   8 191725. 6363.12   2
  -8  -2  -7 4188.78 913.361   1
  -2  -8  -7 2847.25 756.335   1
   8   2   7 4282.70 933.523   1
   2   8   7 4415.90 913.488   1
   8 -10   7 4179.69 946.312   2
  -2  10  -7 4871.25 993.373   1
   8   2   7 2991.02 803.356   2
   2 -10   7 4420.20 974.420   1
  -8  -2  -6 395.903 338.041   1
   8   2   6 86.8565 405.603   1
  -2  -8  -6-613.950 554.349   1
   2   8   6 645.644 471.649   1
   8 -10   6 15.6455 394.443   2
  -2  10  -6 700.153 467.479   1
   2 -10   6-124.949 468.523   1
   8   2   6 729.244 436.247   2
  -8  -2  -5 8504.91 1301.73   1
   8   2   5 10843.5 1462.35   1
   2 -10   5 8627.42 1255.52   1
   2   8   5 8501.41 1289.56   1
  -2  -8  -5 9099.16 1294.55   1
   8 -10   5 9412.24 1399.70   2
  -2  10  -5 9557.16 1397.91   1
   8   2   5 8977.61 1254.11   2
  -2  -8  -4 161707. 5985.35   1
   8   2   4 195778. 6487.27   1
   2   8   4 187773. 6449.84   1
   8 -10   4 163781. 6203.82   2
  -2  10  -4 175878. 6365.28   1
   2 -10   4 179090. 6268.18   1
  -8  -2  -4 169924. 6147.78   1
   8   2   4 183963. 6254.14   2
   2 -10   3 104.942 292.569   1
  -8  -2  -3 204.804 264.838   1
   8   2   3-57.7063 309.175   1
   2   8   3-186.435 382.584   1
   8 -10   3 256.688 395.411   2
  -2  10  -3 242.822 426.886   1
  -2  -8  -3 628.498 447.915   1
   8   2   3 520.196 467.981   2
  -2  -8  -2 20967.6 1937.20   1
   8   2   2 20003.8 1929.03   1
   2   8   2 22945.8 2096.17   1
  -2  10  -2 21427.1 1983.87   1
   8 -10   2 20736.9 2031.76   2
   2 -10   2 19248.5 1906.26   1
 -10   2   2 20198.3 1904.53   1
   8   2   2 19070.0 1900.20   2
  -8  -2  -2 19793.2 1941.87   1
  -2  -8  -1 1858.54 656.639   1
 -10   2   1 1948.78 556.777   1
  10  -2  -1 2030.80 733.300   1
   8   2   1 1797.39 639.378   1
  -8  -2  -1 2133.28 772.009   1
   2   8   1 2690.72 800.213   1
   8 -10   1 1889.73 575.719   2
  -2  10  -1 1887.99 547.789   1
   8   2   1 1930.73 707.418   2
  -8  -2   0 171772. 6100.72   1
  10  -2   0 179619. 6028.20   1
  -2  -8   0 161647. 5985.54   1
   8   2   0 168864. 5970.16   1
   2   8   0 171262. 6125.43   1
   8 -10   0 164574. 6087.50   2
 -10   2   0 171330. 5952.84   1
   8   2   0 154935. 5915.29   2
 -10   2  -1 421.290 484.442   1
  -2  -8   1 597.612 376.883   1
  10  -2   1 286.010 294.566   1
   8   2  -1-153.666 523.707   1
   2   8  -1 300.695 332.794   1
  -8  -2   1 23.3599 373.725   1
  10  -2   1 745.103 588.776   2
   8   2  -1 161.156 445.119   2
  -8  -2   2 17701.4 1867.80   1
  10  -2   2 18919.8 1772.35   1
   8   2  -2 17762.7 1832.27   1
  -2  -8   2 18222.4 1851.87   1
   2   8  -2 20847.4 2014.65   1
 -10   2  -2 18516.2 1827.69   1
  10  -2   2 19817.2 1960.35   2
  10  -8   2 12322.0 1561.59   2
   8   2  -2 10496.6 1480.47   2
 -10   2  -3 6528.90 1094.71   1
  10  -2   3 5742.85 931.159   1
  -2  -8   3 4508.74 934.668   1
   8   2  -3 6495.51 1133.12   1
   2   8  -3 6001.29 1057.45   1
  10  -8   3 4419.06 960.856   2
  10  -2   3 6286.11 1051.04   2
   8   2  -3 1605.31 649.260   2
  -8  -2   3 4783.38 1012.19   1
  -8  -2   4 275051. 8288.84   1
  10  -2   4 290996. 8299.31   1
   8   2  -4 297478. 8497.93   1
   2   8  -4 283834. 8449.84   1
  -2  -8   4 282040. 8413.16   1
 -10   2  -4 315740. 8619.70   1
  10  -8   4 309366. 8677.64   2
  10  -2   4 285237. 8417.32   2
 -10   2  -5 162.268 344.117   1
  -8  -2   5 36.7745 392.688   1
  10  -2   5 527.148 347.438   1
   8   2  -5 639.784 524.024   1
  10  -8   5-83.3920 319.908   2
   2   8  -5 104.714 434.596   1
  -2  -8   5 131.180 370.087   1
  10  -2   5-2.90812 410.482   2
 -10   2  -6 3418.24 852.843   1
  -2  -8   6 5050.56 1049.17   1
  -8  -2   6 4223.44 950.027   1
  10  -2   6 3761.98 859.696   1
   8   2  -6 4043.85 876.181   1
  10  -8   6 3586.29 857.403   2
   2   8  -6 4808.69 1063.58   1
  10  -2   6 3132.64 907.970   2
  -2  -8   7 12467.7 1581.81   1
  10  -2   7 11362.3 1453.20   1
  -8  -2   7 11816.8 1578.16   1
 -10   2  -7 12150.2 1488.06   1
   2   8  -7 14062.5 1653.00   1
  10  -8   7 13220.7 1568.78   2
   8   2  -7 10772.7 1447.31   1
  10  -2   7 12760.3 1642.77   2
  10  -2   8 115424. 4915.17   1
  -8  -2   8 112186. 5076.88   1
   8   2  -8 112718. 4992.01   1
 -10   2  -8 120460. 4990.31   1
   2   8  -8 128361. 5279.72   1
  10  -8   8 115366. 4925.35   2
  10  -2   8 108154. 4801.89   2
  10  -2   9 685.603 492.785   1
  -8  -2   9-999.306 623.643   1
  -2  -8   9 649.069 486.248   1
   8   2  -9-130.378 395.193   1
  10  -8   9 602.132 589.830   2
   2   8  -9 913.177 630.419   1
  10  -2   9-313.911 368.033   2
 -10   2  -9 1194.06 552.135   1
  10  -2  10 515.876 386.003   1
  -8  -2  10 1200.24 508.971   1
  -2  -8  10 1890.67 690.519   1
   8   2 -10 567.044 534.506   1
  10  -8  10 910.477 406.489   2
   2   8 -10 904.064 499.857   1
 -10   2 -10 858.082 482.795   1
  10  -2  10 676.976 327.782   2
  10  -2  11 952.869 537.798   1
  -8  -2  11 2127.37 825.920   1
   8   2 -11 1495.56 585.937   1
  10  -8  11 1943.08 778.753   2
  -2  -8  11 1177.59 630.188   1
 -10   2 -11 2397.93 665.310   1
   2   8 -11 966.572 585.759   1
  10  -2  11 2191.55 787.416   2
  10  -2  12 110845. 4905.13   1
 -10   2 -12 105127. 4704.71   1
  -8  -2  12 91157.0 4680.01   1
   2   8 -12 101016. 4807.15   1
  10  -8  12 103758. 4699.29   2
  10  -2  12 99265.2 4581.17   2
  -2  -8  12 105870. 4932.77   1
  -8  -2  13 1507.55 848.425   1
   1   9  12 2244.29 728.142   2
   1 -10  11 1787.26 596.301   1
   9 -10  11 1888.06 714.830   2
  -1  10 -11 3099.04 922.053   1
   1 -10  10 116483. 5275.54   1
   9   1  10 122128. 5164.54   1
  -9  -1 -10 129089. 5270.02   1
   9 -10  10 118163. 5237.76   2
  -1  10 -10 124857. 5519.73   1
   9   1  10 125150. 5122.55   2
   1 -10   9 16980.6 1962.85   1
   9   1   9 19424.5 1947.96   1
  -9  -1  -9 18225.3 1880.09   1
   9 -10   9 18884.7 1937.86   2
  -1  10  -9 17338.2 1990.80   1
   9   1   9 18251.4 1874.55   2
  -9  -1  -8 1541.06 516.055   1
   9   1   8 2665.95 739.977   1
   9 -10   8 1070.59 461.991   2
  -1  10  -8 1666.21 727.008   1
   1 -10   8 606.097 339.980   1
   9   1   8 2400.16 714.993   2
   9   1   7 67384.0 3696.30   1
   9 -10   7 60728.0 3659.79   2
  -1  10  -7 65578.3 3751.48   1
  -9  -1  -7 71863.4 3713.29   1
   9   1   7 61958.6 3496.48   2
   1 -10   7 65739.3 3713.65   1
   9   1   6 21959.8 2029.99   1
   1   9   6 25919.5 2240.61   1
   9 -10   6 21033.4 2134.80   2
  -1  10  -6 20997.6 2124.13   1
  -9  -1  -6 22198.0 2050.31   1
   1 -10   6 19496.1 2006.09   1
   9   1   6 24247.6 2122.78   2
   1 -10   5 5553.36 999.188   1
  -9  -1  -5 5034.32 953.846   1
   9   1   5 4665.01 1005.67   1
   1   9   5 5910.87 1106.89   1
  -1  -9  -5 5862.18 1087.69   1
   9 -10   5 4761.62 1075.76   2
  -1  10  -5 5951.97 1097.86   1
   9   1   5 4685.62 981.183   2
 -10   1   4 21560.6 2087.84   1
  -1  -9  -4 20809.7 1983.50   1
   9   1   4 23610.8 2152.77   1
   1   9   4 23234.9 2112.14   1
  -1  10  -4 23529.3 2173.28   1
   9 -10   4 24233.2 2247.18   2
   1 -10   4 25366.0 2200.61   1
  -9  -1  -4 24913.2 2232.24   1
   9   1   4 21640.7 1995.83   2
  -1  -9  -3 17777.9 1785.87   1
   9   1   3 17977.5 1831.90   1
  10  -1  -3 14985.0 1670.83   1
   1   9   3 16341.5 1838.81   1
  -1  10  -3 16898.7 1869.58   1
   9 -10   3 16592.0 1838.68   2
   1 -10   3 17435.9 1805.72   1
  -9  -1  -3 15471.5 1740.39   1
   9   1   3 18440.9 1770.74   2
 -10   1   3 17357.8 1851.98   1
  -1  -9  -2 150450. 5851.03   1
   9   1   2 166080. 5949.55   1
  10  -1  -2 159782. 5856.94   1
   1   9   2 157029. 5991.21   1
   1 -10   2 178950. 6243.97   1
  -1  10  -2 164315. 6032.05   1
   9 -10   2 160846. 6189.17   2
   9   1   2 170926. 6101.44   2
  -9  -1  -2 156589. 5877.71   1
 -10   1   2 161162. 5952.97   1
  -1  -9  -1 74628.7 3867.89   1
  10  -1  -1 75501.5 3797.16   1
   9   1   1 79169.2 3940.93   1
   1 -10   1 77351.5 3932.32   1
   1   9   1 74567.1 3923.80   1
  -1  10  -1 72229.1 3879.98   1
   9   1   1 69648.1 3763.00   2
 -10   1   1 83200.0 4032.43   1
  -9  -1  -1 79657.0 3968.13   1
  -1  -9   0 28462.1 2316.63   1
  10  -1   0 27853.7 2273.28   1
   9   1   0 24589.5 2166.73   1
   1   9   0 26275.9 2339.78   1
  -1  10   0 30302.2 2384.03   1
 -10   1   0 29024.1 2342.09   1
   9   1   0 29115.7 2402.12   2
  -9  -1   0 26242.1 2247.18   1
  -9  -1   1 32676.1 2529.79   1
  10  -1   1 34853.3 2554.48   1
  -1  -9   1 35456.9 2658.52   1
   9   1  -1 36246.3 2610.75   1
   1   9  -1 34196.8 2604.03   1
 -10   1  -1 36986.9 2623.50   1
  10  -1   1 40126.2 2825.10   2
   9   1  -1 28540.4 2401.35   2
  -9  -1   2 162653. 5948.86   1
  10  -1   2 145718. 5712.03   1
   9   1  -2 159290. 5872.18   1
  -1  -9   2 154279. 5900.72   1
 -10   1  -2 158001. 5868.61   1
  10  -1   2 165699. 6034.28   2
  -9  -1   3 30085.3 2446.70   1
  10  -1   3 30924.3 2466.80   1
   9   1  -3 28883.8 2356.78   1
  -1  -9   3 31283.2 2472.33   1
   1   9  -3 29451.6 2402.89   1
  10  -9   3 34025.8 2611.67   2
 -10   1  -3 30683.2 2435.68   1
  10  -1   3 31686.6 2476.85   2
 -10   1  -4 2082.35 710.970   1
  10  -1   4 2411.78 713.750   1
   9   1  -4 1782.44 613.450   1
  10  -9   4 1846.07 683.570   2
  -1  -9   4 2871.20 764.568   1
   1   9  -4 3073.51 822.408   1
  -9  -1   4 2059.68 639.547   1
  10  -1   4 1589.96 657.719   2
  -9  -1   5 14061.4 1729.39   1
  10  -1   5 12091.6 1481.74   1
  10  -9   5 13487.8 1602.43   2
   9   1  -5 11111.2 1445.18   1
 -10   1  -5 12517.9 1550.26   1
   1   9  -5 11785.6 1542.75   1
  -1  -9   5 12370.8 1557.44   1
  10  -1   5 10936.5 1554.97   2
  -9  -1   6 24316.9 2201.45   1
  10  -1   6 25730.7 2179.62   1
   9   1  -6 23616.1 2176.75   1
   1   9  -6 27692.8 2379.41   1
 -10   1  -6 23124.9 2102.24   1
  10  -9   6 25516.2 2239.74   2
  -1  -9   6 25561.7 2250.96   1
  10  -1   6 24979.1 2291.89   2
 -10   1  -7 4763.07 1014.92   1
  -9  -1   7 3619.80 811.829   1
  -1  -9   7 5460.05 1050.55   1
  10  -1   7 5855.88 1054.85   1
   9   1  -7 5878.33 1049.48   1
  10  -9   7 5719.15 1079.50   2
   1   9  -7 5332.01 1101.84   1
  10  -1   7 4494.85 1041.11   2
  10  -1   8 25749.5 2241.31   1
  -9  -1   8 25491.9 2300.01   1
   9   1  -8 24870.0 2290.86   1
 -10   1  -8 26235.3 2263.24   1
   1   9  -8 29331.8 2508.80   1
  10  -9   8 22960.3 2169.79   2
  10  -1   8 25860.1 2326.77   2
  -1  -9   8 27993.1 2413.64   1
  10  -1   9 65189.2 3606.01   1
  -9  -1   9 57134.3 3621.92   1
   9   1  -9 55428.9 3494.51   1
 -10   1  -9 68780.2 3753.00   1
   1   9  -9 64988.7 3794.09   1
  10  -9   9 60514.3 3557.77   2
  10  -1   9 62226.3 3638.42   2
  -1  -9   9 68625.1 3794.88   1
  10  -1  10 81937.8 4231.00   1
 -10   1 -10 95469.7 4439.10   1
   1   9 -10 87307.3 4452.43   1
  10  -9  10 87826.8 4391.06   2
  10  -1  10 90361.7 4391.69   2
  -1  -9  10 94798.8 4621.11   1
  10  -1  11 45693.0 3050.09   1
 -10   1 -11 44776.7 3003.36   1
  10  -9  11 41112.2 2917.76   2
   1   9 -11 41317.9 3044.21   1
  10  -1  11 37722.3 2872.43   2
  -1  -9  11 47457.8 3221.72   1
   0 -10   0 34605.5 2676.58   1
  10   0   0 39947.2 2762.37   1
   0  10   0 42728.0 2932.79   1
 -10   0   0 41702.5 2865.52   1
   0 -10  -1 53055.1 3330.52   1
  10   0   1 57633.4 3365.18   1
  10   0  -1 54315.7 3334.98   1
   0 -10   1 56339.5 3393.94   1
   0  10   1 55797.6 3405.84   1
   0  10  -1 52992.1 3370.81   1
 -10   0  -1 57951.9 3415.24   1
  10   0   1 52647.8 3329.93   2
 -10   0   1 52884.7 3305.34   1
  10   0   2 174894. 6215.41   1
  10   0  -2 156032. 5997.54   1
   0  10   2 162450. 6066.71   1
   0 -10   2 153206. 5983.65   1
   0  10  -2 167809. 6267.72   1
 -10   0  -2 155503. 5888.22   1
  10   0   2 161157. 6060.53   2
 -10   0   2 160011. 6043.87   1
 -10   0   3 18786.1 1963.06   1
  10   0   3 16475.9 1836.46   1
  10   0  -3 17159.6 1776.79   1
   0 -10   3 19665.2 2010.05   1
   0  10  -3 19188.7 1941.93   1
 -10   0  -3 14974.8 1796.22   1
  10   0   3 18050.5 1803.07   2
 -10   0  -4 4229.54 919.468   1
  10   0   4 4510.68 955.254   1
  10   0  -4 4535.85 934.229   1
  10 -10   4 3968.94 933.510   2
 -10   0   4 5078.44 1058.78   1
   0 -10   4 3889.74 886.980   1
   0  10  -4 3969.97 968.887   1
  10   0   4 2785.49 817.576   2
  10   0   5 10758.2 1490.51   1
   0  10  -5 14390.1 1710.32   1
 -10   0  -5 12067.4 1544.10   1
  10 -10   5 11450.7 1554.62   2
 -10   0   5 12300.7 1601.56   1
  10   0   5 13409.2 1704.02   2
   0 -10   5 11656.8 1539.49   1
   0 -10   6 10583.6 1469.90   1
 -10   0   6 12297.2 1674.68   1
 -10   0  -6 11442.0 1553.55   1
  10   0   6 10935.8 1487.23   1
  10 -10   6 8886.14 1446.66   2
   0  10  -6 10582.3 1490.96   1
  10   0   6 7751.01 1291.57   2
  10   0   7 26150.2 2239.97   1
   0  10  -7 28063.3 2486.46   1
  10 -10   7 21772.7 2172.61   2
 -10   0  -7 27669.2 2351.51   1
   0 -10   7 22898.5 2224.81   1
  10   0   7 24062.2 2254.72   2
 -10   0  -8 4050.64 880.795   1
   0 -10   8 2809.61 818.164   1
  10   0   8 3790.38 950.386   1
  10 -10   8 3500.82 936.038   2
   0  10  -8 3015.33 866.955   1
  10   0   8 3007.75 880.140   2
  10   0   9 25315.5 2242.98   1
 -10   0  -9 33969.4 2542.13   1
  10 -10   9 25087.2 2380.52   2
   0  10  -9 28273.9 2499.22   1
  10   0   9 29711.4 2491.50   2
   0 -10   9 28206.6 2506.65   1
   0  10 -10 108007. 5100.12   1
   0 -10  10 103765. 4992.87   1
  -6  -5 -11 4131.03 926.692   1
  -5  -6 -11 2937.74 764.924   1
   6   5  11 4245.40 983.540   1
   5   6  11 3077.27 761.099   1
   6   5  11 3949.64 914.527   2
   5   6  11 3820.26 911.468   2
   6   5  10 89391.2 4325.35   1
   5   6  10 85259.1 4226.00   1
   5 -11  10 70149.0 4085.16   2
   6 -11  10 78079.1 4287.33   2
  -6  -5 -10 82294.1 4250.58   1
  -5  -6 -10 81156.8 4147.88   1
   6   5  10 78983.4 4053.13   2
   5   6  10 64516.5 3767.41   2
   6   5   9 25225.4 2157.93   1
   5   6   9 24239.2 2197.06   1
   5 -11   9 23028.9 2316.52   2
   6 -11   9 23459.5 2237.17   2
  -6  -5  -9 22412.1 2144.31   1
  -5  -6  -9 20339.5 2006.24   1
   6   5   9 22890.0 2123.67   2
   5   6   9 19976.6 2069.10   2
  -6  -5  -8 1341.95 528.908   1
  -5  -6  -8 893.782 615.687   1
   6   5   8 1041.40 587.874   1
   5   6   8 329.252 304.951   1
   5 -11   8 539.280 577.999   2
   6 -11   8-604.758 585.475   2
   6   5   8 1282.07 777.655   2
   5   6   8-336.289 613.191   2
   6   5   7 37316.6 2672.71   1
   5   6   7 34389.7 2622.84   1
   5 -11   7 33757.8 2743.69   2
   6 -11   7 31092.4 2588.45   2
  -6  -5  -7 30430.4 2448.02   1
  -5  -6  -7 32073.9 2541.82   1
   6   5   7 30967.7 2476.30   2
   6   5   6 54779.2 3318.34   1
   5   6   6 57112.1 3353.07   1
   5 -11   6 53582.8 3386.51   2
   6 -11   6 50945.4 3350.92   2
  -6  -5  -6 59232.4 3440.06   1
  -5  -6  -6 56904.6 3346.30   1
   6   5   5 30649.4 2456.80   1
   5   6   5 32331.5 2533.10   1
   5 -11   5 29424.3 2522.66   2
   6 -11   5 28031.9 2408.60   2
  -6  -5  -5 34678.0 2602.41   1
  -5  -6  -5 32713.0 2507.42   1
   6   5   4 16412.3 1781.28   1
   5   6   4 14785.5 1736.67   1
   6 -11   4 13251.2 1703.14   2
   5 -11   4 14818.0 1765.90   2
  -6  -5  -4 14634.8 1724.20   1
  -5  -6  -4 15830.7 1774.86   1
  -6  -5  -3 68277.4 3757.08   1
  -5  -6  -3 80662.1 4034.77   1
   6   5   3 73443.7 3831.26   1
   5   6   3 69353.5 3734.99   1
   5 -11   3 60421.4 3687.88   2
   6 -11   3 62395.8 3746.45   2
  -6  -5  -2 177739. 6334.01   1
  -5  -6  -2 180123. 6319.38   1
   6   5   2 189978. 6435.65   1
   5   6   2 174415. 6247.14   1
  -6  -5  -1 15595.6 1739.32   1
  -5  -6  -1 17657.2 1824.62   1
   6   5   1 19029.7 1887.85   1
   5   6   1 19027.6 1937.74   1
   6 -11   1 14264.9 1717.31   2
  -6  -5   0 18138.8 1855.08   1
  -5  -6   0 19851.4 1953.72   1
   6   5   0 18402.1 1895.06   1
   5   6   0 17997.1 1831.20   1
  -5  -6   1 231.632 458.396   1
   6   5  -1 581.658 426.314   1
   5   6  -1-368.280 498.793   1
  -6  -5   1 164.954 483.620   1
  -6  -5   2 129278. 5257.81   1
  -5  -6   2 131103. 5303.83   1
   6   5  -2 119575. 5137.27   1
   5   6  -2 127180. 5236.19   1
  -6  -5   3 31449.6 2513.48   1
  -5  -6   3 28439.4 2443.46   1
   6   5  -3 29604.0 2392.93   1
   5   6  -3 30861.5 2453.43   1
  11  -5   3 33031.7 2559.29   2
  -6  -5   4 12998.3 1568.40   1
  -5  -6   4 12942.7 1608.56   1
   5   6  -4 10709.0 1485.39   1
   6   5  -4 9755.23 1378.62   1
  11  -6   4 13343.0 1635.66   2
  11  -5   4 10519.9 1441.03   2
  -6  -5   5 39035.0 2810.79   1
  -5  -6   5 41452.9 2856.48   1
   6   5  -5 42667.3 2933.27   1
   5   6  -5 39258.8 2792.13   1
  11  -6   5 37778.5 2747.26   2
  11  -5   5 38336.0 2836.93   2
  -6  -5   6 38615.1 2804.89   1
  -5  -6   6 42934.1 2951.78   1
   6   5  -6 41608.3 2928.54   1
   5   6  -6 39901.4 2818.92   1
  11  -6   6 39742.4 2838.32   2
  11  -5   6 35392.7 2741.91   2
  -6  -5   7 14811.9 1747.88   1
   6   5  -7 13357.3 1633.70   1
   5   6  -7 13106.2 1597.72   1
  -5  -6   7 16167.4 1820.53   1
  11  -6   7 11430.2 1508.60   2
  11  -5   7 13617.4 1675.64   2
  -6  -5   8 5183.62 1029.64   1
   6   5  -8 5108.80 961.592   1
   5   6  -8 5667.41 1075.43   1
  -5  -6   8 4114.32 1005.81   1
  11  -6   8 4554.75 990.688   2
  11  -5   8 5643.47 949.313   2
 -11   5  -9 40563.1 2853.87   1
   6   5  -9 41065.8 2890.76   1
   5   6  -9 44791.9 3048.40   1
  -6  -5   9 45860.8 3101.00   1
  -5  -6   9 42886.4 2955.31   1
  11  -6   9 45794.5 3026.47   2
  11  -5   9 38723.8 2856.12   2
  11  -5  10 115150. 5256.37   1
 -11   5 -10 117074. 5132.65   1
   6   5 -10 136389. 5558.68   1
   5   6 -10 141644. 5692.22   1
  -6  -5  10 138576. 5649.97   1
  -5  -6  10 149253. 5720.60   1
  11  -6  10 132554. 5391.23   2
  11  -5  10 129142. 5344.02   2
  11  -5  11 24833.0 2327.83   1
 -11   5 -11 30621.7 2504.33   1
   6   5 -11 35128.1 2767.29   1
   5   6 -11 33318.0 2612.61   1
  -6  -5  11 34165.5 2684.25   1
  11  -6  11 33956.1 2544.83   2
  -5  -6  11 35471.1 2669.21   1
  11  -5  11 36887.3 2649.58   2
  11  -5  12 9890.17 1509.43   1
 -11   5 -12 12496.4 1626.11   1
   4   7  12 38664.0 2896.02   1
  -4  -7 -12 39088.4 2882.91   1
  -4  11 -12 33072.8 2863.54   1
  -4  -7 -11 2806.81 785.516   1
   4   7  11 2712.70 840.651   1
   4 -11  11 1913.42 725.803   1
   4   7  11 2357.63 857.984   2
  -4  11 -11 1555.10 628.733   1
  -7  -4 -10 334.800 349.287   1
  -4  -7 -10 1083.96 588.343   1
   7   4  10 244.870 434.177   1
   4   7  10 790.007 449.934   1
   4 -11  10 1315.61 624.177   2
   7 -11  10 378.081 489.878   2
   7   4  10 401.534 425.742   2
  -4  11 -10 747.108 630.604   1
   4   7  10 677.205 563.518   2
  -7  -4  -9 5780.18 1130.83   1
  -4  -7  -9 5940.86 1067.29   1
   7   4   9 6007.52 1062.31   1
   4   7   9 5149.17 1023.71   1
   4 -11   9 7095.42 1301.16   2
   7 -11   9 6143.39 1207.53   2
  -4  11  -9 5083.33 1116.68   1
   7   4   9 6638.01 1172.33   2
   4   7   9 2583.40 839.698   2
   7   4   8 285972. 8264.25   1
   4   7   8 261137. 8099.20   1
   4 -11   8 239482. 8178.66   2
   7 -11   8 250859. 8200.24   2
  -7  -4  -8 240194. 7826.02   1
  -4  -7  -8 228901. 7612.34   1
   7   4   8 274534. 8071.85   2
  -7  -4  -7 1478.12 650.151   1
  -4  -7  -7 1154.67 581.449   1
   7   4   7 1942.94 777.136   1
   4   7   7 1369.22 716.874   1
   4 -11   7 1175.66 541.739   2
   7 -11   7 1740.49 755.841   2
   7   4   7 786.459 309.275   2
  -7  -4  -6 6183.40 1114.37   1
  -4  -7  -6 3516.25 857.042   1
   7   4   6 4479.52 970.765   1
   4   7   6 3904.42 920.819   1
   4 -11   6 2633.22 837.331   2
   7 -11   6 4052.75 948.282   2
   7   4   6 3701.41 916.203   2
   7   4   5 20403.7 1970.11   1
   4   7   5 22672.9 2137.87   1
   7 -11   5 17959.8 1961.83   2
  -7  -4  -5 22017.1 2081.38   1
   7   4   5 16601.4 1815.25   2
  -4  -7  -5 20472.3 2045.57   1
  -4  -7  -4 120659. 5039.17   1
   7   4   4 127554. 5140.35   1
   4   7   4 123964. 5182.62   1
   7 -11   4 108592. 4926.99   2
  -7  -4  -4 126294. 5111.58   1
   7   4   4 103849. 4720.57   2
   7   4   3 379.665 571.459   1
  -7  -4  -3 9.01454 463.197   1
   4   7   3 261.229 327.898   1
   7 -11   3 1037.81 612.452   2
  -4  -7  -3 345.998 473.997   1
   7   4   3-930.747 675.884   2
  -7  -4  -2 20277.9 1969.18   1
  -4  -7  -2 26688.8 2271.87   1
   7   4   2 24042.2 2170.21   1
   4   7   2 23425.6 2149.54   1
   7 -11   2 21208.5 2055.97   2
   7   4   1 4820.72 1018.68   1
   7 -11   1 5674.95 1164.98   2
   4   7   1 4893.44 991.852   1
  -7  -4  -1 6129.34 1238.57   1
  -4  -7  -1 4102.37 943.476   1
  -7  -4   0 268152. 8088.25   1
  -4  -7   0 271199. 8139.58   1
   7   4   0 262505. 7992.78   1
   4   7   0 275366. 8198.11   1
   7 -11   0 252290. 8248.65   2
  -4  -7   1 2372.23 759.110   1
   7   4  -1 789.187 424.336   1
   4   7  -1 2556.50 769.406   1
  -7  -4   1 1818.01 636.766   1
  -4  -7   2 11533.0 1520.05   1
   4   7  -2 11469.8 1531.20   1
   7   4  -2 11260.2 1510.91   1
  -7  -4   2 12834.9 1526.43   1
  -7  -4   3 3919.91 968.094   1
  -4  -7   3 3390.32 874.674   1
   7   4  -3 4060.84 925.508   1
   4   7  -3 3737.99 950.664   1
  11  -4   3 2842.67 895.730   2
  -7  -4   4 113193. 4988.15   1
  -4  -7   4 122288. 5159.81   1
   7   4  -4 121859. 5055.89   1
   4   7  -4 118576. 5107.50   1
  11  -7   4 121193. 5176.12   2
  11  -4   4 119914. 5153.57   2
  -7  -4   5 571.504 555.376   1
  -4  -7   5-30.3010 390.735   1
   7   4  -5-141.454 403.385   1
   4   7  -5-61.2869 316.395   1
  11  -7   5-505.080 483.039   2
  11  -4   5-131.816 451.491   2
  -7  -4   6 4299.23 955.666   1
  -4  -7   6 5020.28 1018.53   1
   7   4  -6 3722.84 881.267   1
   4   7  -6 3489.83 729.044   1
  11  -7   6 2737.14 767.318   2
  11  -4   6 3157.16 878.945   2
 -11   4  -6 3984.81 867.689   1
  11  -4   7 13057.4 1626.12   1
 -11   4  -7 15226.9 1677.92   1
  -7  -4   7 12359.0 1603.64   1
   7   4  -7 14254.9 1703.48   1
   4   7  -7 15586.0 1805.18   1
  -4  -7   7 14183.1 1703.72   1
  11  -7   7 12343.6 1671.01   2
  11  -4   7 13922.9 1669.13   2
  11  -4   8 217790. 7368.30   1
 -11   4  -8 225311. 7319.02   1
  -7  -4   8 234682. 7610.67   1
   7   4  -8 221825. 7457.51   1
   4   7  -8 233753. 7660.04   1
  -4  -7   8 248178. 7771.32   1
  11  -7   8 221388. 7497.18   2
  11  -4   8 237332. 7525.59   2
  11  -4   9 1005.14 417.337   1
  -7  -4   9 1036.16 629.587   1
   7   4  -9 1160.27 564.444   1
 -11   4  -9 2042.22 624.045   1
   4   7  -9 3047.95 779.706   1
  11  -7   9 2182.17 773.290   2
  11  -4   9 2608.87 829.197   2
  -4  -7   9 2157.89 743.711   1
  11  -4  10 26639.9 2347.62   1
 -11   4 -10 25286.7 2280.39   1
   7   4 -10 29902.3 2443.89   1
  -7  -4  10 32461.1 2626.58   1
   4   7 -10 30794.3 2560.64   1
  11  -7  10 29604.4 2504.77   2
  -4  -7  10 36298.0 2714.50   1
  11  -4  10 30768.1 2413.00   2
  11  -4  11 5014.58 1045.81   1
 -11   4 -11 4887.48 1002.47   1
  -7  -4  11 5833.34 1244.82   1
   7   4 -11 5694.93 1130.69   1
  11  -7  11 6086.72 1155.15   2
   3 -11  11 10284.6 1585.86   1
  -3  11 -11 11884.8 1658.06   1
   3 -11  10 31505.8 2770.43   1
   3   8  10 32230.3 2630.94   1
   8 -11  10 36998.4 2868.07   2
  -3  -8 -10 30440.1 2579.11   1
  -3  11 -10 32908.1 2761.96   1
   3 -11   9 41479.2 3094.30   1
   8   3   9 59646.2 3437.82   1
   3   8   9 42388.8 3038.32   1
   8 -11   9 50434.5 3349.72   2
  -8  -3  -9 53484.8 3259.22   1
  -3  11  -9 43115.8 3173.14   1
  -3  -8  -9 38141.3 2854.10   1
   8   3   9 49278.2 3089.50   2
   3 -11   8-130.079 360.710   1
  -8  -3  -8 353.172 481.664   1
  -3  -8  -8 887.691 587.110   1
   8   3   8 56.4225 474.269   1
   3   8   8 680.196 545.505   1
   8 -11   8 574.999 444.601   2
  -3  11  -8 882.347 579.387   1
   8   3   8 1582.67 712.269   2
   8   3   7 71031.2 3838.38   1
   3   8   7 57395.7 3483.16   1
   8 -11   7 67029.0 3804.43   2
  -3  11  -7 57910.5 3651.99   1
  -8  -3  -7 67871.5 3709.92   1
  -3  -8  -7 56801.8 3398.53   1
   8   3   7 62959.7 3515.84   2
   8   3   6 154566. 5832.46   1
   3   8   6 137363. 5532.98   1
   8 -11   6 125679. 5552.63   2
  -8  -3  -6 144123. 5596.78   1
   8   3   6 137816. 5406.89   2
  -3  -8  -6 129490. 5356.37   1
   8   3   5 27892.8 2386.74   1
   3   8   5 25522.4 2276.82   1
   8 -11   5 22495.1 2160.05   2
  -8  -3  -5 26190.1 2287.47   1
   8   3   5 23517.0 2139.74   2
  -3  -8  -5 23172.3 2157.46   1
  -3  -8  -4 53986.6 3377.38   1
   8   3   4 79310.8 3959.66   1
   3   8   4 66704.0 3698.33   1
   8 -11   4 61701.2 3714.85   2
  -8  -3  -4 70725.0 3824.61   1
   8   3   4 65095.9 3608.03   2
  -8  -3  -3 4501.81 963.264   1
   8   3   3 5944.01 1117.52   1
   3   8   3 5063.59 977.502   1
   8 -11   3 4638.20 1037.73   2
  -3  -8  -3 3870.41 879.035   1
   8   3   3 4869.08 971.697   2
  -3  -8  -2 97672.4 4504.57   1
   8   3   2 99223.9 4509.96   1
   3   8   2 93777.0 4484.53   1
   8 -11   2 85732.2 4352.88   2
  -8  -3  -2 94067.8 4431.95   1
   8   3   1 2255.40 741.518   1
   3   8   1 1838.00 752.813   1
   8 -11   1 2065.03 763.316   2
  -8  -3  -1 1143.43 320.070   1
  -3  -8  -1 2012.13 641.145   1
   8   3   1 1191.05 521.567   2
  -3  -8   0 7056.16 1166.60   1
   8   3   0 6322.20 1084.39   1
   3   8   0 6527.71 1129.99   1
  -8  -3   0 7013.03 1239.84   1
   8   3   0 3086.76 703.369   2
  -8  -3   1 17030.9 1825.71   1
  -3  -8   1 16995.1 1844.91   1
   8   3  -1 14683.9 1698.83   1
   3   8  -1 18465.8 1905.11   1
  -8  -3   2 58773.2 3504.43   1
  -3  -8   2 56810.1 3452.05   1
   8   3  -2 62998.3 3553.56   1
   3   8  -2 62129.2 3569.30   1
  -8  -3   3 72381.3 3820.33   1
  -3  -8   3 78619.8 4004.15   1
   8   3  -3 69142.4 3703.12   1
   3   8  -3 72697.8 3925.15   1
 -11   3  -3 66879.2 3667.17   1
  -8  -3   4 2298.12 780.123   1
 -11   3  -4 2227.42 788.923   1
  11  -3   4 1829.70 680.358   1
  -3  -8   4 1341.46 512.158   1
   8   3  -4 1671.61 608.954   1
   3   8  -4 2051.81 687.976   1
  11  -8   4 1739.29 567.471   2
  11  -3   4 2618.29 839.125   2
  11  -3   5 61633.4 3504.10   1
  -8  -3   5 71446.8 3867.74   1
   8   3  -5 71788.8 3873.33   1
 -11   3  -5 68735.7 3748.44   1
  -3  -8   5 79705.0 4063.94   1
   3   8  -5 73219.3 3883.85   1
  11  -8   5 71299.3 3877.78   2
  11  -3   5 64554.7 3790.81   2
  11  -3   6 122612. 5079.74   1
  -8  -3   6 118552. 5155.68   1
   8   3  -6 114487. 5050.54   1
 -11   3  -6 114086. 4937.62   1
   3   8  -6 124883. 5237.78   1
  -3  -8   6 133143. 5381.39   1
  11  -8   6 112356. 5066.63   2
  11  -3   6 113534. 5093.36   2
  11  -3   7 22230.6 2107.80   1
  -8  -3   7 27298.0 2404.52   1
 -11   3  -7 24882.1 2212.46   1
   8   3  -7 26399.6 2333.79   1
   3   8  -7 31278.4 2521.50   1
  -3  -8   7 28793.5 2398.33   1
  11  -8   7 25989.0 2311.46   2
  11  -3   7 26297.9 2362.05   2
  11  -3   8 52567.3 3272.79   1
  -8  -3   8 59083.4 3598.41   1
 -11   3  -8 50446.0 3241.48   1
   8   3  -8 58012.5 3487.61   1
   3   8  -8 61112.1 3627.82   1
  11  -8   8 57268.8 3493.90   2
  -3  -8   8 64340.3 3612.90   1
  11  -3   8 57817.1 3474.60   2
  -3  -8   9 5538.73 1111.75   1
  11  -3   9 4206.10 926.426   1
  -8  -3   9 5743.47 1126.01   1
   8   3  -9 3951.92 909.416   1
  11  -8   9 6062.23 1128.18   2
   3   8  -9 6015.11 1151.10   1
 -11   3  -9 5712.10 1121.84   1
  11  -3   9 5523.97 1091.10   2
  11  -3  10 71973.4 3965.48   1
 -11   3 -10 72933.7 3903.16   1
  -8  -3  10 75973.9 4207.65   1
   8   3 -10 72627.4 4064.83   1
  11  -8  10 79691.4 4191.13   2
  11  -3  10 84396.0 4155.51   2
  11  -3  11 1222.29 535.634   1
  -8  -3  11 1061.24 590.297   1
   8   3 -11 1236.69 561.604   1
 -11   3 -11 1396.54 492.213   1
   2 -11  10 16736.5 2005.59   1
  -2  11 -10 16859.5 2009.03   1
   9 -11   9 10171.7 1546.22   2
  -2  11  -9 9808.47 1478.18   1
   2 -11   9 7915.92 1327.96   1
  -9  -2  -8 1070.71 502.632   1
   9   2   8 1377.47 548.182   1
   9 -11   8 723.119 380.327   2
   2 -11   8 336.015 478.484   1
  -2  11  -8 280.473 344.922   1
   9   2   8 45.8918 365.374   2
  -9  -2  -7 5493.92 1140.36   1
   9   2   7 6311.68 1102.35   1
   2   9   7 4116.66 955.869   1
   2 -11   7 3783.48 1012.15   1
   9 -11   7 4518.41 1073.15   2
  -2  11  -7 4836.62 1022.79   1
   9   2   7 3754.34 922.832   2
   9   2   6 138495. 5505.29   1
   2   9   6 107083. 4929.56   1
   9 -11   6 101730. 5088.94   2
  -2  11  -6 108781. 5116.46   1
  -9  -2  -6 137903. 5461.71   1
   2 -11   6 108438. 5109.17   1
   9   2   6 123730. 5123.81   2
  -2  -9  -6 109878. 4944.64   1
   9   2   5 127974. 5252.33   1
   2   9   5 114371. 5082.58   1
   9 -11   5 99389.3 4869.61   2
  -2  11  -5 107950. 5061.38   1
  -9  -2  -5 128261. 5208.36   1
   9   2   5 121132. 4997.71   2
  -2  -9  -5 95275.3 4655.81   1
  -2  -9  -4 34402.8 2684.44   1
   9   2   4 40891.7 2827.31   1
   2   9   4 36483.8 2783.75   1
   9 -11   4 33829.2 2657.96   2
  -9  -2  -4 36737.0 2747.95   1
   9   2   4 35327.7 2650.44   2
  -2  -9  -3 24037.1 2207.89   1
   9   2   3 29468.3 2455.47   1
   2   9   3 29170.6 2454.86   1
   9 -11   3 23749.6 2269.72   2
  -9  -2  -3 28447.2 2421.16   1
   9   2   3 23857.0 2233.11   2
  -2  -9  -2 118480. 5179.35   1
   9   2   2 138117. 5376.57   1
   2   9   2 131926. 5447.40   1
   9 -11   2 122429. 5423.16   2
   9   2   2 116997. 5207.30   2
  -9  -2  -2 141314. 5602.19   1
   9   2   1 1414.50 677.999   1
  -9  -2  -1 646.922 543.490   1
   2   9   1-29.7647 565.217   1
   9   2   1-9.78146 337.245   2
  -2  -9  -1-585.814 634.246   1
  -2  -9   0 4897.64 996.750   1
   9   2   0 6259.25 1169.94   1
  -9  -2   0 4505.42 900.846   1
   2   9   0 5555.30 1063.15   1
   9   2   0 3233.63 813.697   2
  -9  -2   1 33871.5 2569.63   1
  -2  -9   1 32155.9 2531.38   1
   9   2  -1 29709.3 2396.20   1
   2   9  -1 32363.6 2580.39   1
 -11   2  -1 32774.6 2594.09   1
  -9  -2   2 37571.2 2784.10   1
  11  -2   2 36919.3 2713.56   1
  -2  -9   2 40690.2 2903.31   1
   9   2  -2 36113.0 2706.46   1
   2   9  -2 43138.2 2976.08   1
 -11   2  -2 37713.4 2749.87   1
  -9  -2   3 48148.2 3215.83   1
  11  -2   3 44670.9 2978.72   1
   9   2  -3 49806.0 3192.66   1
  -2  -9   3 53946.5 3352.73   1
   2   9  -3 52599.6 3349.04   1
 -11   2  -3 49311.8 3174.97   1
  11  -2   3 47234.3 3255.96   2
 -11   2  -4 6373.98 1154.97   1
  11  -2   4 7442.61 1190.30   1
  -2  -9   4 6901.05 1237.99   1
   9   2  -4 5870.09 1097.02   1
   2   9  -4 7674.86 1257.76   1
  -9  -2   4 6597.58 1212.25   1
  11  -2   4 7675.98 1269.76   2
  -9  -2   5 33393.6 2665.54   1
  11  -2   5 32629.7 2539.13   1
   9   2  -5 31697.4 2500.63   1
   2   9  -5 38614.2 2802.94   1
  -2  -9   5 40840.0 2927.69   1
 -11   2  -5 36111.2 2624.55   1
  11  -9   5 33350.8 2664.63   2
  11  -2   5 32365.9 2577.75   2
  11  -2   6 84991.2 4317.83   1
  -9  -2   6 101372. 4786.93   1
   9   2  -6 95407.0 4549.78   1
 -11   2  -6 98659.4 4579.64   1
   2   9  -6 109783. 4993.22   1
  -2  -9   6 110943. 4951.00   1
  11  -9   6 94470.8 4617.98   2
  11  -2   6 95591.0 4699.17   2
  11  -2   7 18422.6 1935.37   1
  -9  -2   7 17732.4 1982.93   1
   9   2  -7 14899.3 1771.97   1
 -11   2  -7 19883.1 1991.60   1
   2   9  -7 18841.7 2025.40   1
  11  -9   7 18497.6 1914.16   2
  -2  -9   7 20072.2 2043.64   1
  11  -2   7 16820.4 1908.73   2
  -2  -9   8 5094.93 1046.87   1
  -9  -2   8 4484.52 946.606   1
  11  -2   8 4977.14 1031.46   1
   9   2  -8 3613.28 889.987   1
  11  -9   8 4682.19 1016.12   2
   2   9  -8 4954.37 1094.14   1
  11  -2   8 4655.07 985.129   2
 -11   2  -8 5561.58 1119.90   1
  -9  -2   9 2154.89 802.554   1
  11  -2   9 2437.64 780.733   1
   9   2  -9 1286.81 469.462   1
  11  -9   9 2384.13 694.449   2
  11  -2   9 2884.19 930.266   2
 -11   2  -9 3027.15 817.209   1
  -9  -2  10 67483.4 4085.66   1
  10 -11   8 49101.2 3387.98   2
  -1  11  -8 44745.0 3242.81   1
   1 -11   8 48257.2 3373.45   1
 -10  -1  -7 7337.82 1251.04   1
   1 -11   7 4647.99 1073.20   1
  10   1   7 6637.91 1183.13   1
  10 -11   7 5806.82 1112.36   2
  -1  11  -7 6587.87 1227.04   1
  10   1   7 6951.55 1214.54   2
 -10  -1  -6 4320.59 989.102   1
  10   1   6 4630.35 1019.17   1
  10 -11   6 3777.26 926.810   2
  -1  11  -6 2916.23 873.262   1
  10   1   6 4895.09 954.180   2
   1 -11   6 3163.63 828.481   1
 -10  -1  -5 3573.40 905.822   1
  10   1   5 4631.17 1093.03   1
  10 -11   5 2753.34 841.407   2
  -1  11  -5 3530.31 919.311   1
   1 -11   5 2295.53 831.743   1
  10   1   5 2535.45 866.237   2
  10   1   4 177981. 6418.58   1
  -1  11  -4 174256. 6559.33   1
   1 -11   4 157053. 6264.52   1
  10 -11   4 138811. 6163.35   2
 -10  -1  -4 182260. 6400.37   1
  10   1   4 150375. 5994.66   2
 -10  -1  -3 1026.11 593.755   1
  10   1   3 333.154 411.489   1
   1  10   3-226.231 304.926   1
  -1  11  -3-413.209 446.816   1
  10   1   3 661.867 456.074   2
 -10  -1  -2 1002.32 488.924   1
  10   1   2 38.9526 424.186   1
   1  10   2 561.974 532.502   1
  -1 -10  -2 1072.63 604.250   1
  10   1   2 995.548 528.367   2
 -11   1   1 1230.09 552.460   1
 -10  -1  -1 1346.34 684.363   1
  10   1   1 2483.87 781.435   1
   1  10   1 2014.48 752.659   1
  10   1   1 2028.22 659.700   2
  -1 -10  -1 1872.50 745.234   1
  -1 -10   0 150845. 6058.41   1
  11  -1   0 153140. 6007.92   1
  10   1   0 177397. 6345.53   1
   1  10   0 171258. 6445.23   1
 -11   1   0 172476. 6366.18   1
 -10  -1   0 174661. 6345.90   1
  -1 -10   1 2088.64 665.115   1
 -11   1  -1 2590.58 728.382   1
  11  -1   1 2225.31 705.130   1
  10   1  -1 2727.84 785.806   1
 -10  -1   1 1778.46 664.053   1
   1  10  -1 2453.38 712.152   1
 -11   1  -2 3439.28 849.263   1
  -1 -10   2 4838.33 1076.28   1
  11  -1   2 4351.83 1024.80   1
  10   1  -2 3023.99 861.580   1
 -10  -1   2 4272.58 1041.25   1
   1  10  -2 4930.58 1105.46   1
 -11   1  -3 3202.67 902.299   1
  -1 -10   3 4114.31 954.881   1
  11  -1   3 3119.99 741.396   1
  10   1  -3 3303.42 872.931   1
 -10  -1   3 3488.97 851.741   1
   1  10  -3 3388.24 925.085   1
  11  -1   3 3815.88 962.955   2
 -10  -1   4 64108.7 3793.24   1
  11  -1   4 70776.1 3828.83   1
  10   1  -4 61733.4 3683.28   1
  -1 -10   4 81159.6 4218.57   1
   1  10  -4 73506.6 4043.25   1
 -11   1  -4 71822.1 3910.92   1
  11  -1   4 70072.5 4049.27   2
 -11   1  -5 5080.21 1065.75   1
  11  -1   5 3891.98 861.696   1
  10   1  -5 4566.53 1005.66   1
  -1 -10   5 4732.64 1074.73   1
  11 -10   5 1929.37 775.017   2
   1  10  -5 4887.39 1119.65   1
 -10  -1   5 3214.31 856.724   1
  11  -1   5 3867.55 1002.27   2
 -11   1  -6-92.4923 344.469   1
  11  -1   6-281.032 469.147   1
  10   1  -6 351.473 548.785   1
  11 -10   6-46.2961 347.411   2
   1  10  -6 279.864 352.318   1
  -1 -10   6-35.9993 359.083   1
 -10  -1   6 4.74537 341.586   1
  11  -1   6 652.542 467.022   2
 -11   1  -7 6574.04 1191.56   1
  11  -1   7 6274.42 1114.18   1
  11 -10   7 4910.03 1078.12   2
   1  10  -7 8337.11 1317.33   1
 -10  -1   7 4099.57 1020.27   1
  -1 -10   7 5947.00 1104.27   1
  11  -1   7 5255.48 1133.82   2
  11  -1   8 95464.7 4613.92   1
 -11   1  -8 98651.5 4627.98   1
  11 -10   8 83664.4 4548.35   2
  11   0   0 16194.7 1884.11   1
 -11   0   0 16315.2 1863.79   1
 -11   0  -1 3204.52 915.908   1
 -11   0   1 3043.43 831.021   1
  11   0   1 2613.68 770.768   1
  11   0  -1 3363.09 840.308   1
  11   0   2 52946.3 3451.80   1
   0  11  -2 52728.9 3528.40   1
 -11   0  -2 55008.0 3451.90   1
 -11   0   2 55677.9 3475.52   1
  11   0   3 33049.9 2693.19   1
   0 -11   3 35508.4 2855.04   1
   0  11  -3 38961.0 3015.85   1
 -11   0  -3 38237.6 2839.54   1
  11   0   3 29397.1 2574.90   2
 -11   0   3 31381.4 2659.31   1
 -11   0  -4 12078.0 1587.69   1
  11   0   4 11122.1 1544.47   1
   0 -11   4 11431.0 1622.67   1
   0  11  -4 13768.9 1723.85   1
  11   0   4 10366.8 1576.21   2
  11   0   5 45446.3 3079.81   1
   0 -11   5 41171.8 3070.77   1
   0  11  -5 38789.2 2996.57   1
 -11   0  -5 46929.6 3208.67   1
  11   0   5 39142.6 3058.53   2
   0  11  -6 55698.5 3646.24   1
   0 -11   6 60525.2 3786.56   1
  -6  -6  -7 265.557 352.127   1
   6   6   7-528.404 447.856   1
   6 -12   7 127.549 528.788   2
   6   6   7 259.318 491.788   2
   6   6   6 22964.0 2109.95   1
   6 -12   6 21032.2 2214.87   2
  -6  -6  -6 18609.1 1943.21   1
  -6  -6  -5-482.803 450.848   1
   6   6   5 919.540 584.880   1
   6 -12   5 613.315 559.935   2
   6   6   4 303348. 8973.23   1
  -6  -6  -4 319404. 9029.35   1
   6   6   3-334.073 553.529   1
  -6  -6  -3 1004.55 757.592   1
   6   6   2 122.928 370.155   1
  -6  -6  -2 612.171 538.850   1
   6   6   1 161.029 362.095   1
  -6  -6  -1 470.214 383.109   1
  -6  -6   0 102616. 4666.69   1
   6   6   0 86920.2 4305.90   1
   6   6  -1-256.144 678.826   1
  -6  -6   1 206.517 490.013   1
  -6  -6   2-263.624 496.906   1
   6   6  -2 650.766 632.575   1
  -6  -6   3 558.866 609.371   1
   6   6  -3-3.16183 296.840   1
  -6  -6   4 159084. 6097.46   1
   6   6  -4 154993. 5944.52   1
  -6  -6   5-156.120 449.717   1
   6   6  -5-175.556 504.298   1
  -6  -6   6 12216.2 1609.06   1
   6   6  -6 11113.8 1516.39   1
  12  -6   6 8241.07 1335.74   2
  -6  -6   7 131.910 426.653   1
   6   6  -7 1103.19 707.322   1
  12  -6   7 357.935 440.920   2
  12  -6   8 183401. 6766.35   2
  12  -6   9 478.952 502.394   2
  -5  -7  -8 12783.7 1607.33   1
   5   7   8 12957.2 1643.14   1
   7   5   7 40860.4 2921.23   1
   5   7   7 40659.9 2926.17   1
   5 -12   7 40411.7 3067.88   2
   7 -12   7 36332.9 2872.67   2
  -7  -5  -7 39812.4 2875.95   1
  -5  -7  -7 34958.8 2753.20   1
   7   5   7 36437.0 2784.17   2
   7   5   6 114294. 4999.76   1
   5   7   6 114392. 5016.71   1
   5 -12   6 100959. 5070.45   2
   7 -12   6 105993. 5136.19   2
  -7  -5  -6 124222. 5205.27   1
  -5  -7  -6 114528. 5029.96   1
   7   5   6 91679.2 4665.60   2
   7   5   5 88525.8 4277.79   1
   5   7   5 81632.3 4206.48   1
   7 -12   5 67576.1 4061.14   2
  -7  -5  -5 88434.1 4309.32   1
   7   5   5 66959.1 3882.56   2
  -5  -7  -5 86147.8 4315.35   1
  -7  -5  -4 6135.24 1183.47   1
   7   5   4 5107.40 1066.97   1
   5   7   4 4833.71 1045.70   1
  -5  -7  -4 4774.68 1065.79   1
   7 -12   4 2633.29 770.205   2
   7   5   4 2457.66 793.911   2
   7   5   3 663.540 437.877   1
  -7  -5  -3 2447.71 785.452   1
   5   7   3 1179.77 549.008   1
   7 -12   3 682.091 450.632   2
  -5  -7  -3 837.890 503.658   1
  -7  -5  -2 101776. 4696.65   1
  -5  -7  -2 99612.5 4645.82   1
   7   5   2 106958. 4747.39   1
   5   7   2 100374. 4692.72   1
  -7  -5  -1 18544.5 1975.73   1
  -5  -7  -1 19591.0 1930.36   1
   7   5   1 17401.3 1878.48   1
   5   7   1 17010.3 1889.36   1
  -7  -5   0 15410.0 1762.95   1
   7   5   0 17497.1 1888.04   1
   5   7   0 14950.0 1721.56   1
  -5  -7   0 14011.7 1689.94   1
  -7  -5   1 56325.0 3468.20   1
  -5  -7   1 63399.7 3679.15   1
   7   5  -1 58638.1 3495.37   1
   5   7  -1 58425.0 3509.38   1
  -7  -5   2 39641.4 2862.26   1
  -5  -7   2 44823.8 2993.80   1
   7   5  -2 40013.6 2844.34   1
   5   7  -2 39232.1 2825.05   1
  -7  -5   3 1234.41 565.581   1
  -5  -7   3 1353.70 588.912   1
   7   5  -3 1980.43 548.308   1
   5   7  -3 2052.24 814.632   1
  -5  -7   4 3974.39 1036.89   1
   7   5  -4 3534.42 869.704   1
   5   7  -4 4236.13 957.264   1
  -7  -5   5 6488.37 1187.74   1
  -5  -7   5 7431.27 1227.77   1
   7   5  -5 7282.55 1250.89   1
   5   7  -5 6921.11 1207.81   1
  -7  -5   6 185383. 6634.97   1
  -5  -7   6 181909. 6602.93   1
   7   5  -6 181043. 6512.59   1
   5   7  -6 174350. 6491.53   1
  12  -7   6 159412. 6426.11   2
  12  -5   6 153182. 6236.48   2
  -7  -5   7 44882.5 3108.72   1
  -5  -7   7 44382.4 3043.91   1
   7   5  -7 47766.3 3102.57   1
   5   7  -7 43806.5 3024.05   1
  12  -7   7 34304.1 2803.77   2
  12  -5   7 35710.0 2786.49   2
  12  -7   8 18592.9 2050.15   2
  12  -5   8 19367.3 2058.90   2
  -4  -8  -8 9158.45 1405.67   1
   4   8   8 8856.70 1390.28   1
   4   8   7 22864.3 2207.41   1
   8 -12   7 20641.1 2207.40   2
  -4  -8  -7 23649.9 2257.01   1
   8   4   6 148002. 5797.47   1
   4   8   6 130473. 5449.71   1
   8 -12   6 120842. 5517.09   2
  -8  -4  -6 143135. 5706.91   1
  -4  -8  -6 123389. 5321.56   1
   8   4   6 128185. 5319.98   2
  -8  -4  -5 2159.81 766.818   1
   8   4   5 2686.46 662.477   1
  -4  -8  -5 1287.29 660.245   1
   4   8   5 1359.42 621.734   1
   8 -12   5 1278.42 440.578   2
   8   4   5 1044.23 507.737   2
   8   4   4 38285.3 2800.01   1
   4   8   4 36890.0 2768.03   1
  -8  -4  -4 35681.1 2725.30   1
   8   4   4 33687.3 2594.12   2
  -4  -8  -4 37185.2 2785.56   1
  -4  -8  -3 37350.4 2807.15   1
   8   4   3 40912.4 2890.53   1
   4   8   3 39517.3 2889.49   1
   8 -12   3 27236.1 2488.56   2
   8   4   3 26910.6 2370.22   2
  -8  -4  -3 40230.6 2844.99   1
  -4  -8  -2 78160.5 4056.27   1
   8   4   2 86092.9 4238.78   1
   4   8   2 75651.3 4032.82   1
   8   4   2 50845.3 3366.64   2
  -8  -4  -2 83113.4 4167.12   1
  -8  -4  -1 29001.3 2451.21   1
  -4  -8  -1 30098.8 2539.79   1
   8   4   1 29703.3 2454.25   1
   4   8   1 29293.0 2466.56   1
   8   4   0-324.581 458.194   1
   4   8   0 482.254 478.065   1
  -8  -4   0-241.857 440.899   1
  -4  -8   0 537.901 606.580   1
   8   4   0 381.977 452.099   2
   8   4  -1 4447.36 992.511   1
   4   8  -1 2983.55 812.907   1
  -8  -4   1 3381.97 934.480   1
  -8  -4   2 68414.0 3793.77   1
  -4  -8   2 70759.2 3942.55   1
   8   4  -2 71234.5 3863.04   1
   4   8  -2 63809.8 3721.77   1
  -8  -4   3 33104.9 2578.75   1
  -4  -8   3 31475.5 2577.86   1
   8   4  -3 30553.6 2505.30   1
   4   8  -3 30611.9 2515.41   1
  -4  -8   4 2075.40 780.536   1
   8   4  -4 1229.96 537.074   1
   4   8  -4 2029.43 709.525   1
  -8  -4   4 1736.55 601.626   1
  -8  -4   5 49412.8 3303.69   1
  -4  -8   5 56630.7 3511.18   1
   8   4  -5 53289.8 3318.35   1
   4   8  -5 54992.2 3473.62   1
  -8  -4   6 69205.5 3914.07   1
   8   4  -6 67547.7 3760.50   1
  -4  -8   6 65827.4 3804.06   1
   4   8  -6 65928.1 3798.10   1
  12  -4   6 61732.8 3807.82   2
  -8  -4   7 22645.8 2121.53   1
   8   4  -7 21296.9 2074.53   1
  12  -8   7 18975.6 2103.82   2
  12  -4   7 17738.3 2016.67   2
  12  -8   8 47474.6 3294.26   2
  12  -4   8 44256.5 3079.53   2
   3   9   7 20.6547 398.064   1
  -3  -9  -6 8286.01 1349.51   1
   3   9   6 7525.14 1331.73   1
   9 -12   6 9220.67 1481.58   2
  -3  -9  -5 2181.25 768.235   1
   3   9   5 2603.60 763.827   1
   9 -12   5 1525.93 665.783   2
   9   3   5 2329.94 552.956   2
   9   3   4 261276. 7880.44   1
   3   9   4 213270. 7380.52   1
   9 -12   4 168021. 6837.44   2
  -9  -3  -4 245525. 7653.31   1
   9   3   4 207676. 7158.76   2
  -3  -9  -4 205746. 7223.03   1
  -9  -3  -3 5971.22 1136.53   1
   9   3   3 7516.81 1184.15   1
   3   9   3 5969.52 1118.17   1
   9 -12   3 2525.54 836.213   2
  -3  -9  -3 4576.47 1104.14   1
   9   3   3 4729.59 1024.37   2
  -9  -3  -2-224.272 427.845   1
   9   3   2 1065.97 593.548   1
   3   9   2 715.640 589.043   1
  -3  -9  -2 823.469 625.103   1
   9   3   2 197.089 405.471   2
   9   3   1 2672.10 909.739   1
  -9  -3  -1 1763.60 655.141   1
   3   9   1 2572.25 827.229   1
  -3  -9  -1 2256.81 739.130   1
   9   3   1 1584.10 532.943   2
  -3  -9   0 80772.3 4192.42   1
   9   3   0 84152.0 4201.03   1
   3   9   0 87489.9 4333.23   1
  -9  -3   0 85791.0 4298.50   1
  -3  -9   1-66.1929 325.071   1
   9   3  -1-381.386 482.046   1
   3   9  -1 804.502 453.516   1
  -9  -3   1 319.955 683.383   1
   9   3  -1 84.1208 474.031   2
  -3  -9   2 4265.30 965.538   1
   9   3  -2 4379.05 1052.51   1
   3   9  -2 3462.16 863.329   1
  -9  -3   2 5361.55 1134.13   1
  -3  -9   3 753.108 604.452   1
   9   3  -3-358.799 420.633   1
   3   9  -3 158.728 395.825   1
  -9  -3   3 778.553 607.262   1
  -9  -3   4 128610. 5530.53   1
  -3  -9   4 139469. 5723.11   1
   3   9  -4 135149. 5654.21   1
  -3  -9   5 2338.05 883.242   1
   9   3  -5 1546.18 602.261   1
   3   9  -5 1875.23 743.437   1
  12  -3   5 1428.26 654.751   2
  -9  -3   5 1320.51 817.199   1
  -9  -3   6 245.707 345.164   1
   9   3  -6 1104.31 652.039   1
  12  -3   6 172.282 366.014   2
  12  -3   7 1502.67 621.809   2
   2  10   4 6152.66 1232.11   1
  10   2   4 4393.02 1070.92   2
  -2 -10  -3 49549.7 3395.92   1
   2  10   3 48159.8 3316.36   1
  10   2   3 53636.3 3407.38   2
  -2 -10  -2 70789.6 3982.96   1
  10   2   2 72650.4 4000.24   1
   2  10   2 71230.0 4028.00   1
 -10  -2  -2 78544.0 4126.20   1
  -2 -10  -1 21608.4 2156.17   1
  10   2   1 27681.9 2400.12   1
   2  10   1 23455.6 2276.66   1
  10   2   1 19562.8 2093.41   2
 -10  -2  -1 30408.8 2549.98   1
 -10  -2   0 5816.59 1146.44   1
  10   2   0 10044.5 1430.50   1
   2  10   0 8833.65 1398.69   1
  -2 -10   0 8838.86 1360.63   1
  -2 -10   1 482.779 471.808   1
  10   2  -1 107.605 340.374   1
 -10  -2   1 757.713 481.777   1
   2  10  -1 411.226 393.812   1
 -10  -2   2 40550.1 2983.16   1
  -2 -10   2 42970.8 3115.04   1
  10   2  -2 46737.8 3088.60   1
   2  10  -2 43735.0 3142.05   1
  -2 -10   3 6651.94 1238.99   1
  10   2  -3 7568.24 1273.72   1
   2  10  -3 8912.91 1418.59   1
 -10  -2   3 7888.27 1340.07   1
 -10  -2   4 14403.9 1788.28   1
  10   2  -4 13616.9 1721.78   1
 -10  -2   5 28961.8 2581.37   1
  10   2  -5 26425.5 2377.27   1
   0   0   0    0.00    0.00   0


;
_shelx_hkl_checksum              989
loop_
_space_group_symop_operation_xyz
'x, y, z'
'-y, x-y, z'
'-x+y, -x, z'
'-y, -x, -z+1/2'
'-x+y, y, -z+1/2'
'x, x-y, -z+1/2'
'-x, -y, -z'
'y, -x+y, -z'
'x-y, x, -z'
'y, x, z-1/2'
'x-y, -y, z-1/2'
'-x, -x+y, z-1/2'
loop_
_atom_site_label
_atom_site_type_symbol
_atom_site_fract_x
_atom_site_fract_y
_atom_site_fract_z
_atom_site_U_iso_or_equiv
_atom_site_adp_type
_atom_site_occupancy
_atom_site_site_symmetry_order
_atom_site_calc_flag
_atom_site_refinement_flags_posn
_atom_site_refinement_flags_adp
_atom_site_refinement_flags_occupancy
Mn2 Mn 0.6667 0.3333 0.2500 0.00981(10) Uani 1 6 d S T P
Fe1 Fe 1.0000 0.0000 0.0000 0.00909(10) Uani 1 6 d S T P
O1 O 0.88943(13) 0.34262(13) 0.16589(7) 0.0231(2) Uani 1 1 d . . .
O2 O 1.01616(11) 0.20787(12) 0.08170(6) 0.01624(16) Uani 1 1 d . . .
C1 C 0.87825(16) 0.21158(16) 0.11777(8) 0.0168(2) Uani 1 1 d . . .
H1 H 0.7603 0.1090 0.1075 0.040(6) Uiso 1 1 calc R . .
C2 C 1.3333 0.6667 0.1612(10) 0.169(5) Uani 1 3 d S T P
N1 N 1.2785(5) 0.5569(9) 0.2500 0.114(6) Uani 0.3333 2 d S T P
loop_
_atom_site_aniso_label
_atom_site_aniso_U_11
_atom_site_aniso_U_22
_atom_site_aniso_U_33
_atom_site_aniso_U_23
_atom_site_aniso_U_13
_atom_site_aniso_U_12
Mn2 0.00848(12) 0.00848(12) 0.01246(16) 0.000 0.000 0.00424(6)
Fe1 0.00798(12) 0.00798(12) 0.01132(16) 0.000 0.000 0.00399(6)
O1 0.0188(4) 0.0172(4) 0.0317(4) -0.0072(3) 0.0068(3) 0.0078(3)
O2 0.0141(3) 0.0146(3) 0.0207(4) -0.0031(3) 0.0015(3) 0.0077(3)
C1 0.0146(4) 0.0164(4) 0.0206(4) -0.0047(3) -0.0002(3) 0.0087(4)
C2 0.0259(11) 0.0259(11) 0.454(16) 0.000 0.000 0.0130(6)
N1 0.024(3) 0.011(2) 0.303(18) 0.000 -0.054(6) 0.0054(12)
loop_
_atom_type_symbol
_atom_type_description
_atom_type_scat_dispersion_real
_atom_type_scat_dispersion_imag
_atom_type_scat_source
C C 0.0030 0.0010 'International Tables Vol C Tables 4.2.6.8 and 6.1.1.4'
H H 0.0000 0.0000 'International Tables Vol C Tables 4.2.6.8 and 6.1.1.4'
N N 0.0050 0.0030 'International Tables Vol C Tables 4.2.6.8 and 6.1.1.4'
O O 0.0090 0.0050 'International Tables Vol C Tables 4.2.6.8 and 6.1.1.4'
Fe Fe 0.3380 0.7620 'International Tables Vol C Tables 4.2.6.8 and 6.1.1.4'
Mn Mn 0.3240 0.6570 'International Tables Vol C Tables 4.2.6.8 and 6.1.1.4'
loop_
_geom_angle_atom_site_label_1
_geom_angle_atom_site_label_2
_geom_angle_atom_site_label_3
_geom_angle
_geom_angle_site_symmetry_1
_geom_angle_site_symmetry_3
O1 Mn2 O1 89.35(6) . 4_665
O1 Mn2 O1 84.19(5) . 6
O1 Mn2 O1 93.29(4) 4_665 6
O1 Mn2 O1 93.29(4) . 3_665
O1 Mn2 O1 84.19(5) 4_665 3_665
O1 Mn2 O1 176.45(5) 6 3_665
O1 Mn2 O1 93.29(4) . 2_655
O1 Mn2 O1 176.45(5) 4_665 2_655
O1 Mn2 O1 89.35(6) 6 2_655
O1 Mn2 O1 93.29(4) 3_665 2_655
O1 Mn2 O1 176.45(5) . 5_655
O1 Mn2 O1 93.29(4) 4_665 5_655
O1 Mn2 O1 93.29(4) 6 5_655
O1 Mn2 O1 89.35(6) 3_665 5_655
O1 Mn2 O1 84.19(5) 2_655 5_655
O2 Fe1 O2 180.0 . 7_755
O2 Fe1 O2 88.80(3) . 9_545
O2 Fe1 O2 91.20(3) 7_755 9_545
O2 Fe1 O2 91.20(3) . 3_765
O2 Fe1 O2 88.80(3) 7_755 3_765
O2 Fe1 O2 180.00(6) 9_545 3_765
O2 Fe1 O2 91.20(3) . 2_645
O2 Fe1 O2 88.80(3) 7_755 2_645
O2 Fe1 O2 88.80(3) 9_545 2_645
O2 Fe1 O2 91.20(3) 3_765 2_645
O2 Fe1 O2 88.80(3) . 8_665
O2 Fe1 O2 91.20(3) 7_755 8_665
O2 Fe1 O2 91.20(3) 9_545 8_665
O2 Fe1 O2 88.80(3) 3_765 8_665
O2 Fe1 O2 180.00(6) 2_645 8_665
C1 O1 Mn2 125.10(8) . .
C1 O2 Fe1 124.89(7) . .
O1 C1 O2 124.35(11) . .
N1 C2 N1 55.5(6) 2_755 .
N1 C2 N1 55.5(6) 2_755 3_775
N1 C2 N1 55.5(6) . 3_775
N1 N1 N1 59.999(1) 2_755 3_775
N1 N1 C2 62.3(3) 2_755 4_775
N1 N1 C2 62.3(3) 3_775 4_775
N1 N1 C2 62.3(3) 2_755 .
N1 N1 C2 62.3(3) 3_775 .
C2 N1 C2 115.0(7) 4_775 .
loop_
_geom_bond_atom_site_label_1
_geom_bond_atom_site_label_2
_geom_bond_distance
_geom_bond_site_symmetry_2
Mn2 O1 2.1516(9) .
Mn2 O1 2.1516(9) 4_665
Mn2 O1 2.1516(9) 6
Mn2 O1 2.1516(9) 3_665
Mn2 O1 2.1516(9) 2_655
Mn2 O1 2.1516(9) 5_655
Fe1 O2 2.0091(8) .
Fe1 O2 2.0091(8) 7_755
Fe1 O2 2.0091(8) 9_545
Fe1 O2 2.0091(8) 3_765
Fe1 O2 2.0091(8) 2_645
Fe1 O2 2.0091(8) 8_665
O1 C1 1.2376(13) .
O2 C1 1.2610(13) .
C2 N1 1.464(12) 2_755
C2 N1 1.464(12) .
C2 N1 1.464(12) 3_775
N1 N1 1.362(11) 2_755
N1 N1 1.362(11) 3_775
N1 C2 1.464(12) 4_775
