#------------------------------------------------------------------------------
#$Date: 2017-03-04 15:11:25 +0200 (Sat, 04 Mar 2017) $
#$Revision: 193426 $
#$URL: file:///home/coder/svn-repositories/cod/cif/4/34/51/4345160.cif $
#------------------------------------------------------------------------------
#
# This file is available in the Crystallography Open Database (COD),
# http://www.crystallography.net/
#
# All data on this site have been placed in the public domain by the
# contributors.
#
data_4345160
loop_
_publ_author_name
'Marinho, Maria Vanda'
'Reis, Daniella O.'
'Oliveira, Willian X. C.'
'Marques, Lippy F.'
'Stumpf, Humberto O.'
'D\'eniz, Mariadel'
'Pas\'an, Jorge'
'Ruiz-P\'erez, Catalina'
'Cano, Joan'
'Lloret, Francesc'
'Julve, Miguel'
_publ_section_title
;
 Photoluminescent and Slow Magnetic Relaxation Studies on
 Lanthanide(III)-2,5-pyrazinedicarboxylate Frameworks.
;
_journal_issue                   4
_journal_name_full               'Inorganic chemistry'
_journal_page_first              2108
_journal_page_last               2123
_journal_paper_doi               10.1021/acs.inorgchem.6b02774
_journal_volume                  56
_journal_year                    2017
_chemical_formula_sum            'C18 H24 Er2 N6 O21'
_chemical_formula_weight         994.80
_chemical_name_systematic
;
 ?
;
_space_group_crystal_system      triclinic
_space_group_IT_number           2
_space_group_name_Hall           '-P 1'
_space_group_name_H-M_alt        'P -1'
_symmetry_space_group_name_Hall  '-P 1'
_symmetry_space_group_name_H-M   'P -1'
_atom_sites_solution_hydrogens   geom
_audit_creation_method           SHELXL-2013
_cell_angle_alpha                118.990(4)
_cell_angle_beta                 90.575(3)
_cell_angle_gamma                91.670(2)
_cell_formula_units_Z            1
_cell_length_a                   6.0327(2)
_cell_length_b                   12.7752(4)
_cell_length_c                   13.1775(5)
_cell_measurement_reflns_used    13431
_cell_measurement_temperature    293(2)
_cell_measurement_theta_max      73.368
_cell_measurement_theta_min      6.724
_cell_volume                     887.61(6)
_computing_structure_refinement  'SHELXL-2013 (Sheldrick, 2013)'
_diffrn_ambient_temperature      293(2)
_diffrn_detector                 'CCD plate'
_diffrn_detector_area_resol_mean 10.5953
_diffrn_detector_type            Atlas
_diffrn_measured_fraction_theta_full 0.998
_diffrn_measured_fraction_theta_max 0.981
_diffrn_measurement_device_type  'SuperNova, Dual, Cu at zero, Atlas'
_diffrn_measurement_method       'w scans'
_diffrn_radiation_monochromator  mirror
_diffrn_radiation_type           CuK\a
_diffrn_radiation_wavelength     1.5418
_diffrn_reflns_av_R_equivalents  0.0377
_diffrn_reflns_av_unetI/netI     0.0249
_diffrn_reflns_Laue_measured_fraction_full 0.998
_diffrn_reflns_Laue_measured_fraction_max 0.981
_diffrn_reflns_limit_h_max       7
_diffrn_reflns_limit_h_min       -7
_diffrn_reflns_limit_k_max       15
_diffrn_reflns_limit_k_min       -15
_diffrn_reflns_limit_l_max       16
_diffrn_reflns_limit_l_min       -14
_diffrn_reflns_number            13431
_diffrn_reflns_point_group_measured_fraction_full 0.998
_diffrn_reflns_point_group_measured_fraction_max 0.981
_diffrn_reflns_theta_full        67.680
_diffrn_reflns_theta_max         73.368
_diffrn_reflns_theta_min         6.724
_diffrn_source                   'sealed X-ray tube'
_exptl_absorpt_coefficient_mu    9.288
_exptl_absorpt_correction_T_max  0.647
_exptl_absorpt_correction_T_min  0.301
_exptl_absorpt_correction_type   gaussian
_exptl_absorpt_process_details
;
CrysAlisPro, Agilent Technologies,
Version 1.171.35.21 (release 20-01-2012 CrysAlis171 .NET)
(compiled Jan 23 2012,18:06:46)
Numerical absorption correction based on gaussian integration over
            a multifaceted crystal model
;
_exptl_crystal_colour            yellow
_exptl_crystal_density_diffrn    1.861
_exptl_crystal_description       needle
_exptl_crystal_F_000             460
_exptl_crystal_size_max          0.180
_exptl_crystal_size_mid          0.130
_exptl_crystal_size_min          0.080
_refine_diff_density_max         1.207
_refine_diff_density_min         -0.936
_refine_diff_density_rms         0.129
_refine_ls_extinction_method     none
_refine_ls_goodness_of_fit_ref   1.112
_refine_ls_hydrogen_treatment    constr
_refine_ls_matrix_type           full
_refine_ls_number_parameters     235
_refine_ls_number_reflns         3512
_refine_ls_number_restraints     0
_refine_ls_restrained_S_all      1.112
_refine_ls_R_factor_all          0.0302
_refine_ls_R_factor_gt           0.0283
_refine_ls_shift/su_max          0.000
_refine_ls_shift/su_mean         0.000
_refine_ls_structure_factor_coef Fsqd
_refine_ls_weighting_details
'w=1/[\s^2^(Fo^2^)+(0.0463P)^2^+2.1120P] where P=(Fo^2^+2Fc^2^)/3'
_refine_ls_weighting_scheme      calc
_refine_ls_wR_factor_gt          0.0826
_refine_ls_wR_factor_ref         0.0834
_reflns_Friedel_coverage         0.000
_reflns_number_gt                3422
_reflns_number_total             3512
_reflns_threshold_expression     'I > 2\s(I)'
_cod_data_source_file            ic6b02774_si_003.cif
_cod_data_source_block           shelx
_cod_depositor_comments
'Adding full bibliography for 4345159--4345161.cif.'
_cod_database_code               4345160
_shelx_space_group_comment
;
The symmetry employed for this shelxl refinement is uniquely defined
by the following loop, which should always be used as a source of
symmetry information in preference to the above space-group names.
They are only intended as comments.
;
_shelx_estimated_absorpt_t_min   0.286
_shelx_estimated_absorpt_t_max   0.524
_shelxl_version_number           2013-4
_shelx_res_file
;
TITL ull2382 in P -1
CELL  1.54180   6.0327  12.7752  13.1775  118.990   90.575   91.670
ZERR     2.00   0.0002   0.0004   0.0005    0.004    0.003    0.002
LATT   1
SFAC  C    H    ER   N    O
UNIT  18   6    2    6    21
MERG   2
OMIT     0  -7  15
OMIT     0  -6  15
OMIT     1  -5  15
OMIT     1  -7  16
OMIT     0  -1   1
OMIT     0   1   0
OMIT     0   0   1
FMAP   2
PLAN   20
SIZE     0.080   0.130   0.180
ACTA
BOND
L.S.  30
TEMP    20.00
WGHT    0.046300    2.112000
FVAR       6.66178
ER1   3    0.276328    0.160110    0.321978    11.00000    0.01405    0.02241 =
         0.01720    0.00977   -0.00316   -0.00113
N1    4    0.414018    0.073012    0.109080    11.00000    0.01533    0.02754 =
         0.02333    0.01329   -0.00170   -0.00101
N2    4    0.076839    0.047884    0.431138    11.00000    0.02319    0.02901 =
         0.02359    0.01534   -0.00024   -0.00011
N3    4    0.430527    0.379463    0.444997    11.00000    0.02456    0.02449 =
         0.02744    0.01284   -0.00249   -0.00093
C1    1    0.761324    0.094210    0.207261    11.00000    0.01566    0.02753 =
         0.02341    0.01584   -0.00147   -0.00330
C2    1    0.624517    0.039654    0.096649    11.00000    0.01601    0.02709 =
         0.01899    0.01392   -0.00318   -0.00218
C3    1    0.290078    0.034649    0.010928    11.00000    0.01577    0.03206 =
         0.02018    0.01401   -0.00224    0.00140
AFIX  43
H3    2    0.144666    0.058529    0.015587    11.00000   -1.20000
AFIX   0
C4    1    0.401814    0.139670    0.553835    11.00000    0.02504    0.02536 =
         0.02082    0.01361   -0.00228   -0.00030
C5    1    0.187924    0.065877    0.526703    11.00000    0.02536    0.02605 =
         0.02058    0.01206   -0.00078    0.00151
C6    1   -0.110733   -0.018573    0.404453    11.00000    0.02506    0.03330 =
         0.02484    0.01797   -0.00330   -0.00253
AFIX  43
H6    2   -0.192075   -0.033696    0.338093    11.00000   -1.20000
AFIX   0
C7    1    0.249553    0.393557    0.287765    11.00000    0.04925    0.02986 =
         0.02928    0.01412   -0.01181   -0.00212
C8    1    0.384972    0.450699    0.400095    11.00000    0.02880    0.02707 =
         0.02699    0.01399   -0.00456   -0.00186
C9    1    0.544295    0.429774    0.545088    11.00000    0.03256    0.02840 =
         0.02823    0.01587   -0.00912    0.00036
AFIX  43
H9    2    0.577707    0.383407    0.579617    11.00000   -1.20000
AFIX   0
O1    5    0.663081    0.165488    0.297323    11.00000    0.01644    0.03872 =
         0.01750    0.00733   -0.00235   -0.00141
O2    5    0.960485    0.067852    0.203373    11.00000    0.01517    0.03481 =
         0.02216    0.01252   -0.00526   -0.00078
O3    5    0.449030    0.178964    0.485471    11.00000    0.02640    0.03266 =
         0.02600    0.01924   -0.00716   -0.00758
O4    5    0.519178    0.155904    0.638668    11.00000    0.03858    0.04866 =
         0.03618    0.03026   -0.01514   -0.01386
O5    5    0.191861    0.285017    0.248090    11.00000    0.04293    0.02481 =
         0.02683    0.01158   -0.01251   -0.00270
O6    5    0.202635    0.456575    0.243268    11.00000    0.11501    0.03719 =
         0.05452    0.02834   -0.04481   -0.01503
O1W   5    0.002012    0.278742    0.450215    11.00000    0.02213    0.03626 =
         0.02769    0.01192    0.00063    0.00350
O2W   5    0.369322   -0.042824    0.240166    11.00000    0.04122    0.02661 =
         0.02920    0.01554    0.00237    0.00675
O3W   5   -0.084402    0.303250    0.667000    11.00000    0.05909    0.05818 =
         0.04972    0.02716   -0.00133    0.00145
PART    1
O4WA  5    0.208274   -0.215018    0.035554    10.50000    0.32736    0.11115 =
         0.21557    0.07677   -0.11144   -0.05938
PART    2
O4WB  5    0.348463   -0.209204    0.026172    10.50000    0.35933    0.05403 =
         0.03816    0.00366    0.00739   -0.07683
PART    0
O5W   5    0.191733    0.295648    0.002512    10.25000    0.18181    0.08137 =
         0.02360    0.01432   -0.03033   -0.03106
O5WB  5    0.245035    0.370038   -0.141592    10.25000    0.16059    0.17905 =
         0.05431    0.04115   -0.04754    0.04088
HKLF    4

REM  ull2382 in P -1
REM R1 =  0.0283 for    3422 Fo > 4sig(Fo)  and  0.0302 for all    3512 data
REM    235 parameters refined using      0 restraints

END

WGHT      0.0463      2.1120

REM Highest difference peak  1.207,  deepest hole -0.936,  1-sigma level  0.129
Q1    1  -0.0375  0.3798  0.0438  11.00000  0.05    1.21
Q2    1   0.2776 -0.3621 -0.1853  11.00000  0.05    1.11
Q3    1   0.4874  0.4169  0.0520  11.00000  0.05    1.04
Q4    1  -0.0236  0.2928  0.5177  11.00000  0.05    0.77
Q5    1  -0.1338  0.2584  0.4230  11.00000  0.05    0.76
Q6    1   0.1603  0.4231 -0.1089  11.00000  0.05    0.67
Q7    1   0.3332 -0.1014  0.1724  11.00000  0.05    0.65
Q8    1   0.4057 -0.0819  0.2736  11.00000  0.05    0.64
Q9    1   0.1739  0.2589  0.4177  11.00000  0.05    0.55
Q10   1   0.4185  0.3917 -0.1396  11.00000  0.05    0.54
Q11   1   0.0831  0.1648  0.2757  11.00000  0.05    0.49
Q12   1   0.0291  0.2417  0.4609  11.00000  0.05    0.49
Q13   1   0.0611  0.3615  0.6800  11.00000  0.05    0.48
Q14   1   0.1409 -0.2432 -0.0742  11.00000  0.05    0.48
Q15   1   0.3498  0.0432  0.0576  11.00000  0.05    0.46
Q16   1   0.1790  0.2854 -0.1712  11.00000  0.05    0.46
Q17   1   0.3449  0.0344  0.2564  11.00000  0.05    0.42
Q18   1   0.2210  0.2951  0.3033  11.00000  0.05    0.42
Q19   1   0.2511  0.3546 -0.1922  11.00000  0.05    0.39
Q20   1   0.3719  0.4356 -0.1886  11.00000  0.05    0.39
;
_shelx_res_checksum              32452
_shelx_hkl_file
;
  -7  -5   2 32500.5 855.524  49
  -7  -5   3 299.412 138.009  49
  -7  -5   4 26256.6 797.282  49
  -7  -4   0 45975.1 1028.86  49
  -7  -4   1 1682.48 244.815  49
  -7  -4   2 34190.2 1044.63  49
  -7  -4   3 28529.5 958.980  49
  -7  -4   4 130.832 142.825  49
  -7  -4   5 43622.3 1034.13  49
  -7  -3  -1 794.071 185.215  49
  -7  -3   0 20178.8 821.481  49
  -7  -3   1 27292.6 1004.49  49
  -7  -3   2 1745.69 300.651  49
  -7  -3   3 33454.1 1102.50  49
  -7  -3   4 30604.1 996.833  49
  -7  -3   5 4909.47 359.067  49
  -7  -2  -2 14919.6 570.446  33
  -7  -2  -2 15933.2 681.162  49
  -7  -2  -1 20103.4 844.305  49
  -7  -2   0 67.0409 178.865  49
  -7  -2   1 46942.2 1392.50  49
  -7  -2   2 36050.9 1218.92  49
  -7  -2   3 12.2307 101.135  34
  -7  -2   3 398.339 190.853  49
  -7  -2   4 46666.8 1130.88  34
  -7  -2   4 43892.7 1170.00  49
  -7  -2   5 19920.6 721.436  34
  -7  -1  -3 33458.2 897.407  33
  -7  -1  -3 36040.4 1014.11  49
  -7  -1  -2 570.535 199.022  49
  -7  -1  -2 409.429 138.811  33
  -7  -1  -1 28380.8 1072.45  49
  -7  -1   0 32009.1 1187.96  49
  -7  -1   1 2832.15 275.947  34
  -7  -1   1 2672.21 380.884  49
  -7  -1   2 52040.8 1479.29  49
  -7  -1   2 53534.3 1262.68  34
  -7  -1   3 54511.7 1324.09  34
  -7  -1   3 53282.7 1383.07  49
  -7  -1   4 1875.58 272.976  34
  -7  -1   5 38423.1 1043.94  34
  -7   0  -4 5046.54 361.921  33
  -7   0  -4 5797.97 408.394  49
  -7   0  -3 15792.1 661.636  33
  -7   0  -3 16924.0 774.553  49
  -7   0  -2 17316.8 843.068  49
  -7   0  -2 14147.0 615.693  33
  -7   0  -1-28.5685 200.107  49
  -7   0   0 42358.8 1385.48  49
  -7   0   0 43067.5 1064.62  34
  -7   0   1 34698.5 1231.86  49
  -7   0   1 34676.9 1055.51  34
  -7   0   2 485.266 206.221  49
  -7   0   2 36.1206 153.356  34
  -7   0   3 44149.5 1125.88  49
  -7   0   3 47342.7 1288.90  34
  -7   0   4 17562.9 766.023  34
  -7   0   5 5320.89 392.984  34
  -7   1  -5 20104.4 683.116  49
  -7   1  -5 21326.9 685.295  33
  -7   1  -4 44166.2 1191.39  49
  -7   1  -4 39421.5 1022.46  33
  -7   1  -3 285.518 142.566  33
  -7   1  -3 146.044 184.271  49
  -7   1  -2 28596.9 1112.27  49
  -7   1  -1 50293.3 1155.30  34
  -7   1  -1 51792.1 1522.12  49
  -7   1   0 18.9228 130.740  34
  -7   1   0 160.356 207.045  49
  -7   1   1 30359.5 1087.77  49
  -7   1   1 33042.3 1095.95  34
  -7   1   2 25331.0 875.417  49
  -7   1   2 24690.3 962.328  34
  -7   1   3 6217.94 483.448  34
  -7   1   4 27466.8 921.383  34
  -7   2  -5 643.659 180.333  49
  -7   2  -5 498.598 146.431  33
  -7   2  -4 39206.7 1174.54  49
  -7   2  -4 36865.6 993.819  33
  -7   2  -3 31896.5 921.252  33
  -7   2  -3 35403.8 1192.41  49
  -7   2  -2 370.229 208.243  49
  -7   2  -2 95.4143 107.837  34
  -7   2  -1 55231.1 1332.50  34
  -7   2  -1 52737.2 1471.68  49
  -7   2   0 35548.9 1153.26  49
  -7   2   0 36630.4 1146.38  34
  -7   2   1 897.494 227.708  34
  -7   2   2 39286.7 1185.41  34
  -7   2   3 7163.84 493.757  34
  -7   2   4 5203.05 370.323  34
  -7   3  -5 40614.2 1102.35  49
  -7   3  -5 39147.3 955.063  33
  -7   3  -4 451.815 193.480  49
  -7   3  -4 66.8031 109.593  33
  -7   3  -3 32339.5 850.392  34
  -7   3  -3 32548.9 1118.69  49
  -7   3  -2 43853.4 1296.31  49
  -7   3  -2 43331.7 1142.66  34
  -7   3  -1 2205.26 308.454  34
  -7   3  -1 1791.56 271.401  49
  -7   3   0 52641.0 1385.91  34
  -7   3   1 27567.8 988.851  34
  -7   3   2 4537.23 401.718  34
  -7   3   3 25856.6 808.398  34
  -7   4  -5 31631.2 965.780  49
  -7   4  -4 33864.9 1043.90  49
  -7   4  -3 1119.92 224.823  49
  -7   4  -3 1264.86 208.083  34
  -7   4  -2 34284.6 1042.45  34
  -7   4  -2 33197.3 965.876  49
  -7   4  -1 28966.1 992.986  34
  -7   4   0 834.776 216.421  34
  -7   4   1 33487.8 1007.68  34
  -7   4   2 11349.4 526.804  34
  -7   5  -3 17123.8 682.023  34
  -7   5  -2 1612.53 243.435  34
  -7   5  -1 38926.0 1069.42  34
  -7   5   0 21837.7 764.067  34
  -7   6  -2 10552.6 500.344  34
  -6  -8   1 7909.23 423.639  50
  -6  -8   2 281.813 128.956  50
  -6  -8   3 41583.7 962.807  49
  -6  -8   3 42623.4 1042.82  50
  -6  -8   4 27343.6 821.974  50
  -6  -8   4 28292.6 901.711  49
  -6  -8   5 5716.51 354.545  50
  -6  -8   5 6041.01 452.686  49
  -6  -8   6 30466.9 988.552  49
  -6  -7   2 27397.7 953.937  50
  -6  -7   2 27690.0 949.451  49
  -6  -7   3 1188.73 255.634  49
  -6  -7   3 1167.76 232.227  50
  -6  -7   4 38906.4 1088.85  50
  -6  -7   4 44044.8 1351.51  49
  -6  -7   5 8629.17 624.383  49
  -6  -7   6 15504.7 810.376  49
  -6  -7   7 39257.8 1222.05  49
  -6  -7   7 34895.2 999.991  40
  -6  -7   8 6407.04 430.813  40
  -6  -6  -2 6754.10 432.091  33
  -6  -6  -1 61522.8 1388.34  33
  -6  -6   0 4359.17 373.523  49
  -6  -6   0 3483.38 366.804  33
  -6  -6   1 4769.21 429.572  33
  -6  -6   1 4181.16 429.106  49
  -6  -6   2 56044.7 1363.16  33
  -6  -6   2 58690.3 1636.04  49
  -6  -6   3 26132.6 1152.29  49
  -6  -6   3 23590.9 950.989  50
  -6  -6   4 13980.8 875.066  49
  -6  -6   4 13085.5 667.319  50
  -6  -6   5 43755.2 1512.22  49
  -6  -6   6 2728.68 411.986  49
  -6  -6   6 2188.71 280.883  34
  -6  -6   7 22976.6 1017.10  49
  -6  -6   7 23324.4 876.992  34
  -6  -6   8 48164.4 1311.50  49
  -6  -6   9 1507.10 250.708  40
  -6  -5  -4 450.790 127.431  33
  -6  -5  -3 23911.0 845.693  33
  -6  -5  -2 19231.9 842.850  33
  -6  -5  -1 19398.6 828.093  49
  -6  -5  -1 21116.4 933.972  33
  -6  -5   0 50911.2 1510.11  49
  -6  -5   0 51361.9 1475.84  33
  -6  -5   1 56953.2 1542.40  33
  -6  -5   1 58713.7 1737.06  49
  -6  -5   2 1312.96 345.719  49
  -6  -5   2 1938.76 289.447  33
  -6  -5   3 57709.8 1868.16  49
  -6  -5   4 5354.31 628.537  49
  -6  -5   5 20603.5 904.965  34
  -6  -5   5 18657.6 1068.53  49
  -6  -5   6 26013.7 1204.98  49
  -6  -5   6 25804.2 1041.69  34
  -6  -5   7 876.161 269.905  49
  -6  -5   7 583.614 221.044  34
  -6  -5   8 22770.7 909.275  49
  -6  -5   8 26054.1 998.736  34
  -6  -5   9 18005.5 762.805  34
  -6  -4  -5 51773.8 1041.00  33
  -6  -4  -4 24697.3 886.916  33
  -6  -4  -3 2831.07 369.378  33
  -6  -4  -2 84224.8 1942.75  33
  -6  -4  -2 80794.0 1761.39  49
  -6  -4  -1 36931.7 1326.16  49
  -6  -4  -1 36181.2 1314.73  33
  -6  -4   0 233.279 222.938  49
  -6  -4   0-217.349 401.989  26
  -6  -4   0 344.662 209.892  33
  -6  -4   1 87271.6 4493.47  26
  -6  -4   1 83924.7 1959.99  33
  -6  -4   1 88028.2 2313.02  49
  -6  -4   2 45888.7 3282.72  26
  -6  -4   2 50202.9 1822.39  49
  -6  -4   3 24072.4 2354.83  26
  -6  -4   3 23717.4 1293.69  49
  -6  -4   4 57142.5 1958.03  49
  -6  -4   4 57584.1 1626.71  34
  -6  -4   4 52277.1 3322.48  26
  -6  -4   5 1194.67 363.353  49
  -6  -4   5 832.343 273.709  34
  -6  -4   6 29715.7 1215.48  34
  -6  -4   6 28663.0 1277.00  49
  -6  -4   7 47030.4 1490.56  34
  -6  -4   7 46492.3 1459.36  49
  -6  -4   8 3517.33 348.500  49
  -6  -4   8 3337.71 415.996  34
  -6  -4   9 6020.44 473.047  34
  -6  -3  -6 26865.0 725.592  33
  -6  -3  -5 3607.06 358.945  33
  -6  -3  -4 34669.3 1192.21  33
  -6  -3  -3 36287.5 1321.54  33
  -6  -3  -3 36386.2 1208.21  49
  -6  -3  -3 37827.3 1360.84  52
  -6  -3  -2 4381.89 507.054  33
  -6  -3  -2 3556.99 450.239  49
  -6  -3  -1 27414.7 1209.12  33
  -6  -3  -1 29043.5 1291.35  49
  -6  -3  -1 28953.7 2599.14  26
  -6  -3   0 32955.9 1451.93  49
  -6  -3   0 29907.6 1245.82  33
  -6  -3   0 30877.3 2779.25  26
  -6  -3   1 15642.5 2019.24  26
  -6  -3   1 16192.5 882.076  33
  -6  -3   1 14977.0 1032.70  49
  -6  -3   2 96918.2 4943.76  26
  -6  -3   2 99296.5 2660.33  49
  -6  -3   2 99098.4 2058.47  34
  -6  -3   3 2757.74 504.680  49
  -6  -3   3 3129.22 417.333  34
  -6  -3   4 45201.8 1545.71  34
  -6  -3   4 42104.5 1724.21  49
  -6  -3   4 41655.7 2964.96  26
  -6  -3   5 51151.4 1809.69  49
  -6  -3   5 52615.0 1702.82  34
  -6  -3   6 6128.22 593.679  49
  -6  -3   6 5477.22 581.353  34
  -6  -3   7 16395.3 928.118  34
  -6  -3   7 15051.4 784.545  49
  -6  -3   8 23387.1 1016.12  34
  -6  -3   9 2927.96 339.310  34
  -6  -2  -6 66490.5 1444.47  52
  -6  -2  -6 63009.7 1373.06  33
  -6  -2  -5 43369.6 1325.38  33
  -6  -2  -5 43797.7 1354.39  52
  -6  -2  -4 69.0465 167.046  49
  -6  -2  -4 178.056 221.662  33
  -6  -2  -3 61372.1 1803.88  33
  -6  -2  -3 59964.1 1727.48  49
  -6  -2  -3 56633.0 1748.20  52
  -6  -2  -2 24552.7 1167.67  33
  -6  -2  -2 25328.0 1197.25  52
  -6  -2  -2 26147.7 1235.52  49
  -6  -2  -1 1602.82 366.776  49
  -6  -2  -1 808.700 248.789  52
  -6  -2  -1 1615.51 341.062  33
  -6  -2  -1 1582.96 656.802  26
  -6  -2   0 79722.3 2333.55  49
  -6  -2   0 77120.8 4573.48  26
  -6  -2   0 77090.5 2002.62  33
  -6  -2   1 21022.9 970.437  34
  -6  -2   1 17740.4 2218.91  26
  -6  -2   1 20674.7 1236.72  49
  -6  -2   2 52060.4 1959.46  49
  -6  -2   2 54486.4 1668.07  34
  -6  -2   2 50868.3 3620.02  26
  -6  -2   3 67301.5 1928.61  34
  -6  -2   3 62657.7 2136.85  49
  -6  -2   3 59798.5 3690.29  26
  -6  -2   4 2137.62 399.155  34
  -6  -2   4 2675.05 468.122  49
  -6  -2   5 27170.5 1277.56  34
  -6  -2   5 24738.7 1224.13  49
  -6  -2   6 58223.3 1655.75  49
  -6  -2   6 60623.6 1865.97  34
  -6  -2   7 8971.55 702.101  34
  -6  -2   8 6508.29 541.442  34
  -6  -2   9 17553.3 721.057  34
  -6  -1  -7 36659.7 1021.00  52
  -6  -1  -7 33410.5 933.512  33
  -6  -1  -6 10976.1 653.169  33
  -6  -1  -6 9720.60 646.984  52
  -6  -1  -5 77076.1 1738.49  49
  -6  -1  -5 75676.7 1917.10  52
  -6  -1  -4 53199.6 1696.37  52
  -6  -1  -4 57552.8 1683.54  49
  -6  -1  -4 57153.1 1749.91  33
  -6  -1  -3 7250.10 677.589  49
  -6  -1  -3 8045.71 700.215  33
  -6  -1  -3 7346.95 703.115  52
  -6  -1  -2 53424.5 1743.17  52
  -6  -1  -2 57843.7 1926.17  49
  -6  -1  -2 57577.9 1806.09  33
  -6  -1  -1 40941.8 1495.46  52
  -6  -1  -1 45332.0 1766.99  49
  -6  -1  -1 41661.7 1524.72  33
  -6  -1   0 13112.6 1003.91  49
  -6  -1   0 14017.1 855.942  33
  -6  -1   0 15370.1 842.946  34
  -6  -1   0 13813.9 2019.84  26
  -6  -1   1 100646. 2293.24  34
  -6  -1   1 99776.0 2723.60  49
  -6  -1   1 94278.6 5035.94  26
  -6  -1   2 4694.37 538.902  34
  -6  -1   2 3751.88 969.418  26
  -6  -1   2 4526.54 609.875  49
  -6  -1   3 25129.3 1334.33  49
  -6  -1   3 28622.6 1316.42  34
  -6  -1   4 46706.3 1710.96  49
  -6  -1   4 50389.0 1767.61  34
  -6  -1   5 4191.02 490.032  49
  -6  -1   5 3642.16 526.406  34
  -6  -1   6 33038.4 1378.54  34
  -6  -1   7 44459.8 1466.88  34
  -6  -1   8 1628.51 288.388  34
  -6  -1   9 17827.8 626.652  34
  -6   0  -8 549.851 132.047  33
  -6   0  -8 473.882 146.241  52
  -6   0  -7 72913.4 1561.15  33
  -6   0  -7 67524.9 1551.79  52
  -6   0  -6 42459.8 1250.42  49
  -6   0  -6 45318.8 1456.55  52
  -6   0  -6 44028.2 1387.85  33
  -6   0  -5 2370.88 399.962  33
  -6   0  -5 1568.84 327.117  49
  -6   0  -4 75232.9 2039.73  52
  -6   0  -4 82599.7 2167.68  49
  -6   0  -3 22231.8 1158.20  52
  -6   0  -3 21771.2 1193.82  49
  -6   0  -2 8702.89 715.766  52
  -6   0  -2 9726.45 857.393  49
  -6   0  -1 100564. 2158.58  34
  -6   0  -1 98241.1 2664.87  49
  -6   0   0 40843.3 1749.46  49
  -6   0   0 38862.5 1440.39  34
  -6   0   1 25032.1 1373.81  49
  -6   0   1 25835.4 2547.48  26
  -6   0   1 27585.5 1265.46  34
  -6   0   2 58813.1 1905.09  34
  -6   0   2 54704.8 1956.09  49
  -6   0   3 10324.8 833.195  34
  -6   0   3 9688.09 793.280  49
  -6   0   4 16997.6 966.414  49
  -6   0   4 18868.1 1112.14  34
  -6   0   5 41171.1 1584.82  34
  -6   0   5 41525.9 1287.91  46
  -6   0   6 126.216 207.618  34
  -6   0   6 29.0033 149.655  46
  -6   0   7 57915.9 1430.24  46
  -6   0   7 61047.9 1600.21  34
  -6   0   8 50394.1 1203.32  34
  -6   1  -8 38759.1 1028.87  33
  -6   1  -8 38607.8 1085.67  52
  -6   1  -7 2005.45 284.366  49
  -6   1  -7 2961.26 377.675  33
  -6   1  -6 55617.2 1644.05  52
  -6   1  -6 54229.7 1551.09  49
  -6   1  -5 51010.3 1670.61  52
  -6   1  -5 48284.2 1626.25  49
  -6   1  -4 4463.13 576.069  49
  -6   1  -4 11042.4 893.757  52
  -6   1  -3 60644.4 2036.97  49
  -6   1  -3 59899.1 1815.21  52
  -6   1  -2 28296.0 1158.28  34
  -6   1  -2 28662.4 1451.26  49
  -6   1  -1 19876.6 1042.84  34
  -6   1  -1 17881.3 1168.76  49
  -6   1   0 95591.5 2655.15  49
  -6   1   0 96187.1 2360.78  34
  -6   1   1 2850.67 457.756  34
  -6   1   1 4318.59 572.010  49
  -6   1   2 20463.5 1132.41  49
  -6   1   2 23546.2 1246.98  34
  -6   1   3 44647.1 1537.58  49
  -6   1   3 47665.6 1772.05  34
  -6   1   4 2838.78 482.010  34
  -6   1   4 3179.74 389.230  46
  -6   1   5 25371.1 1195.53  34
  -6   1   5 24020.2 1012.64  46
  -6   1   6 34191.3 1250.80  34
  -6   1   6 33590.3 1153.65  46
  -6   1   7 188.583 148.691  46
  -6   1   7 383.039 175.007  34
  -6   2  -9 1445.13 223.747  52
  -6   2  -8 52915.3 1341.87  52
  -6   2  -8 50137.0 1160.44  49
  -6   2  -8 54407.5 1328.36  33
  -6   2  -7 33653.5 1152.88  49
  -6   2  -7 41785.2 1373.26  52
  -6   2  -6 14148.8 904.430  52
  -6   2  -6 449.316 281.971  49
  -6   2  -5 75680.7 2008.91  52
  -6   2  -5 74994.2 2122.04  49
  -6   2  -4 42114.3 1690.31  49
  -6   2  -4 48169.8 1618.33  52
  -6   2  -3 8229.69 798.524  49
  -6   2  -3 9669.92 684.778  34
  -6   2  -2 103023. 2740.10  49
  -6   2  -2 108889. 2417.95  34
  -6   2  -1 25924.4 1235.21  34
  -6   2  -1 25726.7 1372.56  49
  -6   2   0 70932.9 2113.44  34
  -6   2   0 65921.1 2113.13  49
  -6   2   1 82458.4 2244.59  49
  -6   2   1 87770.9 2386.28  34
  -6   2   2 8670.43 780.433  34
  -6   2   2 9755.57 723.137  49
  -6   2   3 21449.5 1181.68  34
  -6   2   3 19751.1 926.016  46
  -6   2   4 39409.7 1321.64  46
  -6   2   4 38311.2 1473.17  34
  -6   2   5 5295.99 488.880  46
  -6   2   5 4922.59 504.956  34
  -6   2   6 13784.2 709.742  34
  -6   2   6 13805.3 720.382  46
  -6   2   7 13244.9 530.508  34
  -6   2   7 14779.8 648.410  46
  -6   3  -9 28579.1 827.167  33
  -6   3  -9 28272.1 863.974  52
  -6   3  -8 10907.8 710.340  52
  -6   3  -8 1686.17 262.091  49
  -6   3  -7 65054.7 1693.62  52
  -6   3  -7 54907.5 1576.18  49
  -6   3  -6 65967.8 1898.33  49
  -6   3  -6 74161.7 1878.89  52
  -6   3  -5 1285.60 535.295  49
  -6   3  -5 12734.2 905.872  52
  -6   3  -4 52857.7 1577.29  34
  -6   3  -4 50022.9 1867.06  49
  -6   3  -3 11454.7 936.720  49
  -6   3  -3 11520.4 796.571  34
  -6   3  -2 54134.0 1948.86  49
  -6   3  -2 62633.9 1918.00  34
  -6   3  -1 166670. 3243.50  34
  -6   3  -1 161521. 3236.46  49
  -6   3   0 3857.41 542.577  34
  -6   3   0 5108.61 564.849  49
  -6   3   1 34143.2 1300.33  49
  -6   3   1 37356.6 1572.65  34
  -6   3   2 51726.0 1801.63  34
  -6   3   2 51718.6 1493.28  46
  -6   3   3 1142.10 325.364  34
  -6   3   3 1419.73 294.183  46
  -6   3   4 20591.3 995.774  34
  -6   3   4 19619.2 933.464  46
  -6   3   5 29759.9 1043.09  34
  -6   3   5 29218.8 1063.24  46
  -6   3   6 313.580 128.091  34
  -6   3   6 272.849 154.804  46
  -6   3   7 23037.2 684.310  46
  -6   4  -9 44951.9 1102.37  52
  -6   4  -9 41428.1 1032.87  49
  -6   4  -8 42317.0 1264.79  49
  -6   4  -8 48927.6 1317.16  52
  -6   4  -7 16370.9 904.933  52
  -6   4  -7 1447.62 424.953  49
  -6   4  -6 85805.7 1945.48  52
  -6   4  -6 80839.0 2190.86  49
  -6   4  -5 90667.1 2009.70  34
  -6   4  -5 93631.9 2433.62  49
  -6   4  -4 1612.72 514.934  49
  -6   4  -4 388.966 233.695  34
  -6   4  -3 47808.8 1670.71  34
  -6   4  -3 44849.7 1736.22  49
  -6   4  -2 9924.72 810.867  34
  -6   4  -2 9725.08 795.127  49
  -6   4  -1 60755.2 1991.81  34
  -6   4  -1 56044.9 1772.66  49
  -6   4   0 64636.7 2043.02  34
  -6   4   1 6240.36 658.328  34
  -6   4   1 6900.70 558.565  46
  -6   4   2 24106.7 1156.89  34
  -6   4   2 22502.6 1011.47  46
  -6   4   3 34287.3 1223.11  46
  -6   4   3 35361.9 1280.03  34
  -6   4   4 1297.62 281.653  46
  -6   4   4 959.368 224.799  34
  -6   4   5 30140.6 842.483  34
  -6   4   5 32213.8 1016.01  46
  -6   4   6 20351.9 671.758  46
  -6   5  -9 9683.86 519.739  52
  -6   5  -9 2652.35 304.734  49
  -6   5  -8 56809.0 1359.65  52
  -6   5  -8 57441.8 1504.91  49
  -6   5  -7 44032.7 1290.32  52
  -6   5  -7 38070.4 1365.75  49
  -6   5  -6 10016.2 873.751  49
  -6   5  -6 6688.89 528.920  34
  -6   5  -5 82728.3 2261.82  49
  -6   5  -5 82086.0 2000.52  34
  -6   5  -4 24562.2 1184.07  34
  -6   5  -4 25419.9 1271.32  49
  -6   5  -3 13719.0 907.129  49
  -6   5  -3 15207.8 983.827  34
  -6   5  -2 77379.3 1989.74  49
  -6   5  -2 80143.1 2241.04  34
  -6   5  -1 5339.59 627.089  34
  -6   5   0 16802.1 837.946  46
  -6   5   0 18025.7 1037.61  34
  -6   5   1 49576.0 1470.15  46
  -6   5   1 53131.3 1658.27  34
  -6   5   2 2256.11 352.542  34
  -6   5   2 2341.70 343.410  46
  -6   5   3 26076.1 947.073  34
  -6   5   3 26879.1 1015.89  46
  -6   5   4 43498.4 1171.05  46
  -6   5   5 492.816 136.101  46
  -6   6  -9 36988.8 1041.97  49
  -6   6  -8 2994.28 445.210  49
  -6   6  -7 38049.2 1112.91  34
  -6   6  -7 40718.3 1428.93  49
  -6   6  -6 11751.6 853.356  49
  -6   6  -5 43211.8 1513.33  49
  -6   6  -4 78792.1 1981.81  49
  -6   6  -4 80493.4 2133.68  34
  -6   6  -3 18738.1 1071.61  34
  -6   6  -3 17918.6 901.222  49
  -6   6  -2 26484.9 1240.95  34
  -6   6  -1 53815.6 1704.37  34
  -6   6  -1 50580.6 1381.84  46
  -6   6   0 18139.1 939.876  34
  -6   6   0 17861.4 856.134  46
  -6   6   1 10201.9 647.911  46
  -6   6   1 11044.5 676.402  34
  -6   6   2 19196.9 775.400  34
  -6   6   2 20731.2 866.862  46
  -6   6   3-3.94857 153.364  46
  -6   6   4 46518.2 989.478  46
  -6   7  -9 32910.1 942.228  49
  -6   7  -8 21451.6 690.789  34
  -6   7  -8 24205.1 947.659  49
  -6   7  -7 10594.3 704.616  49
  -6   7  -7 8397.36 560.650  34
  -6   7  -6 87714.4 1929.95  49
  -6   7  -5 19388.1 898.523  49
  -6   7  -4 16372.1 936.303  34
  -6   7  -4 13562.1 703.057  49
  -6   7  -3 71636.1 1900.41  34
  -6   7  -2 4813.84 513.812  34
  -6   7  -2 4502.56 396.528  46
  -6   7  -1 17391.3 864.012  34
  -6   7  -1 15795.2 756.541  46
  -6   7   0 43440.3 1229.48  46
  -6   7   0 41994.6 1210.12  34
  -6   7   1 652.649 163.861  34
  -6   7   1 708.676 192.902  46
  -6   7   2 19393.6 712.381  46
  -6   8  -8 39139.9 1018.54  49
  -6   8  -8 38164.8 924.870  34
  -6   8  -7 38262.0 1114.95  34
  -6   8  -7 35838.2 1034.40  49
  -6   8  -6 7671.27 568.231  34
  -6   8  -6 5870.79 432.584  49
  -6   8  -5 61479.6 1608.38  34
  -6   8  -4 22388.3 977.244  34
  -6   8  -3 18533.7 859.557  34
  -6   8  -2 34059.8 1088.40  34
  -6   8  -2 32750.3 959.265  46
  -6   8  -1 2098.48 267.925  46
  -6   8  -1 1760.90 251.484  34
  -6   8   0 27634.6 840.582  46
  -6   8   0 27004.2 743.056  34
  -6   8   1 24878.5 720.759  46
  -6   9  -7 49199.0 1127.39  34
  -6   9  -6 12447.9 626.882  34
  -6   9  -5 13216.9 662.815  34
  -6   9  -4 52400.6 1252.48  34
  -6   9  -3 2112.45 259.794  34
  -6   9  -2 19066.5 628.089  34
  -5 -11   3 9353.25 420.242  50
  -5 -11   4 8305.14 434.257  50
  -5 -11   5 19681.6 683.365  50
  -5 -11   6 174.719 112.285  50
  -5 -11   7 28637.7 784.678  50
  -5 -10   1 25881.1 747.593  50
  -5 -10   2 8229.49 484.629  50
  -5 -10   3 39847.2 1119.88  50
  -5 -10   4 2152.71 304.424  50
  -5 -10   5 35017.1 1105.58  50
  -5 -10   6 48938.8 1281.57  50
  -5 -10   7 6.60356 117.636  50
  -5 -10   8 15435.0 618.830  50
  -5  -9  -1 22935.5 681.712  50
  -5  -9  -1 20473.2 549.451  29
  -5  -9   0 1447.65 232.658  50
  -5  -9   1 69368.2 1550.91  50
  -5  -9   2 14150.2 763.389  50
  -5  -9   3 33055.2 1197.07  50
  -5  -9   4 72428.4 1700.60  49
  -5  -9   4 75214.3 1819.99  50
  -5  -9   5 1885.39 329.622  49
  -5  -9   5 1600.12 312.521  50
  -5  -9   6 63334.8 1619.26  50
  -5  -9   6 68253.5 1803.58  49
  -5  -9   7 47816.8 1326.16  50
  -5  -9   7 53506.4 1600.75  49
  -5  -9   8 2129.03 267.614  50
  -5  -9   8 1921.49 276.304  40
  -5  -9   9 14739.2 714.936  40
  -5  -9  10 23920.1 865.247  40
  -5  -9  11 5373.51 375.085  40
  -5  -8  -2 1838.96 214.034  29
  -5  -8  -1 35707.3 942.800  29
  -5  -8   0 34856.6 974.028  29
  -5  -8   2 68871.7 1660.07  49
  -5  -8   3 5195.45 523.463  49
  -5  -8   3 3060.55 793.487  26
  -5  -8   4 47973.2 3179.37  26
  -5  -8   4 45084.1 1559.93  49
  -5  -8   4 44223.9 1518.09  50
  -5  -8   5 52778.4 1628.14  50
  -5  -8   5 55384.6 3460.11  26
  -5  -8   5 56391.3 1809.59  49
  -5  -8   6 940.935 326.239  49
  -5  -8   6 1600.78 708.467  26
  -5  -8   6 974.955 264.314  50
  -5  -8   7 40526.5 1576.19  49
  -5  -8   7 37220.2 1226.01  50
  -5  -8   8 30305.8 1321.50  49
  -5  -8   9 738.519 257.804  40
  -5  -8  10 79873.9 1806.61  40
  -5  -8  11 17306.2 765.240  40
  -5  -7  -4 2564.00 235.424  29
  -5  -7  -3 37393.4 985.263  29
  -5  -7  -2 25816.4 1036.58  33
  -5  -7  -2 23635.3 852.275  29
  -5  -7  -1 2663.35 399.392  33
  -5  -7  -1 2090.18 292.607  29
  -5  -7   0 100335. 2272.52  33
  -5  -7   0 94075.1 1779.16  29
  -5  -7   1 16687.0 883.180  49
  -5  -7   1 13696.0 1690.53  26
  -5  -7   1 16270.5 939.795  33
  -5  -7   2 28601.9 1227.32  33
  -5  -7   2 27293.6 1231.50  49
  -5  -7   2 29903.4 2612.40  26
  -5  -7   3 71223.5 4128.39  26
  -5  -7   3 75382.3 2132.54  49
  -5  -7   3 71781.2 1900.65  33
  -5  -7   4 3481.40 972.657  26
  -5  -7   4 5470.25 622.756  49
  -5  -7   5 40003.9 1461.27  50
  -5  -7   5 42058.1 1697.84  49
  -5  -7   6 47196.7 1470.54  34
  -5  -7   6 49602.3 1866.72  49
  -5  -7   6 46639.4 3393.50  26
  -5  -7   6 46055.7 1495.90  50
  -5  -7   7 2591.89 830.735  26
  -5  -7   7 2136.47 365.145  34
  -5  -7   7 2731.37 502.084  49
  -5  -7   8 28133.2 1201.55  34
  -5  -7   8 27134.8 1332.28  49
  -5  -7   9 45517.0 1494.92  34
  -5  -7   9 49758.3 1654.89  49
  -5  -7  10 17819.9 950.072  40
  -5  -7  11 51688.2 1431.85  40
  -5  -7  12 18192.6 693.257  40
  -5  -6  -5 66028.7 1207.72  29
  -5  -6  -4 26168.9 878.792  29
  -5  -6  -4 27545.2 967.641  33
  -5  -6  -3 7618.10 526.947  29
  -5  -6  -3 8098.47 617.813  33
  -5  -6  -2 52721.5 1660.03  33
  -5  -6  -2 49465.5 1368.13  29
  -5  -6  -1 11981.3 843.460  33
  -5  -6  -1 11245.3 1491.17  26
  -5  -6  -1 10564.9 649.788  29
  -5  -6   0 94047.5 2346.45  33
  -5  -6   0 95317.8 4639.46  26
  -5  -6   0 89116.4 2122.92  49
  -5  -6   1 109208. 2534.95  49
  -5  -6   1 109905. 2529.23  33
  -5  -6   1 110302. 5226.83  26
  -5  -6   2 5445.79 620.377  49
  -5  -6   2 4035.72 493.082  33
  -5  -6   2 4864.51 1202.61  26
  -5  -6   3 49722.8 1864.26  49
  -5  -6   3 51128.7 1635.61  33
  -5  -6   3 52491.3 3762.91  26
  -5  -6   4 81481.7 4689.83  26
  -5  -6   4 83475.6 2471.40  49
  -5  -6   5 3348.21 436.900  50
  -5  -6   5 3115.28 408.339  34
  -5  -6   5 2703.51 954.327  26
  -5  -6   5 3690.93 575.890  49
  -5  -6   6 33460.8 1611.51  49
  -5  -6   6 32790.3 1361.39  34
  -5  -6   6 33415.2 2951.23  26
  -5  -6   7 51384.7 1946.65  49
  -5  -6   7 48464.1 3376.47  26
  -5  -6   7 52383.7 1751.41  34
  -5  -6   8 508.614 283.805  34
  -5  -6   8 705.909 326.845  49
  -5  -6   9 105411. 2430.77  34
  -5  -6   9 101945. 2385.38  49
  -5  -6  10 14386.7 862.350  34
  -5  -6  11 9169.34 642.364  40
  -5  -6  12 33179.3 939.315  40
  -5  -5  -6 54250.5 1124.42  29
  -5  -5  -6 51185.4 1010.95  33
  -5  -5  -5 343.187 161.712  33
  -5  -5  -5 247.241 170.756  29
  -5  -5  -4 40158.1 1354.41  33
  -5  -5  -4 39548.6 1217.74  29
  -5  -5  -3 23532.3 997.626  29
  -5  -5  -3 23837.7 1158.75  33
  -5  -5  -2 12166.0 877.477  52
  -5  -5  -2 14980.9 1797.69  26
  -5  -5  -2 14133.9 787.238  29
  -5  -5  -2 13708.2 922.162  33
  -5  -5  -1 171671. 6404.39  26
  -5  -5  -1 169322. 3244.66  33
  -5  -5  -1 171984. 2996.81  49
  -5  -5  -1 164534. 2598.04  29
  -5  -5   0 9338.90 778.975  33
  -5  -5   0 10734.1 813.889  49
  -5  -5   0 8249.86 1521.10  26
  -5  -5   1 57644.7 1950.34  49
  -5  -5   1 58382.6 1878.76  33
  -5  -5   1 63174.2 4155.86  26
  -5  -5   2 95103.6 2575.56  49
  -5  -5   2 90688.3 2277.44  33
  -5  -5   2 93764.8 5151.15  26
  -5  -5   3 5654.50 683.994  49
  -5  -5   3 4415.08 1167.74  26
  -5  -5   3 4061.35 472.590  33
  -5  -5   4 46018.8 1888.60  49
  -5  -5   4 48840.8 1593.65  34
  -5  -5   4 46682.6 3656.73  26
  -5  -5   5 58624.5 1850.43  34
  -5  -5   5 56634.3 3946.46  26
  -5  -5   5 58221.7 2152.08  49
  -5  -5   6 878.758 321.761  49
  -5  -5   6 588.186 258.061  34
  -5  -5   6 580.681 533.910  26
  -5  -5   7 53815.4 1872.45  34
  -5  -5   7 49395.8 1926.44  49
  -5  -5   7 48026.4 3269.23  26
  -5  -5   8 71231.1 2155.91  34
  -5  -5   8 73213.8 2189.64  49
  -5  -5   9 21236.5 1060.42  49
  -5  -5   9 22955.2 1203.18  34
  -5  -5  10 49155.8 1612.49  34
  -5  -5  11 9551.53 652.844  40
  -5  -4  -7 6189.39 393.958  29
  -5  -4  -7 4707.33 290.620  33
  -5  -4  -6 65518.0 1465.28  33
  -5  -4  -6 68689.3 1489.94  29
  -5  -4  -5 39035.0 1264.11  29
  -5  -4  -5 38680.9 1341.68  52
  -5  -4  -4 3022.45 451.005  33
  -5  -4  -4 3092.79 468.442  52
  -5  -4  -3 81476.7 2249.45  52
  -5  -4  -3 77202.4 4108.85  26
  -5  -4  -3 79243.6 2208.39  33
  -5  -4  -3 75707.0 1869.32  29
  -5  -4  -2 94336.8 2047.55  29
  -5  -4  -2 99265.1 2513.04  33
  -5  -4  -2 99094.0 2300.27  49
  -5  -4  -2 96997.7 4924.19  26
  -5  -4  -2 99390.8 2549.43  52
  -5  -4  -1 40825.9 1616.89  33
  -5  -4  -1 40074.3 1555.36  49
  -5  -4  -1 37937.1 1603.41  52
  -5  -4  -1 42809.9 3421.38  26
  -5  -4   0 126076. 2863.61  49
  -5  -4   0 119805. 2730.94  33
  -5  -4   0 128075. 6029.25  26
  -5  -4   0 123267. 2873.56  52
  -5  -4   1 9201.63 1689.74  26
  -5  -4   1 9790.74 774.493  33
  -5  -4   1 11058.8 892.701  49
  -5  -4   2 58757.5 2072.90  49
  -5  -4   2 58632.2 1806.28  33
  -5  -4   3 84481.3 4981.00  26
  -5  -4   3 91904.4 2178.42  34
  -5  -4   3 87836.6 2588.13  49
  -5  -4   4 1878.72 438.891  49
  -5  -4   4 2309.91 859.974  26
  -5  -4   4 1752.98 339.468  34
  -5  -4   5 104109. 2871.60  49
  -5  -4   5 105389. 5373.79  26
  -5  -4   5 110616. 2650.23  34
  -5  -4   6 102475. 2621.76  34
  -5  -4   6 96499.4 4827.97  26
  -5  -4   6 101716. 2812.06  49
  -5  -4   7 2300.68 450.691  34
  -5  -4   7 3564.08 541.430  49
  -5  -4   8 84283.7 2259.99  49
  -5  -4   8 87743.1 2466.20  34
  -5  -4   9 7915.42 611.135  49
  -5  -4   9 6087.35 671.137  34
  -5  -4  10 14556.0 888.910  34
  -5  -4  11 39647.5 1233.86  40
  -5  -3  -8 49535.9 1047.70  29
  -5  -3  -7 26689.7 895.247  33
  -5  -3  -7 28366.7 972.837  52
  -5  -3  -6 4944.28 516.262  52
  -5  -3  -6 5166.14 497.717  33
  -5  -3  -5 59589.5 1846.91  52
  -5  -3  -5 59859.4 1797.04  33
  -5  -3  -4 40346.4 1576.04  33
  -5  -3  -4 41807.7 1634.50  52
  -5  -3  -3 1072.81 279.007  49
  -5  -3  -3 1215.59 349.609  33
  -5  -3  -2 168330. 3181.12  49
  -5  -3  -2 173991. 3328.64  33
  -5  -3  -1 20002.2 1130.01  33
  -5  -3  -1 21892.7 1197.83  49
  -5  -3  -1 21049.8 1205.52  52
  -5  -3   0 61150.1 2045.90  49
  -5  -3   0 59957.3 1909.72  33
  -5  -3   1 131369. 3059.02  49
  -5  -3   1 127376. 2698.79  33
  -5  -3   1 125914. 2816.97  52
  -5  -3   2 6243.70 710.221  49
  -5  -3   2 5875.15 552.235  34
  -5  -3   2 5045.09 1303.99  26
  -5  -3   3 76426.4 2427.10  49
  -5  -3   3 72074.9 4604.86  26
  -5  -3   3 76839.7 2089.78  34
  -5  -3   4 66838.2 4325.84  26
  -5  -3   4 68039.7 2064.02  34
  -5  -3   4 70772.4 2353.18  49
  -5  -3   5 3440.99 502.975  34
  -5  -3   5 2518.71 481.172  49
  -5  -3   5 4254.14 1108.90  26
  -5  -3   6 112633. 2820.01  34
  -5  -3   6 106655. 2802.35  49
  -5  -3   6 110538. 2298.14  46
  -5  -3   7 137003. 3143.42  34
  -5  -3   7 142044. 3032.58  49
  -5  -3   8 3709.66 559.106  34
  -5  -3   8 3593.28 456.864  49
  -5  -3   9 26366.9 1282.09  34
  -5  -3  10 11269.2 757.501  34
  -5  -3  11 3168.78 319.193  40
  -5  -2  -9 26104.0 717.442  29
  -5  -2  -8 1414.76 242.470  52
  -5  -2  -8 1878.50 232.389  33
  -5  -2  -7 48758.6 1411.71  33
  -5  -2  -7 52508.9 1529.34  52
  -5  -2  -6 44162.3 1586.62  52
  -5  -2  -6 38606.4 1418.36  33
  -5  -2  -5 1291.34 264.662  49
  -5  -2  -5 1464.25 349.887  33
  -5  -2  -4 55608.8 1745.35  49
  -5  -2  -4 64870.1 2099.38  52
  -5  -2  -3 57554.9 2033.12  52
  -5  -2  -3 53564.8 1794.13  49
  -5  -2  -2 115243. 2774.44  52
  -5  -2  -2 124144. 2812.57  49
  -5  -2  -1 172655. 3360.15  52
  -5  -2  -1 195060. 3600.64  49
  -5  -2   0 14679.1 988.089  52
  -5  -2   0 15622.8 1056.34  49
  -5  -2   1 76033.5 1928.88  34
  -5  -2   1 70149.6 2254.28  49
  -5  -2   1 63809.1 1936.55  52
  -5  -2   1 82784.2 4619.09   4
  -5  -2   2 98553.8 5374.89  26
  -5  -2   2 95689.5 2297.78  34
  -5  -2   2 97070.2 2678.39  49
  -5  -2   3 321.517 203.205  34
  -5  -2   3 196.397 228.937  49
  -5  -2   3-45.0753 420.936  26
  -5  -2   4 78138.4 4468.55  26
  -5  -2   4 75937.3 2411.79  49
  -5  -2   4 81661.2 2311.85  34
  -5  -2   5 50992.4 1547.17  46
  -5  -2   5 46354.3 1808.11  34
  -5  -2   5 48103.6 1885.88  49
  -5  -2   6 4554.12 622.382  34
  -5  -2   6 4136.47 485.365  46
  -5  -2   6 3866.57 526.548  49
  -5  -2   7 173946. 3077.52  46
  -5  -2   7 168941. 3472.95  34
  -5  -2   8 30195.0 1432.73  34
  -5  -2   8 31282.0 1319.62  46
  -5  -2   9 4515.58 529.216  34
  -5  -2  10 38148.1 1252.07  34
  -5  -1  -9 35778.2 984.110  52
  -5  -1  -8 35462.2 1120.78  33
  -5  -1  -8 38836.9 1276.00  52
  -5  -1  -7 10792.4 937.115  52
  -5  -1  -7 2074.86 363.799  33
  -5  -1  -6 68004.2 1734.34  49
  -5  -1  -6 87991.6 2329.19  52
  -5  -1  -5 41392.0 1512.72  49
  -5  -1  -5 58919.1 2082.51  52
  -5  -1  -4 26704.3 1484.19  52
  -5  -1  -4 5717.35 565.685  49
  -5  -1  -3 248030. 3970.02  49
  -5  -1  -3 242426. 3961.31  52
  -5  -1  -2 14484.9 948.213  49
  -5  -1  -2 25684.9 1367.99  52
  -5  -1  -1 77344.4 2198.22  52
  -5  -1  -1 75170.0 2265.36  49
  -5  -1   0 153962. 3299.81  49
  -5  -1   0 157874. 2760.17  34
  -5  -1   1 29466.9 1470.67  49
  -5  -1   1 26561.1 2582.93   4
  -5  -1   1 27020.9 1215.04  34
  -5  -1   2 40920.1 3185.04   4
  -5  -1   2 35787.4 1622.16  49
  -5  -1   2 37957.9 1499.16  34
  -5  -1   3 78091.2 2396.30  49
  -5  -1   3 75611.3 4402.09  26
  -5  -1   3 77961.4 2235.09  34
  -5  -1   4 230.369 194.981  34
  -5  -1   4 341.694 219.424  49
  -5  -1   4 800.085 230.167  46
  -5  -1   5 64160.6 1836.77  46
  -5  -1   5 64261.5 2145.04  34
  -5  -1   5 60708.5 2010.76  49
  -5  -1   6 68441.9 1959.08  46
  -5  -1   6 65093.4 2169.79  34
  -5  -1   7 40473.5 1684.75  34
  -5  -1   7 38754.6 1501.32  46
  -5  -1   8 61650.9 1946.08  34
  -5  -1   8 62318.5 1872.90  46
  -5  -1   9 10126.8 728.802  46
  -5  -1   9 9030.01 675.257  34
  -5  -1  10 11277.6 603.057  34
  -5   0 -10 28773.7 775.663  52
  -5   0  -9 282.249 133.339  33
  -5   0  -9 4458.82 472.781  52
  -5   0  -8 74193.9 1784.20  33
  -5   0  -8 86461.4 2046.53  52
  -5   0  -7 57883.7 1573.54  49
  -5   0  -6 5293.21 542.762  49
  -5   0  -5 72870.8 2090.75  49
  -5   0  -4 25962.9 1285.05  49
  -5   0  -3 178617. 3435.00  49
  -5   0  -2 202742. 3682.64  49
  -5   0  -2 204065. 6767.59   4
  -5   0  -2 196255. 3475.26  52
  -5   0  -1 19606.2 1167.59  49
  -5   0  -1 20404.4 2188.35   4
  -5   0  -1 19945.8 996.388  34
  -5   0   0 34913.5 1379.90  34
  -5   0   0 31797.6 1518.09  49
  -5   0   0 37588.7 2984.00   4
  -5   0   1 116462. 2618.72  34
  -5   0   1 114874. 2854.87  49
  -5   0   1 114459. 5240.73   4
  -5   0   2 10015.2 1581.54   4
  -5   0   2 9226.43 774.791  34
  -5   0   2 9911.12 852.114  49
  -5   0   3 94526.1 2549.03  49
  -5   0   3 99010.0 2587.74  34
  -5   0   3 99022.2 2116.56  46
  -5   0   4 123520. 2942.90  34
  -5   0   4 126507. 2560.42  46
  -5   0   4 122179. 2785.80  49
  -5   0   5 733.893 239.338  46
  -5   0   5 3469.61 538.202  34
  -5   0   6 208814. 3796.10  34
  -5   0   6 215630. 3590.40  46
  -5   0   7 40272.5 1548.58  46
  -5   0   7 39835.5 1584.02  34
  -5   0   8 7592.97 677.387  46
  -5   0   8 8295.18 679.932  34
  -5   0   9 30391.2 1070.44  34
  -5   0   9 30581.3 1198.02  46
  -5   1 -10 34419.5 1016.61  52
  -5   1  -9 48938.5 1332.16  33
  -5   1  -9 61594.7 1676.16  52
  -5   1  -8-349.261 313.847  49
  -5   1  -7 91748.7 2158.59  49
  -5   1  -6 52661.0 1766.43  49
  -5   1  -5 5844.98 1762.37  25
  -5   1  -5 5225.61 737.402  49
  -5   1  -4 147065. 6471.34  25
  -5   1  -4 145907. 3076.46  49
  -5   1  -3 4251.51 702.008  49
  -5   1  -3 423.122 185.949  34
  -5   1  -2 63353.9 3657.13   4
  -5   1  -2 63177.3 1810.72  34
  -5   1  -2 63931.5 2096.28  49
  -5   1  -1 67340.0 1936.43  34
  -5   1  -1 70314.6 2212.77  49
  -5   1  -1 64378.3 3778.23   4
  -5   1   0 7352.99 1306.29   4
  -5   1   0 6504.46 643.950  34
  -5   1   0 7857.13 769.208  49
  -5   1   1 54940.3 3612.08   4
  -5   1   1 48766.3 1843.05  49
  -5   1   1 54540.9 1868.40  34
  -5   1   2 96240.7 2524.80  49
  -5   1   2 101011. 2128.13  46
  -5   1   2 98249.9 2572.85  34
  -5   1   3 177.648 161.226  46
  -5   1   3 371.546 251.331  34
  -5   1   3 532.013 206.914  49
  -5   1   4 139203. 3139.65  34
  -5   1   4 140744. 2832.25  46
  -5   1   5 149369. 2998.71  46
  -5   1   5 140117. 3095.44  34
  -5   1   6 12154.9 881.643  46
  -5   1   6 11447.5 863.554  34
  -5   1   7 53165.5 1767.51  46
  -5   1   7 48928.0 1640.38  34
  -5   1   8 7567.85 575.067  34
  -5   1   8 9107.59 706.953  46
  -5   1   9 7417.69 551.051  46
  -5   2 -11 24866.8 734.201  52
  -5   2 -10 12834.2 825.399  52
  -5   2 -10 1339.38 212.422  33
  -5   2  -9 50887.7 1329.38  49
  -5   2  -8 31938.6 1234.42  49
  -5   2  -7 36898.1 1480.34  49
  -5   2  -7 40187.5 3285.47  25
  -5   2  -6 185468. 3369.91  49
  -5   2  -6 192204. 7302.02  25
  -5   2  -5 156034. 6700.26  25
  -5   2  -5 149001. 3141.74  49
  -5   2  -4 46614.2 3902.01  25
  -5   2  -4 50919.2 1874.83  49
  -5   2  -3 90826.3 2520.22  49
  -5   2  -3 89553.8 5150.99  25
  -5   2  -2 9335.29 890.994  49
  -5   2  -1 62171.3 3647.10   4
  -5   2  -1 59354.1 2030.49  49
  -5   2   0 124370. 2849.04  34
  -5   2   0 120101. 5219.95   4
  -5   2   0 120694. 2863.41  49
  -5   2   1 968.971 238.826  49
  -5   2   1 214.937 367.996   4
  -5   2   1 927.052 316.671  34
  -5   2   1 1049.21 242.180  46
  -5   2   2 140641. 2696.29  46
  -5   2   2 142656. 2878.13  49
  -5   2   2 144327. 3159.93  34
  -5   2   3 119876. 2628.81  46
  -5   2   3 119524. 2879.98  34
  -5   2   4 785.664 263.166  46
  -5   2   4 215.683 224.999  34
  -5   2   5 90497.5 2394.08  46
  -5   2   5 90304.9 2374.70  34
  -5   2   6 10406.8 766.478  34
  -5   2   6 12461.7 891.873  46
  -5   2   7 7794.30 595.574  34
  -5   2   7 7175.71 660.244  46
  -5   2   8 29352.4 1129.86  46
  -5   2   9 11477.5 592.934  46
  -5   3 -11 22937.1 837.758  52
  -5   3 -10 12827.2 610.275  49
  -5   3  -9 6860.74 625.445  49
  -5   3  -8 80371.9 2087.19  49
  -5   3  -8 82787.4 4467.91  25
  -5   3  -7 37926.0 1597.18  49
  -5   3  -7 27861.0 2974.85  25
  -5   3  -6 37667.7 1651.04  49
  -5   3  -6 31917.7 3266.29  25
  -5   3  -5 276970. 3769.40  35
  -5   3  -5 264863. 8825.57  25
  -5   3  -4 26228.9 3159.95  25
  -5   3  -4 25105.9 1208.15  35
  -5   3  -3 46793.6 3868.85  25
  -5   3  -3 48512.6 1749.58  35
  -5   3  -3 55653.1 2061.81  49
  -5   3  -2 111496. 2773.89  49
  -5   3  -2 107508. 2683.90  35
  -5   3  -1 14526.0 1031.06  49
  -5   3  -1 10858.2 1548.39   4
  -5   3   0 78080.9 2222.18  49
  -5   3   0 82001.9 1949.45  46
  -5   3   1 98013.1 2619.22  34
  -5   3   1 95921.8 2252.22  46
  -5   3   1 95401.6 2318.03  49
  -5   3   2 6981.96 712.998  34
  -5   3   2 6015.84 610.368  46
  -5   3   3 112951. 2729.98  34
  -5   3   3 113756. 2650.18  46
  -5   3   4 66517.7 2026.83  34
  -5   3   4 69635.6 2100.53  46
  -5   3   5 12272.6 823.525  34
  -5   3   5 11423.9 863.431  46
  -5   3   6 35502.2 1249.40  34
  -5   3   6 35714.0 1431.97  46
  -5   3   7 8254.82 635.209  46
  -5   3   8 4693.57 412.286  46
  -5   4 -11 139.898 98.0306  33
  -5   4 -10 30053.6 1050.97  49
  -5   4  -9 39311.5 1432.16  49
  -5   4  -8 21304.3 1258.93  49
  -5   4  -8 9480.26 1916.52  25
  -5   4  -7 100930. 5419.46  25
  -5   4  -7 94360.3 2139.68  12
  -5   4  -6 99085.8 5525.02  25
  -5   4  -6 96437.6 2139.89  12
  -5   4  -6 95754.0 2267.86  35
  -5   4  -5 45942.7 4051.58  25
  -5   4  -5 42764.5 1616.95  35
  -5   4  -4 111565. 5792.96  25
  -5   4  -4 116758. 2851.19  49
  -5   4  -4 108367. 2666.89  35
  -5   4  -3 4761.78 607.180  35
  -5   4  -3 7237.11 1905.02  25
  -5   4  -2 66107.7 2153.99  49
  -5   4  -2 69320.2 2220.21  35
  -5   4  -1 142434. 2952.76  49
  -5   4  -1 148494. 2675.62  46
  -5   4   0 2690.33 404.803  46
  -5   4   1 96551.8 2584.02  34
  -5   4   1 93825.9 2381.97  46
  -5   4   2 62373.1 2017.87  34
  -5   4   2 65513.8 2030.20  46
  -5   4   3 5050.46 561.740  34
  -5   4   3 4134.65 550.698  46
  -5   4   4 107558. 2375.72  34
  -5   4   4 109456. 2613.91  46
  -5   4   5 22868.7 1154.49  46
  -5   4   5 22516.5 987.727  34
  -5   4   6 7329.54 619.158  46
  -5   4   7 37414.9 1145.28  46
  -5   4   8 17670.8 621.699  46
  -5   5 -11 21248.0 765.127  49
  -5   5 -10 13404.9 793.255  49
  -5   5  -9 90455.8 2186.21  49
  -5   5  -8 43388.5 3548.38  25
  -5   5  -7 5259.70 521.215  12
  -5   5  -7 4422.78 502.844  35
  -5   5  -6 113320. 2668.16  35
  -5   5  -6 114892. 5918.62  25
  -5   5  -5 6959.67 2205.42  25
  -5   5  -5 5619.58 654.238  35
  -5   5  -4 35707.7 3415.47  25
  -5   5  -4 31273.9 1511.87  35
  -5   5  -3 54280.8 2022.88  35
  -5   5  -3 56275.3 3790.95  25
  -5   5  -2 5996.85 564.475  46
  -5   5  -2 4377.60 603.407  35
  -5   5  -1 90918.4 2289.68  46
  -5   5   0 144455. 2978.64  46
  -5   5   1 3972.88 532.756  46
  -5   5   1 2804.22 452.514  34
  -5   5   2 53721.7 1856.51  46
  -5   5   2 53661.1 1773.82  34
  -5   5   3 37073.3 1370.97  34
  -5   5   3 39435.5 1565.03  46
  -5   5   4 17979.5 862.603  34
  -5   5   4 16433.6 985.930  46
  -5   5   5 58488.6 1677.30  46
  -5   5   6 14591.5 731.557  46
  -5   5   7 3265.62 290.765  46
  -5   6 -11 52692.9 1289.96  49
  -5   6 -10 58163.5 1591.32  49
  -5   6  -8 82524.2 4784.80  25
  -5   6  -8 81679.3 2006.19  35
  -5   6  -7 19300.5 2796.41  25
  -5   6  -7 12759.9 916.245  35
  -5   6  -6 88972.8 5191.69  25
  -5   6  -6 85769.2 2415.88  35
  -5   6  -5 72858.8 4636.01  25
  -5   6  -5 74021.5 2335.82  35
  -5   6  -4 1477.96 478.595  35
  -5   6  -4 1048.82 1311.60  25
  -5   6  -3 33518.8 1601.43  35
  -5   6  -3 33162.0 1320.82  46
  -5   6  -2 116536. 2627.10  46
  -5   6  -2 127502. 3008.03  35
  -5   6  -1 12448.2 899.613  46
  -5   6   0 63198.5 2002.84  46
  -5   6   0 65945.1 2043.82  34
  -5   6   1 83451.7 2164.83  34
  -5   6   1 83412.1 2296.14  46
  -5   6   2 159.029 262.085  46
  -5   6   2 730.079 236.894  34
  -5   6   3 83959.0 2150.54  46
  -5   6   3 80094.2 1739.46  34
  -5   6   4 23497.7 1045.44  46
  -5   6   5 8001.78 545.483  46
  -5   6   6 28436.8 818.525  46
  -5   7 -11 9399.24 668.310  49
  -5   7 -10 90481.4 2068.88  49
  -5   7  -9 26333.4 1049.83  35
  -5   7  -8 29089.4 3006.83  25
  -5   7  -8 24988.4 1184.61  35
  -5   7  -7 126308. 2856.28  35
  -5   7  -7 127153. 5800.78  25
  -5   7  -6 5451.58 1828.91  25
  -5   7  -6 6374.18 845.048  35
  -5   7  -5 37200.4 1666.53  35
  -5   7  -5 52759.1 1845.00  49
  -5   7  -4 35412.2 1367.09  46
  -5   7  -4 38048.0 1666.43  35
  -5   7  -3 4566.75 540.822  46
  -5   7  -3 3699.79 566.390  35
  -5   7  -2 65176.3 2056.12  35
  -5   7  -2 60731.8 1926.40  46
  -5   7  -1 85424.6 2298.31  46
  -5   7   0 218.997 248.371  46
  -5   7   0 360.275 213.770  34
  -5   7   1 66385.2 1717.82  34
  -5   7   1 68392.2 1981.00  46
  -5   7   2 29632.0 1005.12  34
  -5   7   2 33344.0 1316.26  46
  -5   7   3 13704.0 785.364  46
  -5   7   4 47745.8 1258.30  46
  -5   7   5 5348.42 356.417  46
  -5   8 -11 26729.1 982.064  49
  -5   8 -10 44143.9 1399.40  49
  -5   8 -10 18905.0 767.940  35
  -5   8  -9 101860. 2119.63  35
  -5   8  -8 58768.0 1831.05  35
  -5   8  -7 16927.9 1134.57  35
  -5   8  -6 64526.1 1983.76  49
  -5   8  -6 61515.3 2014.69  35
  -5   8  -5 10226.8 888.226  35
  -5   8  -5 6757.92 604.398  46
  -5   8  -4 24633.6 1277.78  35
  -5   8  -4 21439.6 1103.40  46
  -5   8  -3 102172. 2477.45  35
  -5   8  -3 95166.0 2345.69  46
  -5   8  -2 1908.02 382.126  46
  -5   8  -1 67631.8 1813.20  34
  -5   8  -1 70370.3 1998.22  46
  -5   8   0 55300.7 1484.43  34
  -5   8   0 59921.7 1779.16  46
  -5   8   1 1145.02 299.809  46
  -5   8   2 40759.8 1267.59  46
  -5   8   3 11486.4 596.429  46
  -5   8   4 6488.11 367.495  46
  -5   9 -11 39243.2 1044.56  49
  -5   9 -10 24084.2 979.207  49
  -5   9 -10 5899.93 446.064  35
  -5   9  -9 37835.1 1288.73  49
  -5   9  -9 17265.5 878.301  35
  -5   9  -8 82172.4 1916.14  49
  -5   9  -8 72666.4 1897.92  35
  -5   9  -7 10687.9 834.811  35
  -5   9  -7 21448.6 1129.92  49
  -5   9  -6 31306.4 1183.68  49
  -5   9  -6 31344.5 1355.88  35
  -5   9  -5 42459.4 1437.55  46
  -5   9  -5 46250.4 1624.52  35
  -5   9  -4 2323.70 413.896  35
  -5   9  -4 3072.94 430.801  46
  -5   9  -3 75875.0 1980.21  46
  -5   9  -2 71725.8 1742.37  34
  -5   9  -2 78580.7 1977.64  46
  -5   9  -1 232.013 144.991  34
  -5   9  -1 274.733 233.655  46
  -5   9   0 46525.0 1384.69  46
  -5   9   1 20997.2 847.945  46
  -5   9   2 2124.76 256.816  46
  -5  10 -10 34664.7 967.555  35
  -5  10 -10 37731.6 1011.79  49
  -5  10  -9 15605.8 762.185  35
  -5  10  -9 21666.0 855.727  49
  -5  10  -8 23727.1 905.387  49
  -5  10  -8 19786.9 927.438  35
  -5  10  -7 53538.2 1571.52  35
  -5  10  -6 1598.82 356.170  35
  -5  10  -6 1534.20 262.266  46
  -5  10  -5 28562.3 1125.40  35
  -5  10  -5 27049.1 1070.67  46
  -5  10  -4 60894.5 1615.83  46
  -5  10  -3 316.340 156.626  34
  -5  10  -3 406.224 224.419  46
  -5  10  -2 44791.3 1075.46  34
  -5  10  -2 49906.6 1386.20  46
  -5  10  -1 35138.3 1086.11  46
  -5  10   0 134.040 134.661  46
  -5  10   1 13684.4 530.506  46
  -5  11  -9 42450.3 1066.83  35
  -5  11  -8 4415.78 401.708  35
  -5  11  -7 24218.9 716.164  46
  -5  11  -7 29080.0 990.797  35
  -5  11  -6 45376.3 1124.18  46
  -5  11  -6 50061.8 1265.57  35
  -5  11  -5 9074.35 551.048  46
  -5  11  -4 30075.2 969.954  46
  -5  11  -4 26678.6 798.127  34
  -5  11  -3 28569.7 913.920  46
  -5  11  -2 370.813 147.184  46
  -5  11  -1 26669.9 729.786  46
  -4 -13   6 108.802 95.1002  50
  -4 -13   7 16609.4 585.905  50
  -4 -13   8 14304.8 535.052  50
  -4 -12   2 17995.3 517.734  29
  -4 -12   3 24933.9 649.070  29
  -4 -12   3 27091.2 778.592  50
  -4 -12   4 2110.58 263.956  50
  -4 -12   5 23627.4 860.940  50
  -4 -12   6 31566.4 1024.67  50
  -4 -12   7 1930.07 288.207  50
  -4 -12   8 25758.0 911.252  50
  -4 -12   9 16266.6 683.422  50
  -4 -12  10 1789.45 215.697  50
  -4 -11   0 22329.5 663.602  29
  -4 -11   1 43574.5 1013.47  50
  -4 -11   1 45404.6 1044.75  29
  -4 -11   2 334.827 155.701  29
  -4 -11   2 428.481 170.036  50
  -4 -11   3 21397.0 894.717  50
  -4 -11   3 20579.9 768.891  29
  -4 -11   4 22150.8 971.280  50
  -4 -11   4 18593.8 719.509  29
  -4 -11   5 2487.47 376.989  50
  -4 -11   6 35720.4 1285.98  50
  -4 -11   7 40507.0 1352.14  50
  -4 -11   8 2892.67 384.558  50
  -4 -11   9 62247.7 1520.19  50
  -4 -11  10 45227.7 1150.62  40
  -4 -11  10 41974.5 1123.90  50
  -4 -11  11 1842.66 245.286  40
  -4 -11  12 30061.8 811.695  40
  -4 -10  -2 18483.6 612.094  29
  -4 -10  -1 39964.7 887.692  50
  -4 -10  -1 44482.6 1085.74  29
  -4 -10   0 11269.5 601.401  29
  -4 -10   0 10653.2 576.720  50
  -4 -10   1 19065.0 816.917  29
  -4 -10   1 18214.8 842.652  50
  -4 -10   2 32250.7 1081.61  29
  -4 -10   2 33024.4 1220.02  50
  -4 -10   3 517.978 186.408  29
  -4 -10   3 686.445 281.842  50
  -4 -10   4 35471.1 1111.43  29
  -4 -10   4 37936.8 1434.89  50
  -4 -10   4 38516.6 2610.02  26
  -4 -10   5 24357.9 1166.49  50
  -4 -10   5 23403.6 2153.80  26
  -4 -10   5 23916.1 1061.23  49
  -4 -10   6 461.264 244.425  49
  -4 -10   6 514.595 463.631  26
  -4 -10   6 154.190 216.153  50
  -4 -10   7 59889.1 1790.46  50
  -4 -10   8 24436.6 1023.97  40
  -4 -10   8 24901.8 1115.74  50
  -4 -10   9 4209.70 460.962  40
  -4 -10   9 3640.56 416.234  50
  -4 -10  10 42820.0 1382.05  40
  -4 -10  10 39737.4 1168.69  50
  -4 -10  11 11163.3 685.571  40
  -4 -10  12 8495.90 550.567  40
  -4 -10  13 25564.6 780.466  40
  -4  -9  -4 10050.6 406.666  29
  -4  -9  -3 46326.8 1071.33  29
  -4  -9  -2 3124.80 342.168  29
  -4  -9  -2 3075.68 293.133  50
  -4  -9  -1 28916.6 1047.33  29
  -4  -9   0 85334.4 1870.64  29
  -4  -9   1 6437.57 540.233  29
  -4  -9   2 37581.8 1273.42  29
  -4  -9   2 39280.2 2651.58  26
  -4  -9   3 75838.2 1769.60  29
  -4  -9   3 77938.6 4009.14  26
  -4  -9   4 62.2879 197.182  50
  -4  -9   4 163.116 154.521  49
  -4  -9   5 63057.6 1954.14  49
  -4  -9   5 63101.2 1967.60  50
  -4  -9   5 68650.2 4069.07  26
  -4  -9   6 79325.3 2257.07  49
  -4  -9   6 76588.5 2149.72  50
  -4  -9   6 79001.8 4420.36  26
  -4  -9   7 5168.54 1184.13  26
  -4  -9   7 4187.28 482.336  40
  -4  -9   7 3727.57 487.566  50
  -4  -9   7 4238.90 577.741  49
  -4  -9   8 50351.7 1705.83  40
  -4  -9   8 50764.4 1860.40  49
  -4  -9   8 47870.0 1605.28  50
  -4  -9   9 10482.1 811.161  40
  -4  -9   9 10275.3 702.093  50
  -4  -9  10 19288.7 1064.10  40
  -4  -9  11 53694.1 1659.75  40
  -4  -9  12 10139.1 679.251  40
  -4  -9  13 8699.97 537.919  40
  -4  -8  -5 16714.8 570.864  29
  -4  -8  -4 6219.77 439.890  29
  -4  -8  -3 13581.0 715.719  29
  -4  -8  -2 39473.0 1355.45  33
  -4  -8  -2 40131.0 1307.02  29
  -4  -8  -1 8062.94 678.271  33
  -4  -8  -1 8028.40 618.781  29
  -4  -8   0 38178.5 1362.66  29
  -4  -8   0 41380.4 1555.11  33
  -4  -8   1 85906.4 2270.65  33
  -4  -8   1 84415.2 4079.77  26
  -4  -8   1 81354.1 1964.02  29
  -4  -8   2 3768.72 430.312  29
  -4  -8   2 4269.56 1014.43  26
  -4  -8   2 4221.27 525.500  33
  -4  -8   3 60705.4 1882.57  33
  -4  -8   3 59520.3 1853.97  49
  -4  -8   3 61605.9 3878.92  26
  -4  -8   4 55442.2 1889.61  49
  -4  -8   4 53410.3 3714.71  26
  -4  -8   5 244.779 230.156  49
  -4  -8   5 740.959 272.169  50
  -4  -8   5 1217.76 783.951  26
  -4  -8   6 102219. 2509.39  50
  -4  -8   6 108276. 5413.12  26
  -4  -8   6 103099. 2737.37  49
  -4  -8   7 29810.1 1331.73  50
  -4  -8   7 31250.1 1540.07  49
  -4  -8   7 29999.0 2875.08  26
  -4  -8   7 29426.1 1268.65  34
  -4  -8   8 15915.7 976.922  34
  -4  -8   8 14959.7 1082.03  49
  -4  -8   8 15690.8 2063.87  26
  -4  -8   8 14093.5 869.973  50
  -4  -8   9 66850.1 2226.01  49
  -4  -8   9 64953.8 1685.39  50
  -4  -8  10 17255.3 1086.59  40
  -4  -8  11 17440.8 1041.63  40
  -4  -8  12 50261.3 1593.27  40
  -4  -8  13 8751.42 575.261  40
  -4  -7  -6 9277.34 449.465  29
  -4  -7  -5 5864.01 444.388  29
  -4  -7  -4 47414.3 1379.13  29
  -4  -7  -4 45142.3 1301.59  33
  -4  -7  -3 6245.67 575.570  33
  -4  -7  -3 6470.73 574.359  29
  -4  -7  -2 19089.0 983.304  29
  -4  -7  -2 20394.2 1074.85  33
  -4  -7  -1 66606.1 1830.07  29
  -4  -7  -1 68773.7 2046.43  33
  -4  -7   0 5062.89 587.919  33
  -4  -7   0 4563.84 1003.10  26
  -4  -7   0 4399.83 487.221  29
  -4  -7   1 38390.7 2991.78  26
  -4  -7   1 38642.3 1551.38  33
  -4  -7   1 39171.5 1371.73  29
  -4  -7   2 57447.4 1605.07  29
  -4  -7   2 60464.7 3879.84  26
  -4  -7   2 59707.4 1869.89  49
  -4  -7   2 58334.5 1883.97  33
  -4  -7   3 2244.72 387.137  33
  -4  -7   3 1968.42 809.380  26
  -4  -7   3 1547.20 360.887  49
  -4  -7   4 97597.9 2591.67  49
  -4  -7   4 97754.9 2296.51  33
  -4  -7   5 136739. 6204.75  26
  -4  -7   5 134108. 3135.72  49
  -4  -7   6 455.010 217.272  50
  -4  -7   6 364.931 267.885  49
  -4  -7   6 751.075 251.481  34
  -4  -7   7 61154.0 2193.90  49
  -4  -7   7 63641.5 4228.29  26
  -4  -7   7 62366.2 1966.50  34
  -4  -7   7 60064.2 1829.18  50
  -4  -7   8 19165.2 1253.53  49
  -4  -7   8 19252.8 1124.24  34
  -4  -7   8 16316.2 2126.84  26
  -4  -7   8 19514.0 971.021  50
  -4  -7   9 17503.9 1106.92  34
  -4  -7   9 15050.7 1090.11  49
  -4  -7  10 81017.4 2335.69  34
  -4  -7  11 12564.8 941.843  40
  -4  -7  12 18635.6 1013.38  40
  -4  -7  13 43562.0 1267.22  40
  -4  -6  -7 10369.1 480.549  29
  -4  -6  -7 9323.53 398.022  48
  -4  -6  -6 52821.0 1315.49  29
  -4  -6  -5 21420.0 964.644  29
  -4  -6  -5 19108.8 848.149  33
  -4  -6  -4 46406.1 1514.76  29
  -4  -6  -4 43087.7 1451.66  33
  -4  -6  -3 77227.7 2102.15  33
  -4  -6  -3 80162.8 2040.94  29
  -4  -6  -2 509.970 245.232  52
  -4  -6  -2 701.181 279.043  33
  -4  -6  -1 70477.8 3922.42  26
  -4  -6  -1 68380.9 2108.21  52
  -4  -6  -1 69976.1 2106.19  33
  -4  -6  -1 70847.1 1905.25  29
  -4  -6   0 64986.5 3951.04  26
  -4  -6   0 60313.5 1953.19  33
  -4  -6   0 59242.0 1706.77  29
  -4  -6   1 1129.70 639.075   2
  -4  -6   1 224.540 596.665  26
  -4  -6   1 112.527 180.617  33
  -4  -6   1 53.7173 180.569  29
  -4  -6   1 688.570 245.824  49
  -4  -6   2 50385.2 3613.78   2
  -4  -6   2 54185.9 3786.84  26
  -4  -6   2 50054.9 1716.31  33
  -4  -6   2 50506.8 1775.48  49
  -4  -6   3 34937.8 3011.75   2
  -4  -6   3 37960.3 3264.54  26
  -4  -6   3 39541.4 1625.36  49
  -4  -6   3 34997.5 1404.81  33
  -4  -6   4 344.441 596.337  26
  -4  -6   4 680.531 227.925  33
  -4  -6   4 283.377 231.778  49
  -4  -6   4 902.738 502.656   4
  -4  -6   5 155989. 2871.78  34
  -4  -6   5 154735. 6671.50  26
  -4  -6   5 155053. 3399.39  49
  -4  -6   5 158727. 6035.01   4
  -4  -6   6 116242. 4966.08   4
  -4  -6   6 122794. 3106.26  49
  -4  -6   6 124685. 2730.96  34
  -4  -6   6 124305. 2594.95  50
  -4  -6   6 125425. 5953.50  26
  -4  -6   7 1036.39 355.595  49
  -4  -6   7-4.87745 459.284  26
  -4  -6   7 291.969 230.522  34
  -4  -6   8 41409.9 1727.11  34
  -4  -6   8 41798.5 3309.83  26
  -4  -6   8 41263.3 1807.99  49
  -4  -6   9 17386.3 1148.19  49
  -4  -6   9 15163.3 1069.42  34
  -4  -6  10 29217.8 1101.52  43
  -4  -6  10 29953.9 1473.65  34
  -4  -6  11 48290.3 1818.84  40
  -4  -6  11 47392.9 1365.29  43
  -4  -6  12 2696.03 423.075  40
  -4  -6  12 4438.35 451.110  43
  -4  -6  13 20723.9 842.078  40
  -4  -5  -8 25809.4 692.997  48
  -4  -5  -8 25957.6 742.625  29
  -4  -5  -7 16785.8 756.778  29
  -4  -5  -6 10947.2 737.579  29
  -4  -5  -6 6708.39 500.926  33
  -4  -5  -5 87707.9 2068.92  33
  -4  -5  -5 85941.7 2072.40  52
  -4  -5  -4 4913.72 557.697  52
  -4  -5  -4 4606.65 531.572  33
  -4  -5  -3 127524. 2626.25  29
  -4  -5  -3 129509. 5066.54  26
  -4  -5  -3 124638. 2761.68  33
  -4  -5  -3 120419. 2725.05  52
  -4  -5  -2 176754. 3355.92  52
  -4  -5  -2 180292. 3355.63  33
  -4  -5  -2 183885. 6432.70  26
  -4  -5  -2 171193. 2998.52  29
  -4  -5  -1 5397.51 612.697  52
  -4  -5  -1 4140.26 1037.29   2
  -4  -5  -1 5437.79 1188.16  26
  -4  -5  -1 4795.51 555.768  33
  -4  -5   0 60184.2 1653.13  29
  -4  -5   0 61081.8 1920.22  33
  -4  -5   0 62702.0 3958.41   2
  -4  -5   0 60209.4 1952.80  52
  -4  -5   0 67601.2 4116.08  26
  -4  -5   0 59655.0 1788.97  49
  -4  -5   1 42661.8 3258.90   2
  -4  -5   1 42138.1 1563.97  49
  -4  -5   1 40488.6 1539.77  33
  -4  -5   1 43043.1 3351.26  26
  -4  -5   1 44066.1 1661.37  52
  -4  -5   2 5139.28 1127.58   2
  -4  -5   2 3999.52 481.854  33
  -4  -5   2 3807.36 496.358  49
  -4  -5   2 3277.17 1155.93  26
  -4  -5   3 51820.0 1620.45  33
  -4  -5   3 58661.1 4031.35  26
  -4  -5   3 56179.1 1943.62  49
  -4  -5   3 56981.4 3676.40   2
  -4  -5   4 88763.3 2506.29  49
  -4  -5   4 87818.4 4514.58   4
  -4  -5   4 88908.8 2078.16  34
  -4  -5   4 83215.6 4842.14  26
  -4  -5   5 25915.6 1208.98  34
  -4  -5   5 22656.8 1315.21  49
  -4  -5   5 26456.6 2743.31  26
  -4  -5   5 26257.2 2414.95   4
  -4  -5   6 228240. 7861.21  26
  -4  -5   6 232761. 7041.17   4
  -4  -5   6 219605. 4132.81  49
  -4  -5   6 230133. 3817.37  34
  -4  -5   7 105103. 2700.35  34
  -4  -5   7 105032. 5192.07  26
  -4  -5   7 105940. 2891.17  49
  -4  -5   8 2342.87 467.270  34
  -4  -5   8 2104.16 431.459  49
  -4  -5   8 2369.23 767.686  26
  -4  -5   9 89127.7 2476.06  49
  -4  -5   9 83050.9 2515.67  34
  -4  -5  10 7808.10 591.334  43
  -4  -5  10 7287.36 763.723  34
  -4  -5  11 28610.6 1353.01  34
  -4  -5  11 26834.8 1056.94  43
  -4  -5  12 51185.2 1349.16  43
  -4  -5  12 51929.9 1592.94  40
  -4  -5  13 5805.77 419.669  43
  -4  -4  -9 5652.97 339.135  29
  -4  -4  -8 16602.7 757.847  29
  -4  -4  -7 39122.4 1190.14  52
  -4  -4  -7 39527.6 1133.43  33
  -4  -4  -6 16797.6 890.264  33
  -4  -4  -6 15747.1 897.221  52
  -4  -4  -5 44463.0 1612.09  52
  -4  -4  -5 45412.2 1585.83  33
  -4  -4  -4 133309. 2815.29  33
  -4  -4  -4 122506. 2740.42  52
  -4  -4  -3 19663.3 1150.66  52
  -4  -4  -3 17996.0 1055.62  33
  -4  -4  -2 35109.9 1288.40  49
  -4  -4  -2 36724.5 1513.58  52
  -4  -4  -2 38383.1 1532.75  33
  -4  -4  -1 76564.5 2119.70  33
  -4  -4  -1 77380.6 1987.06  49
  -4  -4  -1 76513.1 2178.77  52
  -4  -4  -1 69848.5 4051.97   2
  -4  -4   0 1527.91 310.183  33
  -4  -4   0 1449.67 315.472  49
  -4  -4   0 1979.68 402.107  52
  -4  -4   0 658.609 480.854   2
  -4  -4   1 50190.7 1700.59  49
  -4  -4   1 53900.1 3434.74   2
  -4  -4   1 48571.6 1691.47  52
  -4  -4   1 51102.0 1625.04  33
  -4  -4   2 48588.8 1656.39  52
  -4  -4   2 47541.8 3574.31  26
  -4  -4   2 46147.1 1495.16  33
  -4  -4   2 50009.7 1730.71  49
  -4  -4   2 46099.4 3144.51   2
  -4  -4   3 1621.39 832.660  26
  -4  -4   3 487.955 224.232  49
  -4  -4   3 985.418 231.410  34
  -4  -4   3 1435.33 622.951   4
  -4  -4   4 183061. 6987.11  26
  -4  -4   4 179217. 2984.06  34
  -4  -4   4 171738. 3426.58  49
  -4  -4   4 187585. 6410.89   4
  -4  -4   5 53579.8 1988.08  49
  -4  -4   5 49754.9 3616.39  26
  -4  -4   5 54757.2 1439.46  46
  -4  -4   5 49198.7 3239.71   4
  -4  -4   5 51285.5 1720.56  34
  -4  -4   6 41017.3 2943.58   4
  -4  -4   6 32711.8 1587.01  49
  -4  -4   6 37574.3 1562.25  34
  -4  -4   6 34881.2 1270.18  46
  -4  -4   6 39390.2 3159.42  26
  -4  -4   7 82485.2 2417.97  34
  -4  -4   7 79465.8 2442.77  49
  -4  -4   7 82435.4 4111.24   4
  -4  -4   7 81800.4 2074.24  46
  -4  -4   7 85506.2 4402.14  26
  -4  -4   8 18084.0 1143.67  49
  -4  -4   8 17958.6 1183.44  34
  -4  -4   9 58261.4 2101.17  34
  -4  -4   9 55477.0 1564.38  43
  -4  -4   9 54460.3 1813.13  49
  -4  -4  10 95592.7 2088.01  43
  -4  -4  10 93737.4 2578.11  34
  -4  -4  11 17751.2 880.295  43
  -4  -4  11 17299.0 1030.64  34
  -4  -4  12 15525.5 800.288  40
  -4  -4  12 14028.4 723.667  43
  -4  -4  13 36282.1 956.625  43
  -4  -3  -9 60977.6 1338.20  29
  -4  -3  -8 5132.95 430.989  52
  -4  -3  -7 22310.1 1057.95  52
  -4  -3  -7 23331.1 1008.28  33
  -4  -3  -7 21826.3 1994.24  23
  -4  -3  -6 109732. 2486.07  52
  -4  -3  -6 110310. 2424.60  33
  -4  -3  -6 102457. 2380.64  16
  -4  -3  -6 110228. 4621.73  23
  -4  -3  -5 7028.42 1185.38  23
  -4  -3  -5 8770.89 730.340  16
  -4  -3  -5 9599.91 763.519  33
  -4  -3  -4 60478.6 1897.36  33
  -4  -3  -4 60346.9 1963.43  52
  -4  -3  -3 88282.1 2040.78  49
  -4  -3  -3 89761.4 2330.89  52
  -4  -3  -2 4557.01 999.088   2
  -4  -3  -2 5866.25 550.524  49
  -4  -3  -1 84607.7 2194.97  52
  -4  -3  -1 86688.0 4237.52   2
  -4  -3  -1 86299.2 2119.43  49
  -4  -3   0 127985. 2644.19  52
  -4  -3   0 130681. 5066.06   2
  -4  -3   0 139459. 2719.35  49
  -4  -3   1 2918.85 749.582   2
  -4  -3   2 151890. 5744.06   4
  -4  -3   3 250446. 7942.70  26
  -4  -3   3 254707. 7297.59   4
  -4  -3   3 247304. 3902.39  49
  -4  -3   4 3334.89 853.137   4
  -4  -3   4 2181.70 818.981  26
  -4  -3   4 2002.15 384.856  49
  -4  -3   4 2450.02 367.392  34
  -4  -3   5 127897. 2299.57  46
  -4  -3   5 124152. 5451.31  26
  -4  -3   5 124686. 5091.26   4
  -4  -3   5 124855. 2937.90  49
  -4  -3   5 125820. 2729.45  34
  -4  -3   6 21723.9 2221.98  26
  -4  -3   6 19959.6 1152.87  34
  -4  -3   6 19184.8 2000.34   4
  -4  -3   6 20561.0 1217.53  49
  -4  -3   6 21140.2 1019.08  46
  -4  -3   7 7188.00 1220.46   4
  -4  -3   7 5680.20 638.557  49
  -4  -3   7 5476.43 579.070  46
  -4  -3   7 6195.38 680.172  34
  -4  -3   8 75808.9 2129.31  49
  -4  -3   8 78371.9 2174.05  46
  -4  -3   8 74104.8 2360.39  34
  -4  -3   9 12630.8 917.148  46
  -4  -3   9 11768.7 951.196  34
  -4  -3   9 12121.9 752.020  43
  -4  -3  10 23399.8 1256.94  34
  -4  -3  10 22947.1 1040.83  43
  -4  -3  11 86496.0 2121.82  34
  -4  -3  11 85131.5 1923.39  43
  -4  -3  12 18512.2 814.972  43
  -4  -3  13 18598.0 654.224  43
  -4  -2 -10 14197.1 632.989  29
  -4  -2  -9 19189.9 779.293  52
  -4  -2  -8 59182.5 1638.34  52
  -4  -2  -8 57177.3 1480.50  33
  -4  -2  -7 27650.0 1276.52  16
  -4  -2  -7 31092.6 1246.21  33
  -4  -2  -6 16021.2 1020.74  16
  -4  -2  -6 17523.6 1010.66  33
  -4  -2  -5 37305.1 1554.11  16
  -4  -2  -4 6628.51 563.550  49
  -4  -2  -3 99022.6 2181.84  49
  -4  -2  -2 119602. 2427.45  49
  -4  -2  -2 125975. 4788.54   2
  -4  -2  -1 5444.16 978.564   2
  -4  -2   0 201579. 5801.40   2
  -4  -2   1 147680. 5471.50   4
  -4  -2   2 2402.65 708.743   4
  -4  -2   3 242211. 6886.03   4
  -4  -2   3 234505. 7446.73  26
  -4  -2   4 53947.2 3282.33   4
  -4  -2   4 59222.1 1915.10  49
  -4  -2   4 53686.4 3497.76  26
  -4  -2   4 55803.7 1728.57  34
  -4  -2   5 32699.0 1423.90  34
  -4  -2   5 33761.3 2637.72   4
  -4  -2   5 32624.5 1211.90  46
  -4  -2   5 31541.3 1428.72  49
  -4  -2   5 35224.0 2748.90  26
  -4  -2   6 44893.5 1747.51  34
  -4  -2   6 47496.4 1577.75  46
  -4  -2   6 47507.5 3203.36   4
  -4  -2   6 46410.7 1710.05  49
  -4  -2   7 22861.6 2260.99   4
  -4  -2   7 25448.8 1342.51  34
  -4  -2   7 27121.0 1274.67  46
  -4  -2   8 25709.0 1071.30  43
  -4  -2   8 25033.3 1268.50  46
  -4  -2   8 25693.5 1370.93  34
  -4  -2   9 72649.3 2235.77  34
  -4  -2   9 75651.1 2214.56  46
  -4  -2   9 74349.6 1890.63  43
  -4  -2  10 17189.3 1009.93  34
  -4  -2  10 16684.2 903.796  43
  -4  -2  11 29080.2 1123.43  43
  -4  -2  12 68068.9 1496.27  43
  -4  -1 -11 13491.1 547.866  29
  -4  -1 -10 56862.2 1217.48  52
  -4  -1  -9 11790.5 752.757  52
  -4  -1  -8 33322.1 1393.97  16
  -4  -1  -8 37531.8 1307.18  33
  -4  -1  -6 56263.2 1952.65  16
  -4  -1  -5 13688.1 954.775  16
  -4  -1  -5 14252.1 814.850  49
  -4  -1  -4 34112.8 2845.52  25
  -4  -1  -4 31186.2 1231.17  49
  -4  -1  -3 1214.95 1068.55  25
  -4  -1  -3 581.039 245.601  49
  -4  -1  -1 210581. 5454.97   2
  -4  -1   0 1444.11 537.320   4
  -4  -1   1 160053. 5482.04   4
  -4  -1   2 175124. 5703.92   4
  -4  -1   3 14216.2 1677.74   4
  -4  -1   4 105453. 2432.11  34
  -4  -1   4 101546. 2049.51  46
  -4  -1   4 106048. 4606.99   4
  -4  -1   4 103398. 4534.58  26
  -4  -1   5 2168.80 370.740  49
  -4  -1   5 2514.17 368.716  46
  -4  -1   5 2722.23 437.427  34
  -4  -1   6 17705.9 1008.31  46
  -4  -1   6 19305.4 1151.46  34
  -4  -1   7 128452. 2828.81  46
  -4  -1   7 125465. 2935.68  34
  -4  -1   8 18460.0 1122.94  34
  -4  -1   8 20583.7 990.535  43
  -4  -1   8 21057.1 1186.08  46
  -4  -1   9 22405.3 1174.72  34
  -4  -1   9 21686.6 1198.62  46
  -4  -1   9 20873.5 1028.15  43
  -4  -1  10 82241.5 1961.07  34
  -4  -1  10 80540.3 1969.54  43
  -4  -1  10 82694.6 2161.52  46
  -4  -1  11 7797.56 579.363  43
  -4  -1  12 24331.3 829.829  43
  -4   0 -10 32027.5 1112.82  52
  -4   0  -9 93191.8 1922.19  33
  -4   0  -8 21969.4 1195.40  16
  -4   0  -7 98026.7 4664.84  25
  -4   0  -6 203206. 3682.29  16
  -4   0  -6 211081. 6990.84  25
  -4   0  -5 2280.32 1066.47  25
  -4   0  -5 482.343 240.999  49
  -4   0  -4 68087.9 1820.12  49
  -4   0  -4 78101.3 4291.76  25
  -4   0  -3 96981.1 4743.21  25
  -4   0  -3 88392.0 2045.64  49
  -4   0  -2 2202.14 1151.10  25
  -4   0  -2 1725.74 600.572   4
  -4   0  -1 89746.5 3976.83   4
  -4   0  -1 88067.4 4351.79  25
  -4   0   0 122402. 4613.00   4
  -4   0   1 1054.63 479.084   4
  -4   0   2 203427. 6097.85   4
  -4   0   3 74965.0 3784.12  26
  -4   0   3 66232.1 3588.77   4
  -4   0   4 62946.1 1908.74  34
  -4   0   4 62089.1 1700.90  46
  -4   0   5 128819. 5358.04   4
  -4   0   5 130670. 2672.77  46
  -4   0   5 130945. 2863.24  34
  -4   0   6 70053.5 2143.53  34
  -4   0   6 70172.3 4061.19   4
  -4   0   6 76974.3 2160.07  46
  -4   0   7 33924.7 1238.88  43
  -4   0   7 32648.8 1470.06  34
  -4   0   7 33910.4 1485.34  46
  -4   0   8 84613.4 2276.51  34
  -4   0   8 83782.8 2042.37  43
  -4   0   8 88355.4 2411.58  46
  -4   0   9 7770.39 712.468  46
  -4   0   9 7117.19 598.649  34
  -4   0   9 7484.35 630.854  43
  -4   0  10 30318.9 1188.64  43
  -4   0  10 28897.5 1218.41  46
  -4   0  11 37010.0 1153.71  43
  -4   0  12 491.686 131.761  43
  -4   1 -11 41891.9 1153.76  52
  -4   1  -9 14033.8 1627.30  25
  -4   1  -8 125653. 2328.89  49
  -4   1  -8 133368. 5437.85  25
  -4   1  -7 5272.47 520.311  49
  -4   1  -7 6941.94 1431.48  25
  -4   1  -6 142912. 5956.91  25
  -4   1  -5 77900.1 4379.66  25
  -4   1  -4 1612.04 870.072  25
  -4   1  -3 126728. 5401.95  25
  -4   1  -3 132932. 2098.50  12
  -4   1  -3 134369. 4685.28   4
  -4   1  -2 81241.6 4269.95  25
  -4   1  -2 80836.6 3644.67   4
  -4   1  -1 1414.34 556.662   4
  -4   1  -1 2922.73 1176.77  25
  -4   1   0 36967.8 2498.96   4
  -4   1   1 86007.4 3877.73   4
  -4   1   2 33649.2 2516.03   4
  -4   1   3 264983. 3841.74  34
  -4   1   3 269190. 3492.38  46
  -4   1   3 267662. 7321.25   4
  -4   1   4 84749.0 2108.83  46
  -4   1   4 81551.9 2197.95  34
  -4   1   5 1216.22 539.636   4
  -4   1   5 1058.44 286.375  34
  -4   1   5 894.924 262.429  46
  -4   1   6 137629. 2916.51  34
  -4   1   6 147848. 3064.68  46
  -4   1   7 25291.7 1111.36  43
  -4   1   7 23974.4 1194.08  34
  -4   1   7 25569.8 1304.40  46
  -4   1   8 27399.8 1176.68  34
  -4   1   8 26891.7 1313.84  46
  -4   1   8 26042.2 1172.12  43
  -4   1   9 57996.6 1701.08  43
  -4   1   9 60556.5 1814.10  46
  -4   1  10 1297.82 274.319  46
  -4   1  10 934.856 240.764  43
  -4   1  11 32716.1 966.659  43
  -4   2 -12 19795.6 679.712  52
  -4   2  -9 24901.6 1033.24  49
  -4   2  -9 25237.6 2381.00  25
  -4   2  -8 75364.2 4296.51  25
  -4   2  -7 145886. 6112.23  25
  -4   2  -6 4209.24 1192.03  25
  -4   2  -5 54316.7 3760.09  25
  -4   2  -4 74776.1 1716.49  12
  -4   2  -4 75662.5 4259.32  25
  -4   2  -3 14275.7 1470.69   4
  -4   2  -3 12784.8 1818.18  25
  -4   2  -3 13683.0 681.309  12
  -4   2  -2 176428. 6233.37  25
  -4   2  -2 188333. 2345.48  12
  -4   2  -2 181950. 5290.59   4
  -4   2  -1 163080. 5812.07  25
  -4   2  -1 159123. 5106.46   4
  -4   2   0 1232.77 772.995  25
  -4   2   0 1685.44 573.356   4
  -4   2   1 111826. 4493.41   4
  -4   2   2 20485.4 2032.31   4
  -4   2   2 23239.9 1133.04  34
  -4   2   3 72095.9 2028.73  34
  -4   2   3 74680.4 4008.04   4
  -4   2   3 69047.5 1908.11  46
  -4   2   4 66748.7 3972.25   4
  -4   2   4 66785.2 1975.45  34
  -4   2   4 66270.4 1978.96  46
  -4   2   5 48221.6 1682.76  34
  -4   2   5 53551.1 1838.96  46
  -4   2   5 49939.1 3546.80   4
  -4   2   6 26764.7 1340.29  46
  -4   2   6 29045.9 1280.13  34
  -4   2   6 28470.8 1163.43  43
  -4   2   7 70275.0 1861.23  34
  -4   2   7 71425.2 1922.33  43
  -4   2   7 71770.5 2139.65  46
  -4   2   8 6245.36 616.480  46
  -4   2   8 5435.50 544.987  43
  -4   2   9 39826.2 1343.82  46
  -4   2   9 38610.2 1326.03  43
  -4   2  10 51244.4 1318.33  43
  -4   3 -10 32448.4 2563.33  25
  -4   3  -9 148748. 2932.61  12
  -4   3  -9 146027. 5916.92  25
  -4   3  -8 9116.58 1613.40  25
  -4   3  -8 7945.39 688.364  12
  -4   3  -7 126039. 5822.88  25
  -4   3  -7 124286. 2608.72  12
  -4   3  -6 58575.5 3944.11  25
  -4   3  -6 58359.3 1731.38  12
  -4   3  -5 5480.69 508.848  12
  -4   3  -5 6131.72 1401.41  25
  -4   3  -5 5598.20 496.402  35
  -4   3  -4 139053. 2361.89  12
  -4   3  -4 140189. 5852.48  25
  -4   3  -4 129040. 2428.28  35
  -4   3  -3 201648. 6814.75  25
  -4   3  -3 200310. 2658.55  12
  -4   3  -2 3565.12 1241.55  25
  -4   3  -2 3637.68 744.202   4
  -4   3  -2 4371.68 388.621  12
  -4   3  -1 157670. 5620.64  25
  -4   3  -1 152378. 5030.15   4
  -4   3   0 123345. 4724.99   4
  -4   3   1 26196.1 2264.98   4
  -4   3   1 22454.8 1044.34  46
  -4   3   2 104182. 4738.92   4
  -4   3   2 109050. 2495.99  34
  -4   3   2 114414. 2491.36  46
  -4   3   3 1182.41 575.325   4
  -4   3   3 1725.42 346.193  46
  -4   3   3 1997.97 356.565  34
  -4   3   4 8384.48 1482.87   4
  -4   3   4 6282.84 645.991  46
  -4   3   4 6786.29 629.991  34
  -4   3   5 101079. 2330.88  34
  -4   3   5 100478. 2572.06  46
  -4   3   5 97093.2 2129.70  43
  -4   3   6 24092.7 1250.84  46
  -4   3   6 23507.1 1101.84  43
  -4   3   7 8568.51 679.715  43
  -4   3   7 8759.92 730.485  46
  -4   3   8 39534.8 1384.65  46
  -4   3   8 38150.0 1349.48  43
  -4   3   9 1063.26 243.193  43
  -4   3   9 930.494 217.422  46
  -4   3  10 30214.9 844.408  43
  -4   4 -10 16697.5 1975.58  25
  -4   4  -9 44837.4 3409.89  25
  -4   4  -9 41417.0 1554.95  12
  -4   4  -8 99370.6 5230.79  25
  -4   4  -8 95996.2 2345.36  12
  -4   4  -7 386.957 155.022  35
  -4   4  -7 330.071 203.858  12
  -4   4  -7 26.5065 761.526  25
  -4   4  -6 40090.3 1418.53  12
  -4   4  -6 38402.5 3277.48  25
  -4   4  -6 34083.7 1303.39  35
  -4   4  -5 120909. 5659.83  25
  -4   4  -5 113201. 2402.55  35
  -4   4  -5 124769. 2396.58  12
  -4   4  -4 619.685 796.047  25
  -4   4  -4 565.344 195.264  12
  -4   4  -4 1247.40 318.691  35
  -4   4  -3 219744. 7144.16  25
  -4   4  -3 222933. 2903.81  12
  -4   4  -2 153654. 5749.94  25
  -4   4  -2 149118. 4886.26   4
  -4   4  -2 152860. 2923.54  35
  -4   4  -1 15492.5 1668.69   4
  -4   4  -1 14486.2 917.725  35
  -4   4  -1 17921.4 1938.53  25
  -4   4   0 206985. 6346.48   4
  -4   4   0 210752. 3328.34  46
  -4   4   0 216762. 3547.04  35
  -4   4   1 18976.5 1053.01  46
  -4   4   1 16134.4 1872.58   4
  -4   4   2 90186.8 2264.39  34
  -4   4   2 88239.1 4564.82   4
  -4   4   2 88227.6 2332.33  46
  -4   4   3 69570.7 1952.38  34
  -4   4   3 64670.8 4091.29   4
  -4   4   3 70924.6 2137.94  46
  -4   4   4 54417.7 1676.98  34
  -4   4   4 54827.2 1897.35  46
  -4   4   5 23201.0 1089.25  43
  -4   4   5 23010.0 1223.64  46
  -4   4   6 91157.0 2175.05  43
  -4   4   6 94733.5 2353.42  46
  -4   4   7 18943.3 961.642  43
  -4   4   7 19825.5 998.835  46
  -4   4   8 17931.2 842.828  43
  -4   4   8 17583.2 805.237  46
  -4   4   9 33581.9 947.168  43
  -4   4   9 29676.2 787.373  46
  -4   5 -12 9869.42 562.168  49
  -4   5 -10 108833. 5127.01  25
  -4   5  -9 16229.7 2144.66  25
  -4   5  -9 16328.4 975.206  12
  -4   5  -8 29192.4 1216.29  35
  -4   5  -8 31047.6 3005.15  25
  -4   5  -8 31714.4 1350.03  12
  -4   5  -7 14091.4 878.723  12
  -4   5  -7 13250.8 2019.55  25
  -4   5  -6 10278.4 732.908  12
  -4   5  -6 10286.2 1758.53  25
  -4   5  -5 72829.0 4450.06  25
  -4   5  -5 74990.0 1876.18  12
  -4   5  -4 121177. 2683.54  35
  -4   5  -4 124366. 5598.18  25
  -4   5  -3 1097.94 427.496  35
  -4   5  -3 350.703 201.378  46
  -4   5  -2 142837. 2941.44  35
  -4   5  -2 145328. 2759.78  46
  -4   5  -2 147949. 5422.91  25
  -4   5  -1 80527.7 2137.89  46
  -4   5  -1 75260.7 2127.52  35
  -4   5   0 20035.9 1109.41  46
  -4   5   0 19516.2 1091.69  35
  -4   5   0 17961.2 1965.63   4
  -4   5   1 70673.1 4093.73   4
  -4   5   1 77760.0 2236.12  46
  -4   5   2 1095.02 580.825   4
  -4   5   2 1583.51 325.141  34
  -4   5   2 1565.40 350.420  46
  -4   5   3 7363.28 712.379  46
  -4   5   3 7508.91 617.588  34
  -4   5   4 104311. 2279.66  43
  -4   5   4 106383. 2594.99  46
  -4   5   5 23018.9 1165.94  46
  -4   5   5 22132.8 1065.12  43
  -4   5   6 20582.2 1023.65  46
  -4   5   6 20108.7 982.459  43
  -4   5   7 45403.0 1343.20  43
  -4   5   7 45482.8 1306.02  46
  -4   5   8 1010.11 195.593  43
  -4   5   8 822.547 158.972  46
  -4   6 -10 91362.2 4820.28  25
  -4   6  -9 106306. 5464.24  25
  -4   6  -9 112646. 2506.45  12
  -4   6  -8 17449.3 2324.38  25
  -4   6  -8 20670.3 1083.73  12
  -4   6  -7 80034.0 4959.98  25
  -4   6  -7 84834.0 2143.04  12
  -4   6  -6 120137. 5918.38  25
  -4   6  -6 124107. 2526.58  12
  -4   6  -6 119931. 5022.70   6
  -4   6  -5 1010.05 778.816  25
  -4   6  -5 681.675 394.166   6
  -4   6  -4 111817. 2718.69  35
  -4   6  -4 120131. 5436.44  25
  -4   6  -4 119723. 2565.75  46
  -4   6  -4 110629. 4430.90   6
  -4   6  -3 106742. 2503.91  46
  -4   6  -3 111324. 4871.44  25
  -4   6  -3 102553. 2599.63  35
  -4   6  -2 990.206 312.282  46
  -4   6  -2 2083.30 555.184  35
  -4   6  -1 93017.2 2437.92  46
  -4   6  -1 97447.8 2434.98  35
  -4   6   0 31351.5 2700.66   4
  -4   6   0 32969.6 1397.35  35
  -4   6   0 35199.2 1532.55  46
  -4   6   1 32714.0 1493.15  46
  -4   6   2 64954.9 1782.42  34
  -4   6   2 67342.0 2104.97  46
  -4   6   3 63364.9 1989.41  46
  -4   6   3 59219.6 1705.42  43
  -4   6   4 14988.9 936.850  46
  -4   6   4 15555.6 881.092  43
  -4   6   5 49208.4 1550.85  46
  -4   6   5 48038.0 1485.63  43
  -4   6   6 399.030 185.571  46
  -4   6   6 167.084 149.146  43
  -4   6   7 30229.3 919.756  43
  -4   6   7 27455.2 811.126  46
  -4   7 -13 29709.3 839.693  49
  -4   7 -10 564.149 309.444  35
  -4   7 -10-296.510 843.952  25
  -4   7  -9 166811. 6895.25  25
  -4   7  -9 176273. 3083.30  12
  -4   7  -8 71613.9 4698.34  25
  -4   7  -8 77630.3 2081.08  12
  -4   7  -7 3185.25 1097.90  25
  -4   7  -6 73648.0 4587.90  25
  -4   7  -5 52820.3 1929.86  35
  -4   7  -5 46452.7 3534.43  25
  -4   7  -5 46071.4 1669.24  46
  -4   7  -4 10890.3 846.536  46
  -4   7  -4 10380.3 1392.95   6
  -4   7  -3 90344.8 2463.28  46
  -4   7  -3 90757.5 2444.03  35
  -4   7  -2 37293.9 1596.56  46
  -4   7  -2 40709.8 1612.02  35
  -4   7  -1 16241.3 994.621  35
  -4   7  -1 15829.5 1044.77  46
  -4   7   0 98975.0 2319.91  35
  -4   7   0 105667. 2657.72  46
  -4   7   1 16134.5 883.578  34
  -4   7   1 18448.5 1115.17  46
  -4   7   2 2755.74 446.122  46
  -4   7   3 90304.3 2239.14  46
  -4   7   3 86710.9 2013.35  43
  -4   7   4 7123.02 601.088  46
  -4   7   4 7077.66 564.991  43
  -4   7   5 30702.2 1054.19  43
  -4   7   5 29401.6 1034.83  46
  -4   7   6 21571.2 714.819  46
  -4   7   6 23120.5 783.031  43
  -4   8 -11 47238.5 1366.97  35
  -4   8 -10 108521. 5292.44  25
  -4   8  -9-573.018 1044.02  25
  -4   8  -8 20400.6 2539.68  25
  -4   8  -7 95952.6 5251.03  25
  -4   8  -6 3126.96 1164.75  25
  -4   8  -6 3499.77 488.960  46
  -4   8  -5 59082.1 1992.26  46
  -4   8  -5 68948.6 2220.43  35
  -4   8  -4 39471.5 1631.78  35
  -4   8  -4 28950.9 1414.23  46
  -4   8  -3 35886.9 1507.79  35
  -4   8  -3 29684.0 1439.05  46
  -4   8  -2 142548. 2889.70  35
  -4   8  -2 148201. 3183.01  46
  -4   8  -1 42553.4 1501.67  35
  -4   8  -1 44244.6 1728.35  46
  -4   8   0 22638.3 1222.67  46
  -4   8   1 55279.8 1828.21  46
  -4   8   2 34515.5 1217.04  43
  -4   8   2 36394.5 1393.29  46
  -4   8   3 17663.0 902.990  46
  -4   8   3 17972.7 843.942  43
  -4   8   4 45857.7 1220.92  43
  -4   8   4 44602.2 1228.36  46
  -4   8   5 205.693 106.629  43
  -4   8   5 233.487 107.051  46
  -4   9 -12 42571.9 1080.72  35
  -4   9 -11 2839.12 501.010  35
  -4   9  -9 32120.4 2942.14  25
  -4   9  -8 6400.71 1505.11  25
  -4   9  -7 47627.3 3452.27  25
  -4   9  -7 48616.6 1730.49  46
  -4   9  -6 72480.4 2174.54  46
  -4   9  -6 90990.3 2471.30  35
  -4   9  -5 1343.28 357.887  46
  -4   9  -5 19057.5 1190.65  35
  -4   9  -4 79229.2 2321.46  46
  -4   9  -4 81488.0 2207.67  35
  -4   9  -3 28932.4 1288.90  35
  -4   9  -3 29093.3 1406.70  46
  -4   9  -2 22922.7 1082.63  35
  -4   9  -2 23596.9 1252.84  46
  -4   9  -1 77260.1 1923.10  53
  -4   9  -1 85820.5 2309.39  46
  -4   9   0 11451.8 825.358  46
  -4   9   1 2464.51 398.487  46
  -4   9   2 51717.9 1451.42  46
  -4   9   2 52299.2 1327.79  43
  -4   9   3 9241.49 509.491  43
  -4   9   3 9189.86 535.820  46
  -4   9   4 10371.0 446.454  46
  -4   9   4 10908.7 457.151  43
  -4  10 -12 28976.1 901.286  35
  -4  10 -11 54928.5 1469.80  35
  -4  10 -10 18227.3 1029.13  35
  -4  10  -9 49171.6 1712.01  35
  -4  10  -8 82506.0 2055.63  46
  -4  10  -8 104463. 2665.91  35
  -4  10  -7 24615.0 1343.31  35
  -4  10  -7-276.577 329.028  46
  -4  10  -6 123044. 2752.71  46
  -4  10  -6 131448. 2821.77  35
  -4  10  -5 56648.8 1774.62  35
  -4  10  -5 49459.6 1770.13  46
  -4  10  -4 22467.1 1108.82  35
  -4  10  -4 18385.8 1091.04  46
  -4  10  -3 85152.0 1959.17  35
  -4  10  -3 89047.6 2315.05  46
  -4  10  -2 22539.6 1156.34  46
  -4  10  -1 5088.55 554.361  46
  -4  10   0 9066.09 655.583  46
  -4  10   1 5190.10 450.892  46
  -4  10   2 19475.6 639.344  43
  -4  10   2 19047.4 714.741  46
  -4  11 -12 4422.10 365.965  35
  -4  11 -11 35473.0 1120.09  35
  -4  11 -10 37427.5 1305.17  35
  -4  11  -9 8522.63 576.222  46
  -4  11  -9 26982.2 1221.25  35
  -4  11  -8 71803.1 1899.27  35
  -4  11  -8 49223.2 1506.94  46
  -4  11  -7 67282.5 1867.14  46
  -4  11  -7 78291.7 1980.20  35
  -4  11  -6 7905.76 682.977  46
  -4  11  -6 15925.3 916.828  35
  -4  11  -5 83012.2 1892.54  35
  -4  11  -5 85684.5 2152.21  46
  -4  11  -4 19683.8 870.120  35
  -4  11  -4 23414.9 1124.98  46
  -4  11  -3 12784.0 809.604  46
  -4  11  -2 30900.3 1170.58  46
  -4  11  -1 1414.43 267.160  46
  -4  11   0 4079.15 364.194  46
  -4  11   1 19647.0 635.445  46
  -4  12 -11 3769.53 374.178  35
  -4  12 -10 31639.5 1009.06  35
  -4  12  -9 65783.7 1514.67  35
  -4  12  -9 54921.7 1281.41  46
  -4  12  -8 5677.77 572.840  35
  -4  12  -8 641.033 213.534  46
  -4  12  -7 51278.1 1362.92  35
  -4  12  -7 49845.3 1431.26  46
  -4  12  -6 22564.1 868.616  35
  -4  12  -6 24720.5 1032.70  46
  -4  12  -5 4361.26 454.878  46
  -4  12  -5 3193.45 310.576  35
  -4  12  -4 48852.3 1379.31  46
  -4  12  -3 17805.3 790.233  46
  -4  12  -2 8455.45 504.020  46
  -4  12  -1 33559.2 852.866  46
  -4  13 -10 754.866 169.257  35
  -4  13  -9 22938.0 716.436  35
  -4  13  -8 9743.16 502.030  46
  -4  13  -8 9382.76 467.978  35
  -4  13  -7 10916.0 468.688  35
  -4  13  -7 13001.9 607.109  46
  -4  13  -6 33355.2 977.898  46
  -4  13  -5 13088.5 598.663  46
  -4  13  -4 3630.66 307.602  46
  -4  13  -3 31835.2 770.315  46
  -3 -14   6 16955.0 545.255  50
  -3 -14   7 1407.33 188.615  50
  -3 -14   8 28074.3 789.660  50
  -3 -14   9 6925.45 396.864  50
  -3 -13   2 55.0168 90.2355  29
  -3 -13   3 37770.0 944.153  29
  -3 -13   4 12624.8 578.547  29
  -3 -13   4 12371.5 555.074  50
  -3 -13   5 9361.10 510.628  29
  -3 -13   5 8882.34 524.684  50
  -3 -13   6 36162.3 975.689  29
  -3 -13   6 38457.5 1138.78  50
  -3 -13   7 8262.65 562.714  50
  -3 -13   7 7479.28 426.513  28
  -3 -13   8 16935.3 797.836  50
  -3 -13   9 32643.4 1074.82  50
  -3 -13  10 2437.14 305.489  50
  -3 -12  -1 31032.6 680.425  29
  -3 -12   0 1384.91 199.780  29
  -3 -12   1 27045.1 873.894  29
  -3 -12   2 30707.2 1005.97  29
  -3 -12   2 28455.6 859.866  50
  -3 -12   3 4163.51 407.750  29
  -3 -12   3 3451.69 356.688  50
  -3 -12   4 37465.3 1226.13  50
  -3 -12   4 37039.4 1173.10  29
  -3 -12   5 18809.7 928.413  50
  -3 -12   5 17057.1 802.732  29
  -3 -12   6 1777.42 285.322  29
  -3 -12   6 1837.21 353.889  50
  -3 -12   7 30172.5 1004.56  29
  -3 -12   7 34590.1 1326.73  50
  -3 -12   8 5639.21 563.244  50
  -3 -12   9 25050.7 1104.17  50
  -3 -12  10 61224.3 1616.92  50
  -3 -12  10 61716.5 1432.90  40
  -3 -12  11 8941.97 558.494  40
  -3 -12  11 8907.82 574.490  50
  -3 -12  12 22317.0 823.701  40
  -3 -12  13 19603.5 677.297  40
  -3 -11  -2 29.1747 97.1963  29
  -3 -11  -1 50166.8 1199.40  29
  -3 -11   0 44790.8 1260.67  29
  -3 -11   1 2927.34 383.603  29
  -3 -11   1 1938.38 272.241  50
  -3 -11   2 64261.3 1628.45  50
  -3 -11   2 67853.8 1710.75  29
  -3 -11   3 7481.46 609.210  50
  -3 -11   3 6679.16 562.482  29
  -3 -11   4 15740.1 853.879  29
  -3 -11   4 15440.0 912.363  50
  -3 -11   5 39857.3 1333.32  29
  -3 -11   5 42377.8 1549.96  50
  -3 -11   6 15732.1 828.403  29
  -3 -11   6 18350.3 1054.11  50
  -3 -11   7 8824.56 746.817  50
  -3 -11   7 7716.83 552.474  29
  -3 -11   8 62672.9 1923.32  50
  -3 -11   9 17503.3 1009.73  50
  -3 -11   9 18153.0 945.293  40
  -3 -11  10 20421.8 1025.14  50
  -3 -11  10 21270.0 1040.36  40
  -3 -11  11 68767.2 1823.55  40
  -3 -11  11 65216.4 1660.72  50
  -3 -11  12 723.299 234.531  40
  -3 -11  13 21660.5 883.673  40
  -3 -11  14 19387.8 688.330  40
  -3 -10  -4 1800.57 178.416  29
  -3 -10  -3 32218.3 912.070  29
  -3 -10  -2 47385.0 1281.07  29
  -3 -10  -2 43862.0 1048.89  48
  -3 -10  -1 176.103 188.677  29
  -3 -10   0 55927.8 1608.35  29
  -3 -10   0 50803.9 1390.24  50
  -3 -10   1 36150.3 1331.45  29
  -3 -10   1 34655.5 1268.74  50
  -3 -10   2 31606.7 1262.36  29
  -3 -10   2 28734.6 1225.56  50
  -3 -10   3 85363.8 2065.74  29
  -3 -10   3 89163.2 2240.74  50
  -3 -10   4 29504.7 1342.12  50
  -3 -10   4 26711.7 2349.69  26
  -3 -10   4 26676.0 1153.62  29
  -3 -10   5 4872.24 492.372  29
  -3 -10   5 6348.22 650.900  50
  -3 -10   5 5030.00 1095.31  26
  -3 -10   6 46611.4 1744.37  50
  -3 -10   6 45117.1 1409.55  29
  -3 -10   6 46973.8 3401.34  26
  -3 -10   7 12951.1 930.781  50
  -3 -10   8 20408.9 1146.73  50
  -3 -10   8 21004.1 1097.14  40
  -3 -10   9 46865.2 1689.11  50
  -3 -10   9 46977.6 1707.07  40
  -3 -10  10 3516.12 460.511  50
  -3 -10  10 3430.59 495.008  40
  -3 -10  11 50447.2 1753.63  40
  -3 -10  11 45114.7 1428.85  50
  -3 -10  12 41827.3 1525.87  40
  -3 -10  13 998.132 283.860  40
  -3 -10  14 24658.1 892.397  40
  -3  -9  -5 24243.1 674.839  29
  -3  -9  -5 22090.4 618.270  48
  -3  -9  -4 61799.0 1351.81  29
  -3  -9  -4 56041.1 1207.26  48
  -3  -9  -3 1381.95 238.851  48
  -3  -9  -3 1535.10 288.264  29
  -3  -9  -2 43886.2 1262.10  48
  -3  -9  -2 48474.7 1502.04  29
  -3  -9  -1 35289.2 1340.78  29
  -3  -9   0 5103.76 541.068  29
  -3  -9   1 121845. 2540.05  29
  -3  -9   2 31002.2 1284.02  29
  -3  -9   2 32956.1 2488.66  26
  -3  -9   3 16885.7 1924.17  26
  -3  -9   3 17028.3 940.635  29
  -3  -9   4 134919. 2699.13  49
  -3  -9   4 139247. 2931.47  50
  -3  -9   4 144099. 5784.32  26
  -3  -9   4 130629. 2543.34  29
  -3  -9   5 62714.2 1971.73  49
  -3  -9   5 61917.2 3947.49  26
  -3  -9   5 64466.4 2032.06  50
  -3  -9   5 58982.8 1645.56  29
  -3  -9   6 3783.40 529.007  49
  -3  -9   6 4230.53 545.499  50
  -3  -9   6 4627.52 1169.98  26
  -3  -9   7 37332.0 1656.68  49
  -3  -9   7 39379.2 1609.41  50
  -3  -9   7 36677.3 3196.14  26
  -3  -9   7 39349.5 1530.74  40
  -3  -9   8 7465.60 771.776  49
  -3  -9   8 5772.94 629.059  50
  -3  -9   8 7257.79 707.079  40
  -3  -9   9 72582.8 2093.95  50
  -3  -9   9 77824.4 2346.12  40
  -3  -9  10 71158.5 1943.40  50
  -3  -9  10 70797.7 2289.50  40
  -3  -9  11 24.4349 257.481  40
  -3  -9  11 66.4273 151.229  50
  -3  -9  12 23719.4 1246.43  40
  -3  -9  13 28703.6 1244.89  40
  -3  -9  14 234.824 159.236  40
  -3  -8  -6 36951.4 879.663  29
  -3  -8  -6 37032.9 894.838  48
  -3  -8  -5 3366.17 351.620  29
  -3  -8  -5 3787.00 366.905  48
  -3  -8  -4 35299.0 1220.99  29
  -3  -8  -4 35264.3 1156.51  48
  -3  -8  -3 65391.3 1792.05  29
  -3  -8  -3 65006.1 1651.75  48
  -3  -8  -2 85.7922 180.814  29
  -3  -8  -2 344.786 195.773  33
  -3  -8  -1 63720.4 1858.34  29
  -3  -8  -1 64546.6 1933.97  33
  -3  -8   0 82262.2 2107.26  29
  -3  -8   0 83154.0 2220.40  33
  -3  -8   1 11100.0 1464.92  26
  -3  -8   1 10094.3 795.476  33
  -3  -8   1 10092.7 737.612  29
  -3  -8   2 101587. 2272.82  29
  -3  -8   2 105066. 2500.49  33
  -3  -8   2 107231. 4780.66  26
  -3  -8   2 99496.4 5019.82   2
  -3  -8   3 43691.0 1457.41  29
  -3  -8   3 47137.9 1668.60  33
  -3  -8   3 41215.5 3224.54   2
  -3  -8   3 48081.5 1573.25  49
  -3  -8   3 46687.2 3261.14  26
  -3  -8   4 49710.6 3492.08  26
  -3  -8   4 44747.0 1624.53  49
  -3  -8   4 46571.3 1440.51  29
  -3  -8   4 51007.6 3582.43   2
  -3  -8   5 192028. 3539.95  49
  -3  -8   5 191626. 3439.37  50
  -3  -8   5 187331. 6799.04   2
  -3  -8   5 202700. 7218.48  26
  -3  -8   6 48777.1 1551.10  34
  -3  -8   6 49960.0 1785.60  50
  -3  -8   6 51398.3 1900.16  49
  -3  -8   6 49041.4 3703.86  26
  -3  -8   7 38832.6 1564.44  50
  -3  -8   7 40080.4 1521.05  34
  -3  -8   7 41833.2 3465.65  26
  -3  -8   7 40390.3 1746.00  49
  -3  -8   8 63350.5 1960.58  50
  -3  -8   8 59452.7 4159.55  26
  -3  -8   8 62824.7 2230.60  49
  -3  -8   9 4210.01 499.597  50
  -3  -8  10 43158.6 1500.48  43
  -3  -8  10 40181.0 1390.24  50
  -3  -8  10 42956.5 1865.18  40
  -3  -8  11 40208.3 1468.55  43
  -3  -8  11 37762.1 1726.55  40
  -3  -8  12 9516.96 740.334  43
  -3  -8  12 3364.04 551.511  40
  -3  -8  13 23248.7 1156.80  40
  -3  -8  14 15963.1 792.078  40
  -3  -7  -7 1166.79 178.220  29
  -3  -7  -7 1790.06 236.198  48
  -3  -7  -6 27302.0 981.326  48
  -3  -7  -6 24731.7 915.659  29
  -3  -7  -5 40944.5 1345.36  29
  -3  -7  -4 527.138 323.787  29
  -3  -7  -4 111.575 141.391  33
  -3  -7  -3 55978.6 1750.56  29
  -3  -7  -3 54751.6 1690.49  33
  -3  -7  -2 46942.2 1603.41  29
  -3  -7  -2 44345.8 1596.25  33
  -3  -7  -1 807.399 309.986  29
  -3  -7  -1 632.461 242.378  33
  -3  -7   0 108685. 2373.25  29
  -3  -7   0 114692. 4648.20  26
  -3  -7   0 108411. 5238.36   2
  -3  -7   0 112020. 2575.35  33
  -3  -7   1 49397.7 3523.40   2
  -3  -7   1 50308.3 1574.12  29
  -3  -7   1 57053.9 3430.91  26
  -3  -7   1 53786.0 1769.10  33
  -3  -7   2 21862.9 2326.99   2
  -3  -7   2 22344.1 1008.29  29
  -3  -7   2 19946.7 973.752  49
  -3  -7   2 22739.5 2258.61  26
  -3  -7   2 22756.1 1128.49  33
  -3  -7   3 151096. 5995.85   2
  -3  -7   3 145845. 2775.57  49
  -3  -7   3 148557. 2803.68  33
  -3  -7   3 141765. 2447.65  29
  -3  -7   4 8824.21 1546.42  26
  -3  -7   4 8557.32 1421.09   2
  -3  -7   4 9879.86 780.273  49
  -3  -7   4 9519.76 696.082  33
  -3  -7   5 119601. 2282.41  34
  -3  -7   5 111412. 2693.27  49
  -3  -7   5 121060. 5609.59  26
  -3  -7   6 201238. 3224.70  34
  -3  -7   6 200300. 3753.83  49
  -3  -7   6 204640. 3435.02  50
  -3  -7   6 211598. 7550.47  26
  -3  -7   7 3953.06 577.724  49
  -3  -7   7 3527.48 479.472  34
  -3  -7   7 3792.13 483.675  50
  -3  -7   7 3456.12 1056.30  26
  -3  -7   8 69860.2 2157.59  34
  -3  -7   8 67645.3 2327.27  49
  -3  -7   8 66756.7 1733.27  43
  -3  -7   8 71671.3 4491.56  26
  -3  -7   8 65810.6 1856.59  50
  -3  -7   9 113653. 2364.91  43
  -3  -7   9 115545. 3029.08  49
  -3  -7   9 113384. 2882.24  34
  -3  -7   9 119680. 2373.68  50
  -3  -7  10 8039.92 659.889  43
  -3  -7  11 22070.2 1349.49  40
  -3  -7  11 22173.0 1088.70  43
  -3  -7  12 38017.4 1393.85  43
  -3  -7  12 38431.2 1669.91  40
  -3  -7  13 5353.63 546.869  43
  -3  -7  13 2502.45 429.958  40
  -3  -7  14 44688.2 1261.00  43
  -3  -7  14 39794.5 1195.53  40
  -3  -6  -8 24515.2 794.547  48
  -3  -6  -8 22404.9 685.146  29
  -3  -6  -7 69055.4 1523.20  29
  -3  -6  -6 7111.56 602.424  29
  -3  -6  -5 63570.7 1648.80  33
  -3  -6  -5 66416.4 1864.16  29
  -3  -6  -5 64306.2 3420.29  23
  -3  -6  -4 74328.5 2027.92  29
  -3  -6  -4 67998.1 1878.46  33
  -3  -6  -4 71320.4 3685.19  23
  -3  -6  -3 16800.7 981.922  33
  -3  -6  -3 18493.8 1895.88  23
  -3  -6  -3 14051.1 884.050  52
  -3  -6  -2 153271. 6160.71   2
  -3  -6  -2 149545. 2832.46  29
  -3  -6  -2 147499. 2885.84  52
  -3  -6  -2 161469. 5171.91  23
  -3  -6  -2 149267. 2918.02  33
  -3  -6  -1 124557. 4796.01  26
  -3  -6  -1 118883. 2442.56  29
  -3  -6  -1 119490. 2597.06  33
  -3  -6  -1 125746. 2652.48  52
  -3  -6   0 4323.63 499.675  52
  -3  -6   0 5298.78 532.136  29
  -3  -6   0 5383.72 1128.78  26
  -3  -6   0 4292.89 1055.88   2
  -3  -6   0 5173.78 539.556  33
  -3  -6   1 76396.4 4215.10   2
  -3  -6   1 74756.0 1961.06  33
  -3  -6   1 80423.6 4084.50  26
  -3  -6   2 61993.5 3685.94   2
  -3  -6   2 66046.5 3790.54  26
  -3  -6   3 8663.43 1443.27  26
  -3  -6   3 8783.51 1384.07   2
  -3  -6   4 69497.2 4089.35  26
  -3  -6   4 67524.7 3731.23   2
  -3  -6   5 9527.60 1558.18  26
  -3  -6   5 10971.4 837.924  49
  -3  -6   6 82359.1 2086.65  34
  -3  -6   6 79467.1 1986.02  50
  -3  -6   6 79001.8 2337.15  49
  -3  -6   6 91170.9 3903.40   4
  -3  -6   6 90048.8 4808.10  26
  -3  -6   7 97120.9 5041.83  26
  -3  -6   7 90606.2 1855.63  43
  -3  -6   7 93397.9 2626.02  49
  -3  -6   7 95646.6 2412.61  34
  -3  -6   7 96163.1 2111.90  50
  -3  -6   8 5963.47 686.589  49
  -3  -6   8 5512.86 500.204  43
  -3  -6   8 4853.03 595.964  34
  -3  -6   8 3993.02 1076.80  26
  -3  -6   9 55807.4 2052.81  49
  -3  -6   9 59644.2 2099.92  34
  -3  -6   9 57112.0 1665.60  43
  -3  -6  10 59660.2 2165.91  34
  -3  -6  10 62125.1 1811.46  43
  -3  -6  11 752.050 334.590  40
  -3  -6  11 880.482 255.523  43
  -3  -6  12 34980.4 1351.53  43
  -3  -6  12 32488.8 1507.95  40
  -3  -6  13 10387.7 717.361  43
  -3  -6  13 9429.35 706.932  40
  -3  -6  14 7283.11 537.527  43
  -3  -5  -9 34978.3 810.198  29
  -3  -5  -8 19486.3 807.290  29
  -3  -5  -7 18996.7 978.933  29
  -3  -5  -6 48284.6 1469.08  16
  -3  -5  -6 52363.0 3249.81  23
  -3  -5  -5 4512.47 481.940  33
  -3  -5  -5 3334.13 421.970  52
  -3  -5  -5 5323.63 1197.99  23
  -3  -5  -4 293020. 3951.33  52
  -3  -5  -4 300622. 3797.74  16
  -3  -5  -4 304562. 4066.41  33
  -3  -5  -3 168476. 2753.81  16
  -3  -5  -3 162858. 2974.75  52
  -3  -5  -3 174328. 5703.57  23
  -3  -5  -3 164862. 6362.07   2
  -3  -5  -3 166055. 3039.29  33
  -3  -5  -2 15482.9 805.157  16
  -3  -5  -2 15669.6 919.957  33
  -3  -5  -2 15648.0 1948.39   2
  -3  -5  -2 13322.4 853.051  52
  -3  -5  -2 15931.9 1631.72  23
  -3  -5  -1 288882. 3855.41  52
  -3  -5  -1 292740. 8205.23   2
  -3  -5  -1 307639. 3942.56  33
  -3  -5  -1 299338. 3295.49  16
  -3  -5   0 50906.7 3319.33   2
  -3  -5   1 31603.6 2541.72   2
  -3  -5   1 27445.9 2371.44  26
  -3  -5   2 140012. 5424.80  26
  -3  -5   2 143213. 5218.37   2
  -3  -5   3 8771.72 1415.34  26
  -3  -5   3 7903.20 1233.00   2
  -3  -5   4 66547.1 3874.51  26
  -3  -5   4 71503.3 3639.03   2
  -3  -5   5 272940. 7976.91  26
  -3  -5   5 274931. 6718.13   4
  -3  -5   6 34396.4 2860.10  26
  -3  -5   6 34974.2 2347.35   4
  -3  -5   7 42352.9 1706.97  49
  -3  -5   7 42884.8 1637.54  34
  -3  -5   7 44917.6 3218.63  26
  -3  -5   7 41196.3 1233.03  43
  -3  -5   8 115656. 2851.19  49
  -3  -5   8 114542. 2210.54  43
  -3  -5   8 114536. 2824.21  34
  -3  -5   8 115910. 5063.16  26
  -3  -5   9 257.224 187.371  49
  -3  -5   9 319.797 148.851  43
  -3  -5   9 790.374 305.567  34
  -3  -5  10 96799.3 2716.47  34
  -3  -5  10 97965.7 2284.43  43
  -3  -5  11 69399.1 2253.34  34
  -3  -5  11 75113.9 2395.80  40
  -3  -5  11 73679.6 2016.11  43
  -3  -5  12 2427.48 434.139  40
  -3  -5  12 2112.94 361.876  43
  -3  -5  13 26173.8 1058.89  40
  -3  -5  13 26454.0 1115.96  43
  -3  -5  14 18819.2 818.110  43
  -3  -4 -10 3316.69 232.469  29
  -3  -4  -9 20457.6 800.629  29
  -3  -4  -8 89669.8 1961.81  29
  -3  -4  -7 22028.3 1044.09  16
  -3  -4  -7 23359.9 2252.11  23
  -3  -4  -6 25496.1 1124.82  52
  -3  -4  -6 24696.4 1163.57  16
  -3  -4  -6 25868.2 2398.15  23
  -3  -4  -6 26187.3 1105.86  33
  -3  -4  -5 86147.0 2115.35  33
  -3  -4  -5 84849.5 4312.39  23
  -3  -4  -5 82944.1 2061.73  52
  -3  -4  -5 80133.6 2101.55  16
  -3  -4  -4 7124.43 1320.33   2
  -3  -4  -4 6198.62 611.704  52
  -3  -4  -4 6783.87 1184.03  23
  -3  -4  -4 6838.88 615.006  33
  -3  -4  -4 6163.84 576.611  16
  -3  -4  -3 148741. 5863.76   2
  -3  -4  -3 151470. 2719.48  52
  -3  -4  -3 150198. 2677.72  16
  -3  -4  -3 168345. 2910.33  33
  -3  -4  -3 167545. 5422.32  23
  -3  -4  -2 127319. 2323.22  16
  -3  -4  -2 127122. 5253.65   2
  -3  -4  -1 20553.7 2043.87   2
  -3  -4  -1 19434.8 850.198  16
  -3  -4   0 136119. 5024.00   2
  -3  -4   1 23539.0 2034.92   2
  -3  -4   2 129110. 4597.77   2
  -3  -4   3 191789. 6258.63  26
  -3  -4   3 200549. 5707.38   2
  -3  -4   4 45195.8 3083.19  26
  -3  -4   5 111484. 4116.73   4
  -3  -4   5 112082. 4873.88  26
  -3  -4   6 141051. 5390.52  26
  -3  -4   6 137690. 4584.13   4
  -3  -4   7 7460.04 596.817  46
  -3  -4   7 6962.82 666.639  34
  -3  -4   7 6419.95 1160.05  26
  -3  -4   7 5618.50 955.955   4
  -3  -4   7 7361.89 681.027  49
  -3  -4   8 101210. 4319.49  26
  -3  -4   8 95531.9 2584.84  34
  -3  -4   8 97634.5 2044.92  43
  -3  -4   8 93344.2 2401.61  49
  -3  -4   8 95687.9 2291.81  46
  -3  -4   9 85475.1 2061.09  43
  -3  -4   9 86176.1 2228.03  49
  -3  -4   9 82538.0 2461.03  34
  -3  -4  10 1071.62 320.325  34
  -3  -4  10 682.293 236.796  43
  -3  -4  11 78545.3 2295.08  34
  -3  -4  11 81672.4 2151.52  43
  -3  -4  12 25523.3 1168.18  40
  -3  -4  12 25141.3 1175.51  43
  -3  -4  13 170.128 221.677  43
  -3  -4  14 27519.5 946.138  43
  -3  -3 -10 69995.0 1372.81  29
  -3  -3  -8 84132.3 2075.65  16
  -3  -3  -8 88498.6 4359.74  23
  -3  -3  -7 154849. 2698.12  52
  -3  -3  -7 156954. 3003.18  16
  -3  -3  -6 10266.8 741.381  52
  -3  -3  -6 9868.60 695.625  33
  -3  -3  -6 8513.59 727.004  16
  -3  -3  -5 92517.2 2302.97  16
  -3  -3  -5 85758.8 4468.58   2
  -3  -3  -4 45631.8 1557.31  16
  -3  -3  -4 45108.3 3169.61   2
  -3  -3  -3 13521.5 1671.48   2
  -3  -3  -3 12965.3 784.098  16
  -3  -3  -2 216904. 6376.72   2
  -3  -3  -2 212091. 2914.44  16
  -3  -3  -1 114896. 2005.84  16
  -3  -3  -1 117496. 4430.84   2
  -3  -3   0 28974.7 2107.83   2
  -3  -3   1 395103. 7503.20   2
  -3  -3   2 63245.1 2975.87   2
  -3  -3   3 84552.5 4027.90  26
  -3  -3   4 320858. 6800.97   4
  -3  -3   4 304865. 7648.56  26
  -3  -3   5 19607.3 1685.93   4
  -3  -3   5 19375.9 1917.88  26
  -3  -3   6 74803.4 3406.85   4
  -3  -3   6 75118.9 3624.67  26
  -3  -3   7 89400.0 3798.73  26
  -3  -3   7 85196.1 2254.61  34
  -3  -3   7 89847.7 2071.20  46
  -3  -3   7 84334.1 3744.63   4
  -3  -3   8 466.377 208.254  46
  -3  -3   8 153.614 180.645  34
  -3  -3   9 83115.7 2427.71  34
  -3  -3   9 87595.5 2137.03  43
  -3  -3   9 86557.3 2318.63  46
  -3  -3  10 67244.3 2120.29  34
  -3  -3  10 71599.2 2019.22  43
  -3  -3  11 3506.56 470.456  34
  -3  -3  11 3126.70 440.699  40
  -3  -3  11 2721.48 435.718  43
  -3  -3  12 41208.1 1490.14  43
  -3  -3  13 28931.2 1127.59  43
  -3  -3  14 5038.86 394.379  43
  -3  -2 -11 7281.08 430.843  29
  -3  -2  -9 67027.8 3748.84  23
  -3  -2  -8 1152.04 319.512  52
  -3  -2  -7 89894.4 2383.54  16
  -3  -2  -7 101039. 2154.32  33
  -3  -2  -6 114137. 2679.85  16
  -3  -2  -6 105387. 4807.40   2
  -3  -2  -5 9862.79 1296.57  25
  -3  -2  -5 8965.52 1399.18   2
  -3  -2  -5 12275.9 855.517  16
  -3  -2  -4 190123. 3105.29  16
  -3  -2  -4 199654. 5744.11  25
  -3  -2  -3 189784. 5502.95  25
  -3  -2  -3 179916. 5644.83   2
  -3  -2  -3 179092. 2798.75  16
  -3  -2  -2 9281.10 610.679  16
  -3  -2  -2 9472.06 1215.91   2
  -3  -2  -2 8953.20 1232.05  25
  -3  -2  -1 222896. 5528.58   2
  -3  -2  -1 212668. 2635.30  16
  -3  -2   0 63149.4 2798.05   2
  -3  -2   1 284542. 5833.35   2
  -3  -2   2 415172. 7065.41   2
  -3  -2   3 49483.5 2586.90   4
  -3  -2   4 91411.6 3929.67  26
  -3  -2   4 97289.9 3651.96   4
  -3  -2   5 76587.3 3346.93   4
  -3  -2   5 80376.1 3542.21  26
  -3  -2   6 1777.47 524.785  26
  -3  -2   6 1327.65 505.466   4
  -3  -2   7 36259.5 2542.92   4
  -3  -2   7 38345.7 1227.14  43
  -3  -2   7 39195.0 1511.02  34
  -3  -2   7 39029.9 1403.17  46
  -3  -2   8 54562.8 1872.86  34
  -3  -2   8 57504.0 1652.20  43
  -3  -2   8 57117.7 1831.02  46
  -3  -2   9 668.688 261.650  46
  -3  -2   9 1251.62 312.559  34
  -3  -2   9 679.775 234.947  43
  -3  -2  10 83667.3 2219.73  43
  -3  -2  10 82466.3 2223.32  34
  -3  -2  10 79814.8 2260.68  46
  -3  -2  11 47174.8 1667.82  43
  -3  -2  12 258.474 221.502  43
  -3  -2  13 33161.9 1143.81  43
  -3  -2  14 10799.8 497.829  43
  -3  -1  -9 68009.7 2007.87  16
  -3  -1  -7 210.961 224.071  16
  -3  -1  -6 123358. 2781.63  16
  -3  -1  -6 136167. 4908.08  25
  -3  -1  -5 122937. 4640.50  25
  -3  -1  -5 117318. 4630.13   2
  -3  -1  -5 123397. 2626.24  16
  -3  -1  -4 1704.95 528.880   2
  -3  -1  -4 2434.43 695.299  25
  -3  -1  -4 3372.66 437.277  16
  -3  -1  -3 377735. 7728.45  25
  -3  -1  -3 385878. 7336.02   2
  -3  -1  -3 384958. 3938.38  16
  -3  -1  -2 333183. 6379.77   2
  -3  -1  -2 326607. 6978.26  25
  -3  -1  -2 338242. 3422.14  16
  -3  -1  -1 14942.9 1274.03   2
  -3  -1  -1 17040.6 1585.84  25
  -3  -1   0 408997. 7580.59  25
  -3  -1   0 421940. 6507.32   2
  -3  -1   1 881.238 355.157   2
  -3  -1   2 363977. 6771.29   4
  -3  -1   3 360673. 6879.16   4
  -3  -1   4 1038.15 453.484  26
  -3  -1   4 888.921 437.098   4
  -3  -1   5 131508. 4514.68   4
  -3  -1   6 90428.8 3952.27   4
  -3  -1   7 75.7531 201.661   4
  -3  -1   7 167.377 174.914  46
  -3  -1   7 626.438 214.134  34
  -3  -1   7 79.1216 128.839  43
  -3  -1   8 107504. 2511.71  34
  -3  -1   8 103442. 4680.57   4
  -3  -1   8 113879. 2404.76  43
  -3  -1   8 110717. 2595.22  46
  -3  -1   9 93915.1 2318.40  34
  -3  -1   9 100299. 2523.71  46
  -3  -1   9 99679.9 2383.88  43
  -3  -1  10 242.250 207.720  46
  -3  -1  10 410.580 221.075  43
  -3  -1  11 42263.5 1562.39  43
  -3  -1  12 35898.8 1318.69  43
  -3  -1  13 1326.59 245.351  43
  -3   0  -9 1878.99 373.865  16
  -3   0  -8 97029.0 2515.21  16
  -3   0  -7 152112. 5346.04  25
  -3   0  -7 140793. 2988.82  16
  -3   0  -6 6920.05 1150.50  25
  -3   0  -6 6804.02 652.218  16
  -3   0  -5 164688. 2910.38  16
  -3   0  -5 156614. 5237.78  25
  -3   0  -4 217909. 3062.75  16
  -3   0  -4 221451. 5164.66   2
  -3   0  -4 218003. 5980.46  25
  -3   0  -3 748.371 401.552  25
  -3   0  -3 488.239 304.509   2
  -3   0  -3 205.143 162.374  16
  -3   0  -2 231196. 5784.98  25
  -3   0  -2 240230. 4647.18   2
  -3   0  -1 116851. 4058.56  25
  -3   0  -1 118079. 3164.89   2
  -3   0   0 86613.5 3446.61  25
  -3   0   0 88079.0 2718.03   2
  -3   0   0 94347.1 3307.24   4
  -3   0   1 140660. 4061.47   4
  -3   0   2 4887.98 809.326   4
  -3   0   3 225113. 5520.32   4
  -3   0   4 278800. 6473.16   4
  -3   0   5 9673.72 1301.68   4
  -3   0   6 65914.6 3549.09   4
  -3   0   7 53678.4 1594.15  43
  -3   0   7 52603.4 1663.59  34
  -3   0   7 56310.9 1800.68  46
  -3   0   8 20218.7 1059.37  43
  -3   0   8 22132.5 2250.55   4
  -3   0   8 18844.5 1084.15  46
  -3   0   8 21115.6 1060.29  34
  -3   0   9 119461. 2673.63  43
  -3   0   9 116319. 2676.37  46
  -3   0  10 23571.6 1213.73  43
  -3   0  10 22505.5 1129.46  46
  -3   0  11 3115.00 457.926  43
  -3   0  12 34559.2 1196.06  43
  -3   0  13 9928.67 499.698  43
  -3   1 -10 54717.2 1794.07  16
  -3   1  -9 96984.0 2489.64  16
  -3   1  -8 340.569 484.213  25
  -3   1  -8 649.049 271.594  16
  -3   1  -7 301441. 7699.23  25
  -3   1  -7 294989. 4193.55  16
  -3   1  -6 217836. 6413.47  25
  -3   1  -6 219015. 3422.36  16
  -3   1  -5 23449.1 1044.39  16
  -3   1  -5 25385.9 2122.60  25
  -3   1  -4 309770. 3436.93  16
  -3   1  -4 292727. 6914.32  25
  -3   1  -3 83260.6 1676.26  16
  -3   1  -3 81041.5 3515.25  25
  -3   1  -2 111262. 3979.52  25
  -3   1  -2 115349. 2698.58   2
  -3   1  -1 385321. 7237.52  25
  -3   1  -1 390831. 2585.77  12
  -3   1  -1 397798. 6529.70   4
  -3   1   0 23248.3 589.153  12
  -3   1   0 22921.6 1608.47   4
  -3   1   0 23507.2 1766.56  25
  -3   1   1 72355.9 2939.74   4
  -3   1   1 72365.0 2968.17  25
  -3   1   2 453951. 7674.81   4
  -3   1   3 186591. 5257.42   4
  -3   1   4 48214.9 2828.18   4
  -3   1   5 189530. 6012.91   4
  -3   1   6 7281.55 636.953  46
  -3   1   6 5864.16 1164.18   4
  -3   1   6 6648.41 566.285  34
  -3   1   6 6394.49 538.454  43
  -3   1   7 128691. 2614.48  43
  -3   1   7 126063. 2736.47  46
  -3   1   7 122804. 5430.48   4
  -3   1   8 50550.7 1731.07  43
  -3   1   8 50924.8 1757.63  46
  -3   1   9 19822.2 1065.92  46
  -3   1   9 21243.1 1152.35  43
  -3   1  10 46008.3 1481.10  46
  -3   1  10 49837.6 1699.84  43
  -3   1  11 22090.6 1036.01  43
  -3   1  12 1687.21 262.078  43
  -3   2 -10 2625.44 415.909  16
  -3   2  -9 97468.2 4488.72  25
  -3   2  -9 90963.9 2356.13  16
  -3   2  -8 161008. 5868.81  25
  -3   2  -8 158440. 3049.31  16
  -3   2  -7 49.2360 385.178  25
  -3   2  -7 146.892 180.854  16
  -3   2  -6 154733. 2687.94  16
  -3   2  -6 146900. 5384.90  25
  -3   2  -5 55792.8 3178.18  25
  -3   2  -5 57765.7 1528.19  16
  -3   2  -5 55430.0 3200.70  11
  -3   2  -4 114320. 4358.97  11
  -3   2  -4 111246. 4295.38  25
  -3   2  -4 115543. 3307.65   4
  -3   2  -4 115537. 2010.28  16
  -3   2  -3 344658. 5809.81   4
  -3   2  -3 341935. 7257.12  25
  -3   2  -2 46808.2 2168.64   4
  -3   2  -2 44698.8 988.672  12
  -3   2  -2 46909.7 2603.12  25
  -3   2  -1 200541. 1967.94  12
  -3   2  -1 197043. 5163.49  25
  -3   2  -1 203461. 4619.43   4
  -3   2   0 144188. 4045.83   4
  -3   2   0 139162. 4179.94  25
  -3   2   1 28266.8 1754.57  25
  -3   2   1 27590.5 1898.19   4
  -3   2   2 78017.3 3381.50   4
  -3   2   3 165144. 5223.96   4
  -3   2   4 888.016 435.100   4
  -3   2   5 152252. 2802.20  46
  -3   2   5 147013. 5641.04   4
  -3   2   6 148521. 2916.20  46
  -3   2   6 146321. 2721.61  43
  -3   2   7 5764.55 604.325  46
  -3   2   7 5257.56 576.190  43
  -3   2   8 103716. 2520.00  43
  -3   2   8 101075. 2402.02  46
  -3   2   9 28886.1 1327.82  43
  -3   2   9 28060.4 1184.15  46
  -3   2  10 381.851 157.401  46
  -3   2  10 197.715 233.400  43
  -3   2  11 23566.2 952.150  43
  -3   2  12 7704.93 416.815  43
  -3   3 -11 132632. 2561.77  16
  -3   3 -10 184203. 6221.71  25
  -3   3 -10 175837. 3126.21  16
  -3   3  -9 6916.50 1314.91  25
  -3   3  -9 6875.91 635.325  16
  -3   3  -8 166195. 6231.29  11
  -3   3  -8 167309. 6199.98  25
  -3   3  -8 161702. 2919.78  16
  -3   3  -7 207124. 3137.16  16
  -3   3  -7 212213. 6866.36  11
  -3   3  -7 206702. 6773.44  25
  -3   3  -6 1606.75 693.918  11
  -3   3  -6 1324.16 280.651  16
  -3   3  -6 1928.04 769.286  25
  -3   3  -5 232390. 6629.49  25
  -3   3  -5 236397. 6616.07  11
  -3   3  -4 170870. 2256.60  12
  -3   3  -4 166918. 5243.38  11
  -3   3  -4 163131. 5315.11  25
  -3   3  -3 52624.4 1190.40  12
  -3   3  -3 53516.0 2939.04  25
  -3   3  -3 53181.3 2814.54  11
  -3   3  -3 53999.0 2246.46   4
  -3   3  -2 431008. 7982.27  25
  -3   3  -2 435705. 3254.48  12
  -3   3  -2 438458. 6714.35   4
  -3   3  -1 69105.5 3048.27  25
  -3   3  -1 65755.6 2737.66   4
  -3   3   0 38125.5 2113.59  25
  -3   3   0 37285.2 2179.66   4
  -3   3   1 174083. 5047.46   4
  -3   3   2 4229.70 881.246   4
  -3   3   3 154891. 5431.20   4
  -3   3   4 82372.3 2056.48  46
  -3   3   4 77928.9 4135.59   4
  -3   3   5 2460.62 394.841  46
  -3   3   5 2927.10 384.147  51
  -3   3   5 3775.51 1012.19   4
  -3   3   5 2521.69 374.030  43
  -3   3   6 145931. 6266.66   4
  -3   3   6 142425. 2850.65  43
  -3   3   6 137106. 2816.92  46
  -3   3   7 69110.1 2056.70  43
  -3   3   7 67950.9 1959.61  46
  -3   3   8 799.017 268.966  43
  -3   3   8 953.137 257.576  46
  -3   3   9 28220.8 1252.13  43
  -3   3   9 26925.0 1038.79  46
  -3   3  10 27124.7 1081.29  43
  -3   3  11 25.5331 123.734  43
  -3   4 -11 5353.98 561.164  12
  -3   4 -11 4834.74 1011.84  25
  -3   4 -10 104751. 2288.97  16
  -3   4 -10 106054. 4998.71  25
  -3   4  -9 157265. 6245.83  11
  -3   4  -9 158965. 6238.59  25
  -3   4  -9 154793. 2776.10  16
  -3   4  -8 8099.71 1431.46  11
  -3   4  -8 6457.35 1316.21  25
  -3   4  -8 7511.67 600.495  16
  -3   4  -7 107087. 4929.14  11
  -3   4  -7 104794. 4471.47  20
  -3   4  -7 108564. 5048.05  25
  -3   4  -6 77608.4 3846.30  20
  -3   4  -6 79677.3 1820.90  12
  -3   4  -6 78886.1 4157.65  25
  -3   4  -6 79981.2 4092.29  11
  -3   4  -5 44339.0 2990.57  25
  -3   4  -5 45820.9 2937.60  20
  -3   4  -5 47111.9 2964.59  11
  -3   4  -5 48292.4 1313.74  12
  -3   4  -4 531847. 4102.98  12
  -3   4  -4 514674. 9654.85  25
  -3   4  -4 515511. 9292.58  11
  -3   4  -3 136888. 4814.28  25
  -3   4  -3 142128. 4619.98  11
  -3   4  -3 142788. 2032.01  12
  -3   4  -3 144352. 3784.77   4
  -3   4  -2 193693. 5404.22  25
  -3   4  -2 209078. 4868.86   4
  -3   4  -1 259723. 5844.73   4
  -3   4  -1 261377. 5754.47  25
  -3   4   0 22465.2 1832.31   4
  -3   4   1 98409.9 4050.54   4
  -3   4   2 158182. 5507.90   4
  -3   4   3 3074.23 416.120  46
  -3   4   3 4511.80 1027.33   4
  -3   4   4 105870. 2428.11  46
  -3   4   4 101849. 2109.28  51
  -3   4   5 102744. 5293.42   4
  -3   4   5 97085.5 2260.12  51
  -3   4   5 99571.1 2387.36  46
  -3   4   5 101061. 2414.69  43
  -3   4   6 2054.75 351.272  46
  -3   4   6 2668.13 429.982  43
  -3   4   7 65240.5 1820.79  46
  -3   4   7 65697.1 1993.50  43
  -3   4   8 26761.4 1056.00  46
  -3   4   8 26982.2 1225.33  43
  -3   4   9 566.380 233.434  43
  -3   4  10 33311.1 1010.13  43
  -3   5 -12 73917.1 3634.52  25
  -3   5 -11 57610.1 1795.98  12
  -3   5 -11 52994.5 3499.09  25
  -3   5 -10 4823.18 545.500  12
  -3   5 -10 4341.96 1128.96  11
  -3   5 -10 5231.31 1249.79  25
  -3   5  -9 27491.6 2714.47  25
  -3   5  -9 25464.5 1194.97  12
  -3   5  -9 23694.3 2490.48  11
  -3   5  -9 26220.7 2327.99  20
  -3   5  -8 84845.9 4298.49  20
  -3   5  -8 83932.5 2071.20  12
  -3   5  -8 83148.1 4535.55  11
  -3   5  -7 2167.24 779.780  11
  -3   5  -7 2348.34 359.267  12
  -3   5  -7 2108.49 791.205  20
  -3   5  -6 125286. 5165.99  11
  -3   5  -6 128260. 2333.12  12
  -3   5  -6 123806. 5231.67  20
  -3   5  -5 113035. 4958.38  20
  -3   5  -5 114479. 2086.73  12
  -3   5  -5 106844. 4526.96  11
  -3   5  -4 115952. 4489.36  11
  -3   5  -4 118193. 2015.15  12
  -3   5  -3 593711. 9406.13  11
  -3   5  -3 585127. 10099.5  25
  -3   5  -2 77978.6 3204.24   4
  -3   5  -2 76156.2 2979.06   6
  -3   5  -2 79252.8 3401.51  25
  -3   5  -1 42124.2 2098.61   6
  -3   5  -1 39905.6 2462.48   4
  -3   5   0 119425. 4558.71   4
  -3   5   1 1506.90 596.025   4
  -3   5   2 154730. 2765.76  53
  -3   5   2 150932. 5817.82   4
  -3   5   2 157593. 2908.89  46
  -3   5   3 103932. 5155.69   4
  -3   5   3 110523. 2507.62  53
  -3   5   3 107862. 2468.71  46
  -3   5   4 4473.84 1174.26   4
  -3   5   4 4996.79 547.538  46
  -3   5   4 5421.64 532.513  51
  -3   5   5 65594.6 1908.47  46
  -3   5   5 63013.8 1887.87  51
  -3   5   5 66612.8 2005.04  43
  -3   5   6 51431.0 1613.47  46
  -3   5   6 49554.8 1724.35  43
  -3   5   7 1591.12 280.600  46
  -3   5   7 1748.23 357.511  43
  -3   5   8 31770.1 1213.93  43
  -3   5   9 18328.0 780.402  43
  -3   5  10 7608.94 376.148  43
  -3   6 -12 533.902 414.670  25
  -3   6 -11 75999.6 4344.28  25
  -3   6 -11 77339.1 2042.60  12
  -3   6 -10 79179.5 2108.27  12
  -3   6 -10 81078.7 4614.05  11
  -3   6 -10 77946.6 4584.26  25
  -3   6  -9 2186.03 376.747  12
  -3   6  -9 2377.11 846.408  11
  -3   6  -9 3846.74 998.966  20
  -3   6  -8 162620. 5974.28   6
  -3   6  -8 162921. 6442.24  20
  -3   6  -8 157641. 6343.34  11
  -3   6  -8 169404. 2934.41  12
  -3   6  -7 89751.6 4675.10  11
  -3   6  -7 89676.5 4270.28   6
  -3   6  -7 90646.2 4882.32  20
  -3   6  -7 97508.9 2146.88  12
  -3   6  -6 8414.46 1494.37  20
  -3   6  -6 8075.17 1244.77   6
  -3   6  -6 9456.07 658.410  12
  -3   6  -6 9193.19 1463.64  11
  -3   6  -5 212161. 2943.36  12
  -3   6  -5 203708. 5851.49   6
  -3   6  -5 216801. 7279.36  20
  -3   6  -4 63147.9 3305.43  11
  -3   6  -4 61468.1 3067.45   6
  -3   6  -3 75940.3 3288.15   6
  -3   6  -3 80152.2 3716.29  25
  -3   6  -2 112445. 3808.15   6
  -3   6  -2 113044. 4210.93   4
  -3   6  -1 15095.1 1663.26   4
  -3   6   0 79481.4 4041.01   4
  -3   6   0 86871.8 2173.51  46
  -3   6   1 206710. 6928.60   4
  -3   6   1 214846. 3482.22  46
  -3   6   1 208543. 3283.23  53
  -3   6   2 711.086 244.296  46
  -3   6   2 1678.59 344.261  53
  -3   6   2 930.313 539.628   4
  -3   6   3 64441.1 1989.38  53
  -3   6   3 65671.3 4255.18   4
  -3   6   3 64718.8 1935.29  46
  -3   6   4 64035.3 1837.72  51
  -3   6   4 65429.8 1902.89  46
  -3   6   5 7244.16 616.137  46
  -3   6   5 7903.85 699.542  43
  -3   6   5 7457.66 648.743  51
  -3   6   6 59995.5 1807.50  43
  -3   6   6 54937.3 1520.81  46
  -3   6   7 12981.3 782.250  43
  -3   6   8 4529.61 405.907  43
  -3   6   9 35306.7 840.714  43
  -3   7 -12 53384.1 3427.75  25
  -3   7 -11 195.147 702.915  25
  -3   7 -11 177.968 161.615  12
  -3   7 -10 141875. 5929.25  20
  -3   7 -10 147174. 2837.23  12
  -3   7 -10 146218. 6478.85  25
  -3   7 -10 146368. 6243.27  11
  -3   7  -9 199016. 7412.33  20
  -3   7  -9 205404. 3312.58  12
  -3   7  -9 212224. 7568.53  11
  -3   7  -8 14130.9 1951.70  11
  -3   7  -8 12861.7 1712.63   6
  -3   7  -8 14048.5 873.481  12
  -3   7  -8 13924.4 2028.70  20
  -3   7  -7 223577. 8035.32  20
  -3   7  -7 219382. 6838.18   6
  -3   7  -7 215758. 3273.47  12
  -3   7  -7 200848. 7150.95  11
  -3   7  -7 202219. 3279.09  46
  -3   7  -6 83974.2 4085.47   6
  -3   7  -6 84458.3 4418.04  11
  -3   7  -6 85175.2 2141.61  46
  -3   7  -6 92650.2 5040.45  20
  -3   7  -5 52383.6 3698.38  20
  -3   7  -5 46744.1 3071.47  11
  -3   7  -5 49586.4 1637.59  46
  -3   7  -5 47985.3 2955.36   6
  -3   7  -4 148598. 2845.37  46
  -3   7  -4 141071. 5257.70  25
  -3   7  -3 8478.74 1165.83   6
  -3   7  -3 13141.3 860.845  46
  -3   7  -2 19034.1 959.884  35
  -3   7  -2 15854.9 957.326  46
  -3   7  -1 100259. 2088.02  35
  -3   7  -1 95404.7 4451.20   4
  -3   7  -1 100941. 2209.13  53
  -3   7   0 24276.5 1211.33  46
  -3   7   0 23646.6 1141.08  53
  -3   7   1 172404. 3183.38  53
  -3   7   1 175525. 3234.32  46
  -3   7   2 169790. 3142.98  46
  -3   7   2 166042. 3214.20  53
  -3   7   3 7357.86 648.912  46
  -3   7   3 9029.26 772.413  53
  -3   7   4 64570.7 1782.09  51
  -3   7   4 63089.2 1765.88  46
  -3   7   5 21297.3 991.553  51
  -3   7   5 19220.3 893.675  46
  -3   7   5 21108.8 1061.02  43
  -3   7   6 6466.25 551.881  43
  -3   7   7 20351.5 824.323  43
  -3   7   8 7777.01 405.817  43
  -3   8 -12 35090.0 2835.88  25
  -3   8 -11 80544.0 4665.42  25
  -3   8 -11 82183.5 2018.13  12
  -3   8 -10 4886.41 518.980  12
  -3   8 -10 4912.65 1240.03  20
  -3   8  -9 119480. 5919.91  20
  -3   8  -9 114162. 5589.98  11
  -3   8  -9 119525. 2532.03  12
  -3   8  -8 54573.6 4099.58  20
  -3   8  -8 49160.1 1689.10  46
  -3   8  -8 45508.2 3530.14  11
  -3   8  -7 32575.7 2700.84   6
  -3   8  -7 37082.0 3320.07  20
  -3   8  -7 30644.1 2821.51  11
  -3   8  -7 33400.5 1426.82  46
  -3   8  -6 191130. 6373.38   6
  -3   8  -6 192714. 3406.98  46
  -3   8  -6 187365. 6437.09  11
  -3   8  -6 207761. 7600.38  20
  -3   8  -5 27063.0 2321.04   6
  -3   8  -5 27151.5 1299.57  46
  -3   8  -4 66094.1 2009.21  46
  -3   8  -4 62156.1 3410.41   6
  -3   8  -3 111535. 2620.83  46
  -3   8  -3 96988.4 4064.97   6
  -3   8  -2 24944.8 1133.54  53
  -3   8  -2 25644.7 1267.53  46
  -3   8  -2 28982.1 1168.90  35
  -3   8  -1 41421.1 1342.04  35
  -3   8  -1 43228.6 1639.06  46
  -3   8  -1 41774.0 1530.12  53
  -3   8   0 152453. 3051.87  46
  -3   8   0 146811. 2949.65  53
  -3   8   1 6848.86 653.222  46
  -3   8   1 7542.35 691.544  53
  -3   8   2 153867. 3068.72  53
  -3   8   2 153514. 2900.83  46
  -3   8   3 129999. 2503.47  46
  -3   8   4 239.055 142.275  46
  -3   8   4 198.957 147.918  51
  -3   8   5 29907.5 902.149  46
  -3   8   5 34137.1 1193.74  43
  -3   8   6 7159.19 484.459  43
  -3   8   7 2897.66 249.861  43
  -3   9 -11 43846.6 3440.46  25
  -3   9 -10 83485.7 4767.76  20
  -3   9  -9 6779.06 1516.79  20
  -3   9  -9 6869.29 635.925  46
  -3   9  -8 86054.6 2332.62  46
  -3   9  -8 79104.8 4442.61  11
  -3   9  -8 88467.4 5175.66  20
  -3   9  -7 50524.5 3872.00  20
  -3   9  -7 51039.4 1817.41  46
  -3   9  -6 21918.1 1211.88  46
  -3   9  -5 116480. 4933.39   6
  -3   9  -5 135484. 2955.25  46
  -3   9  -4 28844.5 2365.74   6
  -3   9  -4 35344.6 1520.30  46
  -3   9  -3 10659.5 854.751  46
  -3   9  -3 12249.0 809.814  53
  -3   9  -2 113544. 2233.66  35
  -3   9  -2 114390. 2536.42  53
  -3   9  -2 119350. 2753.69  46
  -3   9  -1 37122.6 1482.92  53
  -3   9  -1 39139.9 1552.46  46
  -3   9   0 62237.2 1924.09  53
  -3   9   0 64292.9 1937.16  46
  -3   9   1 37122.5 1412.47  46
  -3   9   1 36565.0 1466.41  53
  -3   9   2 1505.18 337.239  53
  -3   9   2 1919.67 326.529  46
  -3   9   3 56790.3 1449.05  46
  -3   9   4 24556.9 971.631  43
  -3   9   5 2371.23 279.394  43
  -3   9   6 20535.7 594.052  43
  -3  10 -10 108039. 2339.66  46
  -3  10  -9 35123.4 3147.99  20
  -3  10  -9 30013.0 1268.96  18
  -3  10  -9 33182.6 1411.32  46
  -3  10  -8 29212.7 1383.88  46
  -3  10  -8 25327.5 1137.17  18
  -3  10  -7 182076. 3433.64  46
  -3  10  -6 38463.8 1603.01  46
  -3  10  -5 50466.2 1831.04  46
  -3  10  -4 114464. 2734.78  46
  -3  10  -4 107949. 2370.10  53
  -3  10  -4 110290. 2328.85  35
  -3  10  -3 19155.0 1120.35  46
  -3  10  -3 20870.7 1074.15  53
  -3  10  -2 26998.7 1240.22  53
  -3  10  -2 26723.5 1277.33  46
  -3  10  -1 96258.5 2321.31  53
  -3  10  -1 95358.7 2318.99  46
  -3  10   0 942.646 250.243  46
  -3  10   0 1406.68 329.085  53
  -3  10   1 33524.3 1193.01  46
  -3  10   1 33850.7 1319.74  53
  -3  10   2 35049.7 1079.34  46
  -3  10   3 292.487 158.813  43
  -3  10   4 25115.2 781.934  43
  -3  11 -11 67418.6 1626.33  46
  -3  11 -10 1273.84 364.416  46
  -3  11  -9 43330.3 3099.01  25
  -3  11  -9 59490.8 1826.05  46
  -3  11  -8 49964.0 1756.36  46
  -3  11  -7 25619.6 1296.41  46
  -3  11  -6 121192. 2781.87  46
  -3  11  -5 9377.12 762.983  46
  -3  11  -5 21284.7 1081.09  35
  -3  11  -4 35447.3 1336.35  53
  -3  11  -4 38289.0 1241.02  35
  -3  11  -3 57645.6 1817.35  46
  -3  11  -3 54723.2 1665.98  53
  -3  11  -2 579.284 245.437  46
  -3  11  -2 678.043 225.816  53
  -3  11  -1 85249.0 1976.80  46
  -3  11  -1 86590.8 2036.01  53
  -3  11   0 32451.9 1197.57  53
  -3  11   0 30178.3 1066.80  46
  -3  11   1 489.738 156.764  46
  -3  11   2 21007.7 772.153  43
  -3  11   3 15776.0 552.546  43
  -3  12 -11 114576. 1989.04  46
  -3  12 -10 69020.9 1735.20  46
  -3  12  -9 1786.80 403.478  46
  -3  12  -8 38068.5 1452.62  46
  -3  12  -7 12510.8 846.798  46
  -3  12  -6 30998.0 1134.89  35
  -3  12  -6 19508.1 1037.03  46
  -3  12  -5 58490.8 1781.09  46
  -3  12  -5 58007.6 1543.40  53
  -3  12  -4 5140.89 484.973  53
  -3  12  -4 5672.90 566.605  46
  -3  12  -3 50053.8 1436.47  53
  -3  12  -3 50807.1 1528.03  46
  -3  12  -2 115262. 2125.28  53
  -3  12  -2 118418. 2132.47  46
  -3  12  -1 358.550 175.353  53
  -3  12  -1 479.909 174.687  46
  -3  12   0 20237.1 662.209  46
  -3  12   1 20385.4 652.801  43
  -3  13 -12 40997.8 987.271  35
  -3  13 -11 22641.1 785.816  46
  -3  13 -10 72513.4 1591.05  46
  -3  13  -9 25672.9 1024.92  46
  -3  13  -9 39259.2 1188.98  35
  -3  13  -8 14013.1 744.217  35
  -3  13  -8 1862.93 331.681  46
  -3  13  -7 27216.1 902.154  35
  -3  13  -7 23414.8 1029.73  46
  -3  13  -6 4041.53 457.812  46
  -3  13  -5 10118.7 556.729  53
  -3  13  -5 10311.7 659.551  46
  -3  13  -4 49613.3 1223.97  53
  -3  13  -4 51476.5 1351.92  46
  -3  13  -3 16114.2 686.508  53
  -3  13  -3 17447.0 725.134  46
  -3  13  -2 32668.3 912.428  53
  -3  13  -2 30924.9 835.744  46
  -3  14 -10 15857.1 547.091  35
  -3  14 -10 14159.4 576.980  46
  -3  14  -9 39484.1 840.484  35
  -3  14  -9 46759.8 1130.38  46
  -3  14  -8 9113.80 526.333  46
  -3  14  -7 8325.58 506.030  46
  -3  14  -6 27554.1 874.426  46
  -3  14  -5 8797.70 472.251  46
  -3  14  -4 8054.77 397.813  46
  -2 -15   6 23590.7 600.932  28
  -2 -15   7 3086.83 226.454  28
  -2 -14   2 7394.53 346.680  29
  -2 -14   3 5313.45 345.803  29
  -2 -14   4 38373.9 983.325  29
  -2 -14   5 12054.9 588.113  29
  -2 -14   6 9129.95 492.800  50
  -2 -14   7 29310.7 921.411  28
  -2 -14   7 28685.9 931.424  50
  -2 -14   8 2377.32 306.896  50
  -2 -14   8 1955.83 247.924  28
  -2 -14   9 47629.7 1057.43  28
  -2 -14   9 49802.0 1279.17  50
  -2 -13   0 14357.5 496.567  29
  -2 -13   1 3216.29 298.335  29
  -2 -13   2 36088.0 1054.51  29
  -2 -13   3 23409.3 916.451  29
  -2 -13   4 5011.12 394.950  50
  -2 -13   4 6582.52 521.064  29
  -2 -13   5 56636.9 1518.23  29
  -2 -13   5 52902.5 1393.68  50
  -2 -13   6 993.799 256.876  29
  -2 -13   6 1167.36 271.592  50
  -2 -13   7 40450.7 1361.37  50
  -2 -13   7 39212.0 1262.68  29
  -2 -13   8 67827.2 1801.16  50
  -2 -13   8 62619.9 1535.21  28
  -2 -13   9 4790.58 517.313  50
  -2 -13   9 6262.78 469.267  28
  -2 -13  10 38082.8 1004.80  28
  -2 -13  10 39361.0 1351.97  50
  -2 -13  11 16635.2 733.437  40
  -2 -13  12-137.434 150.061  40
  -2 -13  13 20578.2 720.581  40
  -2 -12  -1 8118.12 447.973  29
  -2 -12   0 43795.6 1178.39  29
  -2 -12   1 15823.2 788.438  29
  -2 -12   2 4088.67 456.300  29
  -2 -12   3 53984.3 1426.17  50
  -2 -12   3 58722.5 1670.00  29
  -2 -12   4 32400.5 1212.72  50
  -2 -12   4 33120.1 1277.04  29
  -2 -12   5 17204.1 941.369  50
  -2 -12   5 18242.4 961.536  29
  -2 -12   6 42992.9 1533.78  50
  -2 -12   6 41300.8 1438.60  29
  -2 -12   7 476.360 198.465  29
  -2 -12   7 994.674 312.029  50
  -2 -12   8 130108. 2782.00  50
  -2 -12   9 57739.6 1517.84  28
  -2 -12   9 58779.7 1617.33  40
  -2 -12   9 61627.6 1917.97  50
  -2 -12  10 244.290 183.952  40
  -2 -12  10 349.362 255.267  50
  -2 -12  11 33567.9 1276.93  40
  -2 -12  11 32052.5 1289.04  50
  -2 -12  12 26351.7 1105.67  40
  -2 -12  13 3115.01 375.346  40
  -2 -12  14 43426.3 1132.76  40
  -2 -11  -3 15.8337 79.8242  29
  -2 -11  -2 71645.0 1439.93  29
  -2 -11  -2 67054.2 1394.14  48
  -2 -11  -1 28963.5 1047.85  29
  -2 -11  -1 26628.4 967.780  48
  -2 -11   0 10266.6 637.893  48
  -2 -11   0 11521.5 730.457  29
  -2 -11   1 35716.5 1332.77  29
  -2 -11   2 3575.91 459.529  29
  -2 -11   2 4124.03 428.732  50
  -2 -11   3 41422.4 1496.11  29
  -2 -11   3 38031.4 1367.54  50
  -2 -11   4 112971. 2471.14  50
  -2 -11   4 110724. 2460.74  29
  -2 -11   5 21120.6 1077.86  29
  -2 -11   5 22619.9 1159.66  50
  -2 -11   6 8702.86 757.877  50
  -2 -11   6 9108.74 706.572  29
  -2 -11   7 92314.1 2457.97  50
  -2 -11   7 87100.0 2117.86  29
  -2 -11   8 2205.72 428.147  50
  -2 -11   8 2193.31 354.760  40
  -2 -11   8 1706.40 316.387  29
  -2 -11   9 29116.8 1393.64  50
  -2 -11   9 27914.5 1087.33  28
  -2 -11   9 27808.8 1289.31  40
  -2 -11  10 33968.1 1458.38  40
  -2 -11  10 34729.6 1490.04  50
  -2 -11  11 367.750 250.507  50
  -2 -11  11 199.295 248.123  40
  -2 -11  12 63039.8 1921.83  40
  -2 -11  13 19733.9 1018.80  40
  -2 -11  14 17581.8 852.480  40
  -2 -11  15 38417.8 971.841  40
  -2 -10  -5 858.401 145.028  48
  -2 -10  -4 41457.9 971.354  29
  -2 -10  -4 40770.0 1066.38  48
  -2 -10  -4 40535.2 975.213  45
  -2 -10  -3 72857.5 1553.83  29
  -2 -10  -3 69094.5 1576.01  48
  -2 -10  -2 4821.11 472.183  29
  -2 -10  -2 4173.82 441.371  48
  -2 -10  -1 67747.0 1742.66  48
  -2 -10  -1 70678.3 1845.13  29
  -2 -10   0 9620.14 725.601  29
  -2 -10   0 9578.06 673.182  48
  -2 -10   1 25153.1 1056.46  50
  -2 -10   1 28315.5 1246.16  29
  -2 -10   1 25987.4 1083.40  48
  -2 -10   2 90427.3 2124.16  50
  -2 -10   2 92033.8 2255.81  29
  -2 -10   3 2328.44 380.786  50
  -2 -10   3 2217.82 379.657  29
  -2 -10   4 123258. 2673.91  50
  -2 -10   4 122839. 2596.48  29
  -2 -10   5 167732. 3004.70  29
  -2 -10   5 175474. 3293.89  50
  -2 -10   6 41640.8 1476.25  29
  -2 -10   6 43538.2 1683.56  50
  -2 -10   7 37117.1 1572.83  50
  -2 -10   7 36496.8 1343.52  29
  -2 -10   7 39446.7 1460.23  40
  -2 -10   8 45341.3 1435.24  29
  -2 -10   8 46789.7 1712.49  40
  -2 -10   8 48860.4 1822.42  50
  -2 -10   9 67.1145 215.383  40
  -2 -10   9 19.2529 212.916  50
  -2 -10  10 46219.3 1717.08  50
  -2 -10  10 49797.4 1911.83  40
  -2 -10  11 66766.3 1963.67  50
  -2 -10  11 70898.7 2286.64  40
  -2 -10  12 6162.68 708.584  40
  -2 -10  13 92476.2 2365.39  40
  -2 -10  14 26442.3 1124.67  40
  -2 -10  15 4383.72 378.834  40
  -2  -9  -6 35800.7 873.282  48
  -2  -9  -5 35098.3 1069.79  48
  -2  -9  -5 34359.8 932.829  29
  -2  -9  -4 241.383 161.116  29
  -2  -9  -4 394.092 223.032  48
  -2  -9  -3 105551. 2170.88  29
  -2  -9  -3 100041. 2160.22  48
  -2  -9  -2 35393.1 1341.52  29
  -2  -9  -2 35007.4 1319.59  48
  -2  -9  -1 9463.10 697.441  48
  -2  -9  -1 9400.65 727.426  29
  -2  -9   0 48910.8 1627.81  29
  -2  -9   0 46617.5 1503.11  48
  -2  -9   1 22981.3 1020.51  48
  -2  -9   1 21626.4 2233.94   2
  -2  -9   1 24043.0 1143.89  29
  -2  -9   2 22734.3 2289.46   2
  -2  -9   2 25693.5 1184.00  29
  -2  -9   3 123237. 2584.32  50
  -2  -9   3 127868. 4892.01  26
  -2  -9   3 119581. 2500.38  29
  -2  -9   4 3324.95 871.306   2
  -2  -9   4 4356.71 983.954  26
  -2  -9   4 5279.56 561.252  50
  -2  -9   4 3940.46 460.891  29
  -2  -9   5 69733.3 1946.05  49
  -2  -9   5 72254.8 2080.14  50
  -2  -9   5 70956.3 3908.28   2
  -2  -9   5 75238.2 4159.58  26
  -2  -9   5 74577.3 1913.19  29
  -2  -9   6 107471. 2574.84  49
  -2  -9   6 106446. 2235.89  29
  -2  -9   6 111418. 2649.54  50
  -2  -9   6 115512. 5367.44  26
  -2  -9   7 15938.5 829.413  29
  -2  -9   7 14056.1 952.500  50
  -2  -9   7 14932.2 945.123  40
  -2  -9   8 130794. 2969.08  40
  -2  -9   8 126343. 2853.74  50
  -2  -9   9 52595.8 1821.13  50
  -2  -9   9 51615.0 1976.67  40
  -2  -9  10 292.153 184.248  50
  -2  -9  10 534.817 308.337  40
  -2  -9  11 74232.0 2007.49  50
  -2  -9  11 77804.8 2509.17  40
  -2  -9  12 25285.0 1406.63  40
  -2  -9  13 15866.9 1050.52  40
  -2  -9  14 55084.0 1669.36  40
  -2  -9  15 11109.3 596.644  40
  -2  -8  -7 28865.6 827.036  48
  -2  -8  -6 3792.12 331.950  29
  -2  -8  -6 4186.38 415.246  48
  -2  -8  -5 59476.0 1499.08  29
  -2  -8  -5 63302.9 1692.19  48
  -2  -8  -4 95442.3 2193.86  48
  -2  -8  -4 96400.3 2107.78  29
  -2  -8  -3 8760.71 684.889  29
  -2  -8  -2 94068.1 2239.25  29
  -2  -8  -1 52172.0 1660.35  29
  -2  -8  -1 52347.6 1623.04  48
  -2  -8  -1 49890.7 3460.83   2
  -2  -8   0 4604.34 481.640  48
  -2  -8   0 4010.01 474.984  29
  -2  -8   0 4279.38 504.173  33
  -2  -8   0 3434.54 907.650   2
  -2  -8   1 155064. 2791.69  29
  -2  -8   1 158660. 2925.43  33
  -2  -8   2 81232.3 2076.28  33
  -2  -8   2 82857.9 3774.39  26
  -2  -8   2 78316.9 1943.56  29
  -2  -8   3 102337. 4414.07  26
  -2  -8   3 94906.7 2097.80  29
  -2  -8   3 98160.0 4561.78   2
  -2  -8   4 203232. 6434.48   2
  -2  -8   4 219783. 6768.32  26
  -2  -8   5 28473.9 1250.76  50
  -2  -8   5 22609.8 2128.90   2
  -2  -8   5 25203.6 2434.69  26
  -2  -8   6 137856. 2920.95  49
  -2  -8   6 138262. 2688.86  40
  -2  -8   6 140747. 2810.33  50
  -2  -8   7 77048.0 2309.00  49
  -2  -8   7 79338.6 2132.20  50
  -2  -8   7 72583.2 4386.61  26
  -2  -8   7 77711.9 2186.79  40
  -2  -8   8 10289.0 774.421  50
  -2  -8   8 12861.5 959.616  40
  -2  -8   8 13070.6 809.888  43
  -2  -8   9 105895. 2343.61  43
  -2  -8   9 103163. 2413.93  50
  -2  -8   9 105739. 2883.66  40
  -2  -8  10 115757. 2498.27  50
  -2  -8  10 115075. 2532.94  43
  -2  -8  10 114610. 3093.77  40
  -2  -8  11 356.526 287.164  40
  -2  -8  11 457.137 177.371  50
  -2  -8  12 50323.4 1741.96  43
  -2  -8  12 48822.6 1962.67  40
  -2  -8  13 13696.9 977.472  40
  -2  -8  13 19169.6 1073.59  43
  -2  -8  14 24159.5 1106.17  43
  -2  -8  14 15328.8 885.845  40
  -2  -8  15 37567.9 1022.79  40
  -2  -7  -8 1274.28 207.012  48
  -2  -7  -7 26439.9 840.472  29
  -2  -7  -7 30534.9 1081.44  48
  -2  -7  -6 6372.15 509.646  29
  -2  -7  -5 7148.41 593.504  29
  -2  -7  -4 81332.9 2045.71  29
  -2  -7  -4 87415.9 4274.48  23
  -2  -7  -3 21941.6 1085.84  29
  -2  -7  -3 22075.6 1037.12  33
  -2  -7  -3 22161.5 2203.53  23
  -2  -7  -2 5796.03 575.660  29
  -2  -7  -2 5620.07 1170.94   2
  -2  -7  -2 6143.04 1230.84  23
  -2  -7  -2 5284.96 526.502  33
  -2  -7  -1 56614.5 3617.51   2
  -2  -7  -1 56927.1 1670.33  29
  -2  -7  -1 60082.6 3214.12  23
  -2  -7  -1 58336.2 1715.27  33
  -2  -7   0 66952.3 1752.85  29
  -2  -7   0 66990.5 1817.15  33
  -2  -7   1 66885.6 3242.17  26
  -2  -7   1 63804.9 3647.88   2
  -2  -7   2 403499. 8334.97  26
  -2  -7   2 384192. 8717.04   2
  -2  -7   3 28398.4 2312.55   2
  -2  -7   3 31609.1 2432.89  26
  -2  -7   4 163400. 5422.00   2
  -2  -7   4 173048. 5852.67  26
  -2  -7   5 219827. 6265.42   2
  -2  -7   5 231128. 7027.96  26
  -2  -7   6 10266.6 1580.18  26
  -2  -7   7 132844. 2940.42  49
  -2  -7   7 136827. 5751.87  26
  -2  -7   8 56938.2 1897.04  34
  -2  -7   8 59302.9 2037.37  49
  -2  -7   8 61649.4 1733.54  50
  -2  -7   8 58749.6 1617.85  43
  -2  -7   9 50.2950 126.112  50
  -2  -7   9 58.8311 154.032  43
  -2  -7  10 124772. 2595.09  43
  -2  -7  10 125874. 2395.28  50
  -2  -7  10 123862. 3222.37  40
  -2  -7  11 79449.0 2144.89  43
  -2  -7  11 77553.5 2547.28  40
  -2  -7  12 4345.05 527.200  43
  -2  -7  12 5184.35 667.968  40
  -2  -7  13 64913.4 1921.23  43
  -2  -7  13 62769.6 2023.92  40
  -2  -7  14 10015.7 759.740  43
  -2  -7  14 7389.43 602.400  40
  -2  -7  15 33198.1 1098.65  43
  -2  -6  -9 38079.5 956.036  48
  -2  -6  -8 87438.6 1481.59  29
  -2  -6  -7 582.466 203.954  29
  -2  -6  -6 38519.1 1343.17  29
  -2  -6  -6 38328.5 2864.08  23
  -2  -6  -5 23679.8 1115.99  29
  -2  -6  -5 20630.6 963.146  16
  -2  -6  -5 25385.4 2427.71  23
  -2  -6  -5 21082.1 1044.01  17
  -2  -6  -4 36079.6 1253.17  16
  -2  -6  -4 36210.9 1273.00  33
  -2  -6  -4 35565.5 2966.00   2
  -2  -6  -4 41136.7 3004.55  23
  -2  -6  -4 35788.1 1349.61  17
  -2  -6  -4 39200.8 1432.61  29
  -2  -6  -3 121152. 2386.58  33
  -2  -6  -3 122449. 2477.09  29
  -2  -6  -3 120197. 5387.44   2
  -2  -6  -3 118299. 2159.57  16
  -2  -6  -3 124949. 5003.35  23
  -2  -6  -3 119423. 2387.19  17
  -2  -6  -2 28915.4 1166.24  33
  -2  -6  -2 30334.4 1198.18  29
  -2  -6  -2 28046.8 982.851  16
  -2  -6  -2 28005.3 2520.91   2
  -2  -6  -2 31199.4 2402.48  23
  -2  -6  -1 3042.30 847.278   2
  -2  -6  -1 4081.65 882.010  23
  -2  -6   0 238424. 5846.82  26
  -2  -6   0 233082. 6796.49   2
  -2  -6   0 240164. 5587.57  23
  -2  -6   1 131429. 4523.82  26
  -2  -6   1 125346. 4816.24   2
  -2  -6   2 82301.3 3781.43   2
  -2  -6   2 82436.3 3702.35  26
  -2  -6   3 231965. 6134.77   2
  -2  -6   3 232592. 6397.09  26
  -2  -6   4 15337.2 1567.69   2
  -2  -6   4 16600.3 1793.47  26
  -2  -6   5 171684. 5819.36  26
  -2  -6   5 175501. 5250.65   2
  -2  -6   6 106337. 4711.59  26
  -2  -6   6 109800. 3486.39   4
  -2  -6   7 11649.4 1607.02  26
  -2  -6   8 123522. 2760.90  34
  -2  -6   8 121666. 2799.11  49
  -2  -6   8 122488. 2248.74  43
  -2  -6   9 116807. 2866.52  34
  -2  -6   9 123419. 2438.07  43
  -2  -6  10 8661.27 854.909  40
  -2  -6  10 5858.09 578.324  43
  -2  -6  11 111623. 3008.61  40
  -2  -6  11 115607. 2586.53  43
  -2  -6  12 27576.1 1296.70  43
  -2  -6  12 27654.7 1428.46  40
  -2  -6  13 27047.9 1241.37  43
  -2  -6  13 25590.5 1237.68  40
  -2  -6  14 73905.3 1867.33  43
  -2  -6  15 12225.4 662.733  43
  -2  -5 -10 15223.1 578.523  48
  -2  -5  -9 362.345 124.874  29
  -2  -5  -8 73714.1 1635.02  29
  -2  -5  -7 72251.7 1842.24  16
  -2  -5  -7 73747.2 1855.91  29
  -2  -5  -7 78965.1 4138.72  23
  -2  -5  -7 75640.8 1963.23  17
  -2  -5  -6 470.520 198.879  16
  -2  -5  -6 616.222 233.513  17
  -2  -5  -6 598.192 703.039  23
  -2  -5  -5 188695. 3206.77  17
  -2  -5  -5 196126. 6950.31   2
  -2  -5  -5 204614. 6789.00  23
  -2  -5  -4 88897.0 2115.71  17
  -2  -5  -4 90207.5 4340.36  23
  -2  -5  -4 89489.0 4624.85   2
  -2  -5  -4 85125.1 1923.81  33
  -2  -5  -3 34218.4 2757.73   2
  -2  -5  -3 35863.3 2584.86  23
  -2  -5  -3 35582.2 1281.12  17
  -2  -5  -2 129370. 4570.39  23
  -2  -5  -2 126103. 2276.43  17
  -2  -5  -2 128250. 5117.86   2
  -2  -5  -2 125221. 2086.60  16
  -2  -5  -1 32855.1 2087.51  26
  -2  -5  -1 30301.7 2051.79  23
  -2  -5  -1 29802.9 2404.86   2
  -2  -5  -1 30727.1 947.211  16
  -2  -5   0 160573. 1913.13  16
  -2  -5   0 158882. 4206.98  23
  -2  -5   0 160689. 4714.48  26
  -2  -5   0 164398. 5357.71   2
  -2  -5   1 317769. 6801.06  26
  -2  -5   1 328065. 7185.73   2
  -2  -5   1 321041. 5229.98  23
  -2  -5   2 12743.5 1384.39   2
  -2  -5   2 13289.6 1456.32  26
  -2  -5   3 110108. 3880.28   2
  -2  -5   3 100449. 4058.13  26
  -2  -5   4 191107. 5058.38   2
  -2  -5   4 179162. 5576.90  26
  -2  -5   5 14328.6 1620.20  26
  -2  -5   6 126233. 3584.20   4
  -2  -5   6 119525. 4673.52  26
  -2  -5   7 84966.1 3997.25  26
  -2  -5   9 295824. 4478.06  34
  -2  -5   9 319201. 3885.24  43
  -2  -5  10 72417.8 2290.10  34
  -2  -5  10 76591.1 2043.88  43
  -2  -5  10 72540.3 1917.44  36
  -2  -5  11 22449.3 1156.19  43
  -2  -5  11 22030.9 1287.63  40
  -2  -5  12 75797.3 2144.70  43
  -2  -5  12 72913.2 2199.34  40
  -2  -5  13 1483.77 301.770  40
  -2  -5  13 1564.17 341.259  43
  -2  -5  14 19124.9 952.988  43
  -2  -5  15 26491.9 909.425  43
  -2  -4 -11 488.364 137.465  48
  -2  -4  -9 48198.3 1280.88  29
  -2  -4  -8 1422.45 286.716  16
  -2  -4  -8 1378.46 771.547  23
  -2  -4  -8 1379.84 287.204  17
  -2  -4  -7 78886.2 4310.55  23
  -2  -4  -7 74795.5 2029.86  16
  -2  -4  -6 143810. 5929.85   2
  -2  -4  -6 149607. 5920.02  23
  -2  -4  -6 148403. 2911.54  17
  -2  -4  -5 736.441 557.899  23
  -2  -4  -5 1469.90 339.018  17
  -2  -4  -4 155930. 2769.27  17
  -2  -4  -4 154939. 5782.02   2
  -2  -4  -3 60160.5 3125.98  23
  -2  -4  -3 52985.3 1525.32  17
  -2  -4  -3 53562.2 3272.24   2
  -2  -4  -2 15006.9 774.381  17
  -2  -4  -2 15556.0 1697.77   2
  -2  -4  -2 15412.2 726.112  16
  -2  -4  -1 287697. 6876.32   2
  -2  -4  -1 295002. 5821.99  23
  -2  -4  -1 273111. 2740.05  16
  -2  -4   0 3942.55 819.129   2
  -2  -4   0 4556.16 320.519  16
  -2  -4   1 363308. 2434.31  16
  -2  -4   1 379816. 7041.49   2
  -2  -4   2 534484. 7947.58   2
  -2  -4   2 492304. 8338.33  26
  -2  -4   3 41998.8 2193.96   2
  -2  -4   3 40354.8 2464.04  26
  -2  -4   4 68547.5 3250.71  26
  -2  -4   4 73960.5 2956.09   2
  -2  -4   5 254231. 6294.27  26
  -2  -4   5 258925. 5029.55   4
  -2  -4   6 335.943 205.852   4
  -2  -4   6 476.202 272.220   9
  -2  -4   6 138.128 272.460  26
  -2  -4   7 247248. 5591.55   9
  -2  -4   7 240620. 6150.68  26
  -2  -4   9 9537.82 688.037  43
  -2  -4   9 9753.01 793.794  34
  -2  -4   9 10674.8 710.361  37
  -2  -4  10 150408. 2679.56  37
  -2  -4  10 148980. 3134.91  34
  -2  -4  11 36761.9 1509.43  43
  -2  -4  11 36395.9 1557.81  40
  -2  -4  12 25295.8 1262.58  43
  -2  -4  13 33158.9 1374.74  43
  -2  -4  14 1938.61 335.560  43
  -2  -4  15 17920.1 699.300  43
  -2  -3 -10 1533.02 295.317  29
  -2  -3  -9 83533.9 2062.14  16
  -2  -3  -9 87136.8 4317.65  23
  -2  -3  -9 84695.4 2066.09  17
  -2  -3  -8 72868.3 2039.19  16
  -2  -3  -8 72522.5 4155.25  23
  -2  -3  -7-507.246 485.880   2
  -2  -3  -7-227.120 779.280  23
  -2  -3  -7 240.490 205.994  17
  -2  -3  -6 72183.3 4136.01   2
  -2  -3  -6 76676.0 2108.22  17
  -2  -3  -5 13461.2 856.697  17
  -2  -3  -5 12423.0 1690.32   2
  -2  -3  -4 62821.4 1714.95  17
  -2  -3  -4 61597.5 3497.00   2
  -2  -3  -3 170625. 5480.07   2
  -2  -3  -3 165947. 2607.63  17
  -2  -3  -2 117333. 2017.52  17
  -2  -3  -2 117714. 4298.18   2
  -2  -3  -2 113881. 1892.35  16
  -2  -3  -1 39777.0 2334.61   2
  -2  -3  -1 38516.0 978.400  16
  -2  -3   0 247915. 5368.46   2
  -2  -3   0 239747. 2136.91  16
  -2  -3   1 10205.1 1053.08   2
  -2  -3   2 185916. 4233.15   2
  -2  -3   3 327181. 6584.56  26
  -2  -3   3 340314. 5776.66   2
  -2  -3   4 26.0803 193.848   4
  -2  -3   4 60.0036 240.192  26
  -2  -3   4 354.181 172.630   9
  -2  -3   5 255828. 5824.53  26
  -2  -3   5 266286. 5009.47   4
  -2  -3   6 151969. 4089.87   9
  -2  -3   6 143805. 4341.08  26
  -2  -3   6 146489. 3922.97   4
  -2  -3   7 18945.3 1493.09   4
  -2  -3   7 17087.7 1494.67  26
  -2  -3   7 17377.2 1482.62   7
  -2  -3   8 343769. 7181.47   7
  -2  -3   9 91604.6 2238.12  46
  -2  -3   9 88894.9 2273.73  34
  -2  -3   9 88177.0 2036.93  37
  -2  -3   9 92774.8 2200.43  36
  -2  -3   9 95436.1 2185.26  43
  -2  -3   9 84153.7 3829.64   7
  -2  -3  10 26670.7 1259.94  34
  -2  -3  10 26361.4 1234.49  43
  -2  -3  10 29027.3 1283.29  37
  -2  -3  11 123049. 2756.74  43
  -2  -3  11 117930. 2609.73  37
  -2  -3  12 7375.69 696.759  43
  -2  -3  13 33047.7 1352.32  43
  -2  -3  14 75375.7 1719.89  43
  -2  -3  15 4725.45 325.133  43
  -2  -2 -10 70208.9 3762.67  23
  -2  -2  -9 2771.12 409.745  17
  -2  -2  -9 2160.48 755.829  23
  -2  -2  -8 89470.7 2313.74  17
  -2  -2  -7 57855.5 1859.97  17
  -2  -2  -7 56910.8 3633.09   2
  -2  -2  -6 25356.1 1204.58  17
  -2  -2  -6 19707.1 2085.93   2
  -2  -2  -5 187922. 3073.60  17
  -2  -2  -5 189381. 6060.02   2
  -2  -2  -4 64699.5 3377.26   2
  -2  -2  -4 66242.7 1692.17  17
  -2  -2  -4 70567.4 2767.41  25
  -2  -2  -3 38932.7 2020.78  25
  -2  -2  -3 38978.6 2439.79   2
  -2  -2  -3 38856.1 1209.31  17
  -2  -2  -2 546561. 4047.45  17
  -2  -2  -2 565165. 8420.16   2
  -2  -2  -2 559910. 7456.26  25
  -2  -2  -2 537925. 3860.54  16
  -2  -2  -1 294678. 5582.18   2
  -2  -2  -1 302780. 5372.54  25
  -2  -2  -1 293335. 2514.79  16
  -2  -2   0 71903.5 2527.60   2
  -2  -2   0 67272.4 1067.43  16
  -2  -2   1 270903. 4673.51   2
  -2  -2   2 42430.0 1851.62   2
  -2  -2   3 105566. 2973.72   4
  -2  -2   3 103695. 3434.10  26
  -2  -2   4 258850. 5378.19  26
  -2  -2   4 264435. 4791.50   4
  -2  -2   5 886.459 353.768   4
  -2  -2   5 1583.97 372.170   7
  -2  -2   5 1504.88 454.269  26
  -2  -2   6 95054.9 3133.48   7
  -2  -2   6 91166.0 3268.15   4
  -2  -2   6 93881.6 3141.35  26
  -2  -2   7 103497. 3728.40   4
  -2  -2   7 100705. 3560.74   7
  -2  -2   8 18835.5 1722.24   7
  -2  -2   9 130110. 2611.27  34
  -2  -2   9 129914. 2691.71  46
  -2  -2   9 127936. 2622.47  37
  -2  -2   9 138364. 2700.21  43
  -2  -2   9 130515. 4830.36   7
  -2  -2  10 44246.6 1626.75  43
  -2  -2  10 45260.5 1659.17  37
  -2  -2  11 22384.6 1203.68  43
  -2  -2  11 26402.2 1385.13  37
  -2  -2  12 77032.4 2170.51  43
  -2  -2  12 90412.9 2302.17  37
  -2  -2  13 13253.3 826.102  43
  -2  -2  14 26398.5 937.289  43
  -2  -1 -10 80556.0 2057.68  17
  -2  -1 -10 86445.9 4432.68  23
  -2  -1 -10 82724.6 2160.70  16
  -2  -1  -9 32726.4 1399.24  17
  -2  -1  -8 10005.6 798.000  17
  -2  -1  -8 9155.23 1425.03   2
  -2  -1  -7 43926.2 1583.97  17
  -2  -1  -7 42118.9 2983.48   2
  -2  -1  -6 22487.3 1094.82  17
  -2  -1  -6 20393.2 2033.07   2
  -2  -1  -6 22978.4 1671.73  25
  -2  -1  -5 97705.9 2126.38  17
  -2  -1  -5 104793. 3493.16  25
  -2  -1  -5 98348.3 4103.63   2
  -2  -1  -4 290671. 3358.27  17
  -2  -1  -4 299608. 5716.06  25
  -2  -1  -3 503761. 3927.56  16
  -2  -1  -3 500286. 7880.78   2
  -2  -1  -3 515547. 7206.26  25
  -2  -1  -3 513928. 3970.52  17
  -2  -1  -2 165370. 4004.14   2
  -2  -1  -2 165022. 3925.78  25
  -2  -1  -2 166393. 2026.60  17
  -2  -1  -2 162370. 1962.36  16
  -2  -1  -1 635695. 7488.06  25
  -2  -1  -1 658375. 3466.00  16
  -2  -1  -1 646801. 7046.09   2
  -2  -1   0 5158.10 612.840   2
  -2  -1   0 6099.11 737.216  25
  -2  -1   1 682367. 6625.01   2
  -2  -1   2 219671. 4111.74   4
  -2  -1   3 71532.6 2431.48   4
  -2  -1   3 68505.0 1736.92   7
  -2  -1   4 616119. 7297.61  26
  -2  -1   4 627430. 7633.01   4
  -2  -1   4 621133. 6166.90   7
  -2  -1   5 273369. 4742.85   7
  -2  -1   5 278948. 5498.83   4
  -2  -1   5 276040. 4674.72  26
  -2  -1   6 5102.50 756.696   7
  -2  -1   6 4711.22 818.732   4
  -2  -1   7 147631. 4444.63   7
  -2  -1   7 151751. 4876.55   4
  -2  -1   8 79540.5 1929.77  43
  -2  -1   8 72442.0 3637.87   4
  -2  -1   8 75928.7 1939.75  46
  -2  -1   8 71998.6 1930.98  37
  -2  -1   8 68492.3 3330.38   7
  -2  -1   9 6666.28 1114.55   7
  -2  -1   9 6309.19 601.330  46
  -2  -1   9 7580.75 715.637  37
  -2  -1   9 7027.91 643.245  43
  -2  -1  10 104825. 2549.22  43
  -2  -1  10 102269. 2559.51  37
  -2  -1  10 95992.0 2316.78  46
  -2  -1  11 13810.3 955.401  43
  -2  -1  11 21892.8 1241.67  37
  -2  -1  12 37597.8 1480.45  43
  -2  -1  13 101768. 2087.92  43
  -2  -1  14 8344.66 462.002  43
  -2   0 -11 118527. 4987.07  23
  -2   0 -10 335.373 165.943  17
  -2   0 -10 424.331 213.218  16
  -2   0  -9 56168.3 1831.52  17
  -2   0  -9 56265.7 1886.03  16
  -2   0  -8 26994.3 1265.15  17
  -2   0  -7 5191.86 556.500  17
  -2   0  -7 4990.93 1005.85   2
  -2   0  -7 5984.71 932.482  25
  -2   0  -6 141812. 2616.45  17
  -2   0  -6 135987. 4806.71   2
  -2   0  -5 89607.5 1912.24  17
  -2   0  -5 86828.5 3559.40   2
  -2   0  -5 91346.8 3335.82  25
  -2   0  -4 6076.56 470.089  16
  -2   0  -4 6014.74 458.401  17
  -2   0  -4 5156.22 820.629   2
  -2   0  -4 5917.87 855.107  11
  -2   0  -4 5420.14 792.225  25
  -2   0  -3 343747. 2902.69  17
  -2   0  -3 333414. 5463.09   2
  -2   0  -3 337095. 5726.62  25
  -2   0  -3 337532. 2961.08  16
  -2   0  -2 283534. 2397.67  16
  -2   0  -2 284719. 5031.86  25
  -2   0  -2 280555. 4340.14   2
  -2   0  -1 11738.3 803.723   2
  -2   0  -1 12917.9 1031.93  25
  -2   0  -1 12650.3 465.119  16
  -2   0   0 220762. 3362.68   2
  -2   0   1 83601.8 2454.59   4
  -2   0   2 596814. 3930.05   7
  -2   0   2 610031. 6857.93   4
  -2   0   3 582960. 5129.93   7
  -2   0   3 588781. 7255.22   4
  -2   0   4 2380.07 404.768   7
  -2   0   4 4667.60 733.596   4
  -2   0   5 180917. 4040.64   7
  -2   0   5 186904. 4907.02   4
  -2   0   6 176213. 4519.73   7
  -2   0   6 177691. 5224.54   4
  -2   0   7 21473.4 1784.66   7
  -2   0   7 26092.5 2205.92   4
  -2   0   8 93386.4 4021.07   7
  -2   0   8 102257. 2318.16  43
  -2   0   8 100230. 4597.81   4
  -2   0   8 99262.5 2251.72  46
  -2   0   8 97624.5 2369.52  37
  -2   0   9 33183.0 1332.55  46
  -2   0   9 34627.4 1495.18  37
  -2   0   9 33632.2 1425.71  43
  -2   0  10 40804.5 1685.68  37
  -2   0  10 37965.9 1572.39  43
  -2   0  11 71898.7 2076.39  37
  -2   0  11 62257.4 1957.27  43
  -2   0  12 6482.78 601.721  43
  -2   0  13 40375.9 1175.61  43
  -2   1 -11 90333.9 2259.15  16
  -2   1 -11 83811.1 2000.89  17
  -2   1 -10 56090.6 1857.23  16
  -2   1 -10 52312.1 1702.44  17
  -2   1  -9 5607.27 577.910  17
  -2   1  -9 5549.28 598.400  16
  -2   1  -8 173383. 3092.91  17
  -2   1  -8 204573. 5595.80  25
  -2   1  -7 65170.1 1782.18  17
  -2   1  -7 67638.9 3324.79  11
  -2   1  -7 72016.3 3269.95  25
  -2   1  -6 95768.7 2015.05  17
  -2   1  -6 91160.2 3563.84   2
  -2   1  -6 97595.9 3655.57  25
  -2   1  -6 97697.4 3786.84  11
  -2   1  -5 389497. 3597.94  17
  -2   1  -5 378940. 6494.93   2
  -2   1  -5 383203. 5542.03  20
  -2   1  -5 405507. 7220.81  11
  -2   1  -5 402443. 3721.69  16
  -2   1  -5 385961. 6912.95  25
  -2   1  -4 122649. 3677.23  25
  -2   1  -4 125984. 3125.36  20
  -2   1  -4 126909. 3183.70   2
  -2   1  -4 128294. 1880.54  16
  -2   1  -4 129023. 3796.54  11
  -2   1  -4 127417. 1791.21  17
  -2   1  -3 153779. 3869.58  11
  -2   1  -3 148432. 3364.41  20
  -2   1  -3 153061. 2892.87   2
  -2   1  -3 149866. 3826.79  25
  -2   1  -3 155523. 1833.67  16
  -2   1  -2 204228. 4176.47  11
  -2   1  -2 206963. 4251.66  25
  -2   1  -2 212125. 1947.85  16
  -2   1  -2 203756. 2859.00   2
  -2   1  -1 6764.78 508.989   2
  -2   1   0 178052. 1313.89  12
  -2   1   0 181733. 3455.25   4
  -2   1   1 427346. 2424.82   7
  -2   1   1 444992. 5744.09   4
  -2   1   2 213708. 2715.96   7
  -2   1   2 216202. 4351.06   4
  -2   1   3 201581. 3387.90   7
  -2   1   3 202836. 4652.44   4
  -2   1   4 320438. 6352.40   4
  -2   1   4 307491. 4949.93   7
  -2   1   5 1882.71 567.057   4
  -2   1   5 1609.10 454.298   7
  -2   1   6 299627. 6290.59   7
  -2   1   6 298985. 7417.98   4
  -2   1   7 56579.0 3029.56   7
  -2   1   7 58788.3 3571.71   4
  -2   1   7 60068.6 1800.68  37
  -2   1   7 65932.3 1798.13  43
  -2   1   7 66764.6 1773.45  51
  -2   1   8 68067.5 3560.69   7
  -2   1   8 68889.9 4010.45   4
  -2   1   8 63153.9 1785.60  46
  -2   1   8 67386.4 1986.45  43
  -2   1   8 67369.9 2038.11  37
  -2   1   9 193535. 3488.38  43
  -2   1   9 195840. 3473.62  37
  -2   1  10 22471.4 1207.13  43
  -2   1  10 28549.0 1340.32  37
  -2   1  11 11697.9 827.980  43
  -2   1  11 22618.3 1155.27  37
  -2   1  12 32339.3 1169.22  43
  -2   1  13 65.8416 110.322  43
  -2   2 -11 2490.23 389.012  16
  -2   2 -10 88567.3 2280.20  16
  -2   2 -10 86660.1 2099.86  17
  -2   2  -9 55133.1 1671.18  17
  -2   2  -9 55725.0 1781.61  16
  -2   2  -9 56989.0 3136.95  25
  -2   2  -9 58981.7 3361.94  11
  -2   2  -8 2408.38 354.333  17
  -2   2  -8 3083.34 779.142  25
  -2   2  -8 2994.79 416.738  16
  -2   2  -8 2667.71 751.700  11
  -2   2  -7 196777. 2918.87  16
  -2   2  -7 199916. 2836.69  17
  -2   2  -7 206897. 5813.36  11
  -2   2  -6 12648.4 1383.26  11
  -2   2  -6 14499.8 696.202  17
  -2   2  -6 14592.8 732.148  16
  -2   2  -6 13762.8 1215.33  20
  -2   2  -5 197958. 4515.45  20
  -2   2  -5 207039. 2451.50  16
  -2   2  -5 208152. 5160.27  11
  -2   2  -5 210990. 2276.40  17
  -2   2  -4 537362. 3521.13  16
  -2   2  -4 527299. 7612.62  11
  -2   2  -4 539833. 4674.03   2
  -2   2  -3 31704.1 1725.88  20
  -2   2  -3 31652.6 868.948   2
  -2   2  -3 32673.7 1757.95  11
  -2   2  -3 33197.4 797.516  16
  -2   2  -3 33482.4 1350.54   4
  -2   2  -2 68579.7 2495.97  20
  -2   2  -2 65792.5 1952.73   4
  -2   2  -2 65622.5 2332.05  11
  -2   2  -1 94878.0 1123.51  12
  -2   2  -1 93709.7 2590.31  11
  -2   2  -1 93083.3 2420.61   4
  -2   2   0 7908.97 788.502   4
  -2   2   1 77881.7 2616.84   4
  -2   2   2 342377. 6012.40   4
  -2   2   2 328554. 4157.46   7
  -2   2   3 34818.2 1607.81   7
  -2   2   3 38663.3 2237.48   4
  -2   2   4 173700. 4134.64   7
  -2   2   4 176793. 5228.92   4
  -2   2   5 132073. 4074.48   7
  -2   2   5 135088. 4990.38   4
  -2   2   6 33368.0 2273.27   7
  -2   2   6 34634.7 2743.23   4
  -2   2   7 207490. 3345.65  51
  -2   2   7 198438. 5979.67   7
  -2   2   7 206414. 3412.67  43
  -2   2   7 192422. 6862.95   4
  -2   2   7 198220. 3080.24  46
  -2   2   7 210503. 3410.81  37
  -2   2   8 45514.3 1652.12  37
  -2   2   8 46762.4 1689.32  51
  -2   2   8 45332.1 1476.56  46
  -2   2   8 46334.2 1688.60  43
  -2   2   9 39043.4 1591.96  43
  -2   2   9 43063.1 1596.08  37
  -2   2  10 82552.9 2207.91  43
  -2   2  10 87043.8 2131.22  37
  -2   2  11 20549.3 993.821  43
  -2   2  12 7374.57 491.357  43
  -2   3 -11 85619.2 2115.59  16
  -2   3 -10 10196.9 1400.45  25
  -2   3 -10 9507.15 720.964  16
  -2   3 -10 9487.19 1427.91  11
  -2   3  -9 166355. 2875.61  16
  -2   3  -9 168256. 5786.56  11
  -2   3  -8 139324. 5079.42  11
  -2   3  -8 135186. 2435.04  16
  -2   3  -7 56160.2 2796.15  20
  -2   3  -7 60407.3 3187.44  11
  -2   3  -7 58292.7 1469.07  16
  -2   3  -7 60498.2 1355.95  17
  -2   3  -6 163128. 4961.07  11
  -2   3  -6 160685. 2221.41  16
  -2   3  -6 166758. 1958.67  17
  -2   3  -5 49773.5 2517.45  20
  -2   3  -5 54376.9 2670.27  11
  -2   3  -5 51767.1 1136.48  16
  -2   3  -4 143570. 4159.68  20
  -2   3  -4 145031. 2472.19   4
  -2   3  -4 144980. 1716.36  16
  -2   3  -4 143448. 4012.92  11
  -2   3  -3 253063. 2179.02  12
  -2   3  -3 254379. 5346.13  20
  -2   3  -3 249899. 4885.98  11
  -2   3  -3 249491. 3589.40   4
  -2   3  -2 19931.5 1457.74  20
  -2   3  -2 18317.5 1250.06  11
  -2   3  -2 19283.9 572.536  12
  -2   3  -2 18413.9 1079.31   4
  -2   3  -1 239918. 2003.91  12
  -2   3  -1 235109. 4040.11  11
  -2   3  -1 238853. 4218.36   4
  -2   3   0 271696. 4923.32   4
  -2   3   1 23866.9 1618.85   4
  -2   3   1 24589.8 1062.45   6
  -2   3   2 337218. 6660.16   4
  -2   3   3 188294. 4313.37   7
  -2   3   3 191895. 5497.18   4
  -2   3   4 16729.5 1439.60   7
  -2   3   4 17820.6 1840.71   4
  -2   3   5 233818. 7196.05   4
  -2   3   5 235945. 5926.67   7
  -2   3   6 36658.3 2540.52   7
  -2   3   6 36610.6 3036.03   4
  -2   3   6 39486.7 1346.13  46
  -2   3   6 42019.1 1482.31  51
  -2   3   6 41003.1 1506.56  43
  -2   3   6 41384.2 1437.88  37
  -2   3   7 33203.6 2525.23   7
  -2   3   7 30429.6 1187.31  46
  -2   3   7 30111.0 1348.06  51
  -2   3   7 36666.9 3085.62   4
  -2   3   7 33633.0 1431.96  43
  -2   3   7 32600.1 1336.61  37
  -2   3   8 150720. 3081.68  51
  -2   3   8 155105. 3122.06  43
  -2   3   8 155134. 2913.08  37
  -2   3   9 27613.5 1305.03  43
  -2   3   9 29956.1 1262.97  37
  -2   3  10 12892.6 828.135  43
  -2   3  11 51311.0 1368.90  43
  -2   3  12 4031.51 285.140  43
  -2   4 -11 124464. 5120.21  11
  -2   4 -11 126115. 4975.69  25
  -2   4 -10 75949.7 1868.24  16
  -2   4 -10 75311.3 4081.12  11
  -2   4  -9 2279.72 643.647  20
  -2   4  -9 1531.72 685.957  11
  -2   4  -9 1662.72 286.806  16
  -2   4  -8 214906. 6022.93  20
  -2   4  -8 223063. 6570.10  11
  -2   4  -8 220236. 2848.57  16
  -2   4  -7 93955.3 3986.19  20
  -2   4  -7 95818.4 1739.20  16
  -2   4  -7 96409.3 4135.92  11
  -2   4  -6 12616.1 1444.66  20
  -2   4  -6 11926.8 562.931  16
  -2   4  -5 217376. 5765.50  20
  -2   4  -5 228709. 2213.49  16
  -2   4  -4 9097.46 1162.75  20
  -2   4  -4 8815.12 463.993  12
  -2   4  -3 67729.7 2060.36   4
  -2   4  -3 66893.1 1197.29  12
  -2   4  -3 67267.1 2962.97  20
  -2   4  -2 332473. 5085.52   4
  -2   4  -2 336681. 2647.87  12
  -2   4  -2 328169. 5263.13  11
  -2   4  -2 344173. 6444.42  20
  -2   4  -1 687.515 319.733   4
  -2   4  -1 872.962 265.730  11
  -2   4  -1 853.208 294.610   6
  -2   4   0 239244. 4005.40   6
  -2   4   0 249215. 5310.50   4
  -2   4   1 450235. 7830.81   4
  -2   4   1 437895. 5137.39   6
  -2   4   2 6264.16 1047.45   4
  -2   4   3 86191.1 4091.91   4
  -2   4   4 40890.2 3053.69   4
  -2   4   4 40642.6 2457.10   7
  -2   4   5 18848.2 987.653  51
  -2   4   5 20238.8 2279.23   4
  -2   4   5 17567.8 889.280  46
  -2   4   5 20557.1 2094.06   3
  -2   4   5 20018.6 1850.53   7
  -2   4   6 92179.7 2331.96  51
  -2   4   6 100790. 5222.09   4
  -2   4   6 92133.4 2038.26  46
  -2   4   6 90444.2 4115.18   7
  -2   4   6 95078.1 2120.58  37
  -2   4   7 31348.3 1401.90  43
  -2   4   7 33236.2 1442.39  51
  -2   4   7 32929.7 1275.02  37
  -2   4   8 27152.5 1300.47  51
  -2   4   8 28857.5 1327.44  43
  -2   4   8 30662.2 1205.71  37
  -2   4   9 59260.0 1774.03  43
  -2   4  10 5092.39 477.146  43
  -2   4  11 27726.3 812.307  43
  -2   5 -12 16445.5 908.648  12
  -2   5 -12 14823.7 1719.15  25
  -2   5 -11 19876.6 1027.78  12
  -2   5 -11 20332.2 2158.44  11
  -2   5 -10 50472.2 3085.47  20
  -2   5 -10 47474.5 3086.41   6
  -2   5 -10 51602.4 3462.76  11
  -2   5  -9 31103.3 2528.08  20
  -2   5  -9 33580.9 2738.68  11
  -2   5  -9 31788.5 2496.23   6
  -2   5  -8 31428.0 2548.07  20
  -2   5  -8 32016.1 2575.35  11
  -2   5  -8 33611.0 1005.11  16
  -2   5  -7 197066. 6313.22  20
  -2   5  -7 203226. 2720.26  12
  -2   5  -7 211189. 2337.30  16
  -2   5  -6 116371. 1930.52  12
  -2   5  -6 117363. 4703.26  20
  -2   5  -5 87660.0 3913.20  20
  -2   5  -5 90413.5 1613.61  12
  -2   5  -4 443867. 3423.75  12
  -2   5  -4 429304. 8334.66  20
  -2   5  -3 52052.7 2774.05  20
  -2   5  -3 48845.4 2010.25   4
  -2   5  -3 51153.1 2311.11   6
  -2   5  -3 48500.9 1118.95  12
  -2   5  -2 279275. 6129.26  20
  -2   5  -2 268891. 5258.75   4
  -2   5  -2 261613. 4980.12   6
  -2   5  -1 195683. 4206.64   6
  -2   5  -1 188808. 4836.69   4
  -2   5   0 22611.5 1803.38   4
  -2   5   0 25415.4 1485.32   6
  -2   5   1 441094. 8684.11   4
  -2   5   2 321293. 8052.56   4
  -2   5   3 12267.9 1707.00   4
  -2   5   4 53460.4 3711.49   4
  -2   5   4 55451.0 1759.30  53
  -2   5   4 50425.5 3414.54   3
  -2   5   4 54643.5 1666.79  51
  -2   5   4 55286.6 1572.62  46
  -2   5   4 53386.9 2999.10   7
  -2   5   5 40382.9 2727.48   7
  -2   5   5 42156.2 3093.17   3
  -2   5   5 46283.3 1438.75  46
  -2   5   5 47259.3 1650.39  51
  -2   5   6 4767.46 563.164  51
  -2   5   7 120503. 2683.26  51
  -2   5   7 121614. 2709.48  43
  -2   5   8 22934.8 1120.41  43
  -2   5   8 22785.4 1123.63  51
  -2   5   9 26940.4 1068.85  43
  -2   5  10 69686.7 1362.64  43
  -2   6 -12 76852.1 1916.26  12
  -2   6 -12 75663.2 4085.93  25
  -2   6 -11 9891.81 1443.68  20
  -2   6 -11 9261.48 1564.65  11
  -2   6 -11 9373.27 695.300  12
  -2   6 -10 31097.5 2680.65  20
  -2   6 -10 32349.8 2812.92  11
  -2   6 -10 30141.2 2532.48   6
  -2   6 -10 30842.0 1234.81  12
  -2   6  -9 110258. 5146.55  20
  -2   6  -9 106694. 4673.53   6
  -2   6  -9 113567. 2271.73  12
  -2   6  -9 116359. 5203.39  11
  -2   6  -8 38343.0 3048.05  20
  -2   6  -8 39741.8 2730.20   6
  -2   6  -8 39510.9 1294.41  12
  -2   6  -7 10808.2 1650.75  20
  -2   6  -7 10783.5 1368.30   6
  -2   6  -7 11049.1 663.676  12
  -2   6  -6 134810. 5349.63  20
  -2   6  -6 125285. 2086.91  12
  -2   6  -6 124559. 4393.86   6
  -2   6  -5 41217.0 2835.76  20
  -2   6  -5 38041.3 2328.37   6
  -2   6  -5 41054.0 1155.25  12
  -2   6  -4 30886.2 2024.55   6
  -2   6  -4 31854.4 2382.60  20
  -2   6  -3 211650. 5773.73  20
  -2   6  -3 196802. 4872.66   6
  -2   6  -3 206744. 4701.49   4
  -2   6  -2 330.764 383.554  20
  -2   6  -2 434.730 276.122   4
  -2   6  -2-24.8412 196.475   6
  -2   6  -1 96651.9 3904.62   4
  -2   6  -1 100028. 3354.97   6
  -2   6   0 86382.7 3972.01   4
  -2   6   1 35892.2 2740.26   4
  -2   6   2 173058. 6334.23   4
  -2   6   3 50781.3 1690.23  53
  -2   6   3 43778.9 3297.43   3
  -2   6   3 49390.1 1511.96  46
  -2   6   3 47810.0 1546.18  51
  -2   6   3 47721.2 3506.02   4
  -2   6   4 11097.2 1659.73   3
  -2   6   4 9764.96 769.624  53
  -2   6   4 9497.72 747.147  51
  -2   6   4 9698.57 664.864  46
  -2   6   5 90647.0 2317.77  51
  -2   6   6 48577.8 1716.72  43
  -2   6   6 49204.3 1690.78  51
  -2   6   7 20940.7 1073.13  43
  -2   6   7 19730.7 1034.62  51
  -2   6   8 66349.7 1683.46  43
  -2   6   9 10874.3 565.920  43
  -2   7 -13 27569.5 2291.47  25
  -2   7 -12 31964.1 1209.31  12
  -2   7 -11 191431. 3070.39  12
  -2   7 -11 199061. 7090.30  11
  -2   7 -11 188525. 6669.25  20
  -2   7 -10 122704. 5670.89  20
  -2   7 -10 127726. 5340.94   6
  -2   7 -10 126953. 2487.07  12
  -2   7 -10 128275. 5732.38  11
  -2   7  -9 44893.5 3489.51  20
  -2   7  -9 44352.6 3102.69   6
  -2   7  -9 44389.0 1437.21  12
  -2   7  -8 188530. 7047.38  20
  -2   7  -8 186550. 6157.84   6
  -2   7  -8 185607. 2848.76  12
  -2   7  -7 25149.7 2556.85  20
  -2   7  -7 24670.0 2150.24   6
  -2   7  -7 25221.7 1022.52  12
  -2   7  -6 113192. 5102.10  20
  -2   7  -6 107226. 4297.42   6
  -2   7  -6 106645. 2028.75  12
  -2   7  -5 137652. 5317.71  20
  -2   7  -5 130647. 4614.13   6
  -2   7  -4 20839.0 1792.53   6
  -2   7  -4 24801.0 2165.39  20
  -2   7  -3 117114. 4387.92  20
  -2   7  -3 108337. 3970.75   6
  -2   7  -2 197318. 5282.35   6
  -2   7  -2 216089. 5854.88   4
  -2   7  -1 41190.5 2328.64   6
  -2   7  -1 42139.8 2795.64   4
  -2   7   0 65099.4 3706.09   4
  -2   7   1 91158.4 2177.12  53
  -2   7   1 91042.8 2085.89  46
  -2   7   2 17021.9 999.097  53
  -2   7   2 18866.2 2238.36   3
  -2   7   2 17629.6 923.562  46
  -2   7   2 16987.8 909.847  51
  -2   7   3 139555. 2893.88  53
  -2   7   3 142106. 6080.33   3
  -2   7   3 137535. 2531.29  46
  -2   7   3 136302. 2714.11  51
  -2   7   4 48924.3 1686.73  51
  -2   7   4 51138.8 1770.00  53
  -2   7   4 48481.1 1428.24  46
  -2   7   5 16829.5 978.057  51
  -2   7   6 108449. 2388.43  43
  -2   7   6 101137. 2260.05  51
  -2   7   7 18116.4 887.800  43
  -2   7   7 18247.6 877.211  51
  -2   7   8 4622.98 382.565  43
  -2   8 -12 45975.7 3190.84  20
  -2   8 -12 46301.7 1419.21  12
  -2   8 -11 1376.16 634.307  20
  -2   8 -11-24.5209 430.344  11
  -2   8 -11 1087.78 250.150  12
  -2   8 -10 89014.2 5021.35  20
  -2   8 -10 85062.2 2035.91  12
  -2   8  -9 11115.9 1838.97  20
  -2   8  -9 12041.1 1669.80   6
  -2   8  -9 10821.9 728.915  12
  -2   8  -8 82594.1 4816.88  20
  -2   8  -8 77100.8 4152.17   6
  -2   8  -7 116575. 5558.32  20
  -2   8  -7 106130. 4727.29   6
  -2   8  -6 3362.30 989.073  20
  -2   8  -6 2286.51 719.450   6
  -2   8  -5 147100. 5591.52  20
  -2   8  -5 130225. 4960.59   6
  -2   8  -4 203665. 2671.37  18
  -2   8  -4 196470. 5915.73   6
  -2   8  -3 8602.09 1270.41  20
  -2   8  -3 6620.63 1075.98   6
  -2   8  -2 82005.6 1983.71  46
  -2   8  -2 80551.0 3585.78   6
  -2   8  -1 135246. 2629.12  53
  -2   8  -1 134883. 2576.30  46
  -2   8   0 732.570 255.836  53
  -2   8   0-207.075 269.776  46
  -2   8   1 140608. 2847.76  53
  -2   8   1 137599. 6107.91   3
  -2   8   1 134829. 2609.65  46
  -2   8   2 62482.9 1940.62  53
  -2   8   2 61246.2 1786.68  51
  -2   8   2 60003.8 1695.57  46
  -2   8   3 9515.73 781.657  53
  -2   8   3 10106.5 661.101  46
  -2   8   3 9594.50 730.225  51
  -2   8   4 84526.3 2104.94  51
  -2   8   5 18743.7 947.520  51
  -2   8   6 30899.6 1127.21  43
  -2   8   6 28509.8 1047.52  51
  -2   8   7 36618.9 1019.84  43
  -2   9 -12 117403. 5256.88  20
  -2   9 -11 73909.7 4479.14  20
  -2   9 -10 3094.23 1063.50  20
  -2   9  -9 32687.3 3109.72  20
  -2   9  -8 2019.56 850.112  20
  -2   9  -8 191.897 327.074   6
  -2   9  -7 73904.7 4415.53  20
  -2   9  -7 62268.7 3818.63   6
  -2   9  -6 91525.5 2098.51  18
  -2   9  -6 86168.2 4401.39   6
  -2   9  -5 31254.2 2617.88  20
  -2   9  -5 28812.8 1116.90  18
  -2   9  -5 27222.7 2402.14   6
  -2   9  -5 29383.6 1183.00  53
  -2   9  -4 99748.1 4349.78  20
  -2   9  -4 94839.0 2272.65  46
  -2   9  -4 97404.3 2206.45  53
  -2   9  -3 172658. 2996.78  53
  -2   9  -3 167838. 2997.78  46
  -2   9  -2 19383.8 1026.20  46
  -2   9  -2 20169.5 1056.14  53
  -2   9  -1 59274.5 4012.16   3
  -2   9  -1 60545.2 1847.25  53
  -2   9  -1 59936.6 1795.84  46
  -2   9   0 66263.8 1978.13  53
  -2   9   0 64875.5 1836.49  46
  -2   9   1 12655.8 786.561  51
  -2   9   1 12520.7 879.075  53
  -2   9   1 11690.4 760.082  46
  -2   9   2 93791.1 2358.78  53
  -2   9   2 91299.6 2129.35  51
  -2   9   2 89451.2 1941.55  46
  -2   9   3 38809.4 1364.16  51
  -2   9   3 40472.8 1501.80  53
  -2   9   4 6919.05 555.553  51
  -2   9   5 58998.5 1417.88  51
  -2   9   5 63135.8 1551.79  43
  -2   9   6 5964.32 407.867  43
  -2  10 -12 34943.4 2858.56  20
  -2  10 -11 145276. 6219.49  20
  -2  10 -11 144829. 2986.50  18
  -2  10 -10 34428.3 3136.31  20
  -2  10 -10 31435.5 1412.57  18
  -2  10  -9 24464.2 2650.79  20
  -2  10  -9 20969.4 1139.70  18
  -2  10  -8 55680.3 3925.13  20
  -2  10  -8 49937.3 1688.17  18
  -2  10  -7-4.45720 541.819  20
  -2  10  -7 224.542 168.659  18
  -2  10  -6 55893.3 3588.41  20
  -2  10  -6 52737.7 1611.73  18
  -2  10  -6 52873.5 3536.66   6
  -2  10  -6 59343.3 1753.17  53
  -2  10  -5 145211. 5460.62  20
  -2  10  -5 146264. 2939.18  46
  -2  10  -5 146635. 2796.82  53
  -2  10  -4 5723.77 578.785  53
  -2  10  -4 3939.97 912.257   6
  -2  10  -4 3454.72 891.613   3
  -2  10  -3 42272.0 1554.35  53
  -2  10  -3 40083.1 1523.53  46
  -2  10  -2 35793.8 1445.94  53
  -2  10  -2 33911.5 1372.92  46
  -2  10  -1 3883.62 499.213  53
  -2  10  -1 4324.39 494.030  46
  -2  10   0 80282.2 2171.14  53
  -2  10   0 79434.9 1936.96  46
  -2  10   1 27685.9 1102.31  51
  -2  10   1 27168.5 1052.40  46
  -2  10   1 27929.1 1266.33  53
  -2  10   2 2584.49 406.988  53
  -2  10   2 2270.80 325.866  51
  -2  10   3 49241.2 1328.85  51
  -2  10   4 26209.2 860.315  51
  -2  10   4 28485.3 988.116  43
  -2  10   5 8434.21 451.475  43
  -2  11 -13 26433.5 919.474  46
  -2  11 -11 24756.5 2437.27  20
  -2  11 -10 121201. 5556.43  20
  -2  11 -10 107586. 2511.79  18
  -2  11  -9 36270.6 3071.10  20
  -2  11  -9 30881.6 1346.65  18
  -2  11  -8 26831.9 2628.72  20
  -2  11  -8 22675.1 1132.83  18
  -2  11  -7 126760. 5390.85  20
  -2  11  -7 127627. 2578.80  53
  -2  11  -7 127836. 2846.00  46
  -2  11  -6 17906.1 990.549  53
  -2  11  -6 21149.5 2164.54  20
  -2  11  -6 20058.4 1205.99  46
  -2  11  -5 81010.1 2226.80  46
  -2  11  -5 82005.4 2135.66  53
  -2  11  -4 41629.9 1538.01  53
  -2  11  -4 39780.5 1537.34  46
  -2  11  -3 18973.6 1038.64  46
  -2  11  -3 21367.9 1102.62  53
  -2  11  -2 80270.3 2137.64  53
  -2  11  -2 80958.1 2034.16  46
  -2  11  -1 38346.1 1474.83  53
  -2  11  -1 35765.0 1273.64  46
  -2  11   0 4673.21 523.849  53
  -2  11   0 4378.97 425.855  46
  -2  11   1 35157.6 1289.12  53
  -2  11   2 38718.7 1223.40  53
  -2  11   2 37477.6 1010.10  51
  -2  11   3 319.788 110.444  51
  -2  11   4 25433.8 703.487  43
  -2  12 -13 9370.45 538.238  46
  -2  12 -12 30804.4 1122.56  46
  -2  12 -11 11559.5 818.228  46
  -2  12 -10 12192.6 902.073  46
  -2  12  -9 52354.2 3353.03  20
  -2  12  -9 54596.5 1809.09  46
  -2  12  -8 15161.9 1859.60  20
  -2  12  -8 17030.4 1103.55  46
  -2  12  -7 42231.7 1653.86  46
  -2  12  -7 36590.3 1356.99  53
  -2  12  -6 113929. 2422.79  53
  -2  12  -6 117283. 2595.69  46
  -2  12  -5 193.544 188.649  53
  -2  12  -5 1300.76 452.879  46
  -2  12  -4 77053.5 1995.08  46
  -2  12  -4 79006.6 2037.37  53
  -2  12  -3 28066.2 1214.76  53
  -2  12  -3 28029.8 1151.76  46
  -2  12  -2 4842.06 524.732  53
  -2  12  -2 5160.42 482.250  46
  -2  12  -1 62635.1 1700.37  53
  -2  12  -1 58537.4 1387.01  46
  -2  12   0 14330.4 766.274  53
  -2  12   1 1557.19 257.997  53
  -2  13 -13 8495.29 447.808  46
  -2  13 -12 14218.9 715.308  46
  -2  13 -11 54203.8 1490.76  46
  -2  13 -10 8278.98 710.709  46
  -2  13  -9 28977.4 1236.89  46
  -2  13  -8 42796.9 1289.35  53
  -2  13  -8 50741.5 1631.19  46
  -2  13  -7 5970.35 520.110  53
  -2  13  -7 9459.92 761.804  46
  -2  13  -6 43172.7 1377.78  53
  -2  13  -6 43767.7 1458.63  46
  -2  13  -5 62305.2 1681.21  46
  -2  13  -5 61057.9 1643.39  53
  -2  13  -4 3603.69 428.018  53
  -2  13  -4 3996.56 420.945  46
  -2  13  -3 14489.7 785.327  53
  -2  13  -3 13281.0 675.888  46
  -2  13  -2 29339.7 1049.85  53
  -2  13  -2 26757.1 825.441  46
  -2  13  -1 2662.92 314.279  53
  -2  13   1 16397.7 520.939  43
  -2  14 -12 2015.84 255.957  46
  -2  14 -11 34439.1 1026.20  46
  -2  14 -10 41306.4 1202.57  46
  -2  14  -9 2257.87 372.548  46
  -2  14  -8 20826.4 763.838  53
  -2  14  -8 22521.6 937.313  46
  -2  14  -7 33241.1 1023.41  53
  -2  14  -7 34537.9 1134.39  46
  -2  14  -6-113.777 188.512  46
  -2  14  -6 351.009 157.477  53
  -2  14  -5 25382.5 906.749  53
  -2  14  -5 25535.1 874.995  46
  -2  14  -4 16760.9 716.840  53
  -2  14  -4 16471.3 630.859  46
  -2  14  -3 168.451 125.524  53
  -2  14  -2 28557.9 790.819  53
  -2  15 -10 6085.71 368.600  46
  -2  15  -9 13380.8 568.153  46
  -2  15  -8 749.815 163.711  46
  -2  15  -7 23902.1 708.999  46
  -2  15  -6 20416.6 590.277  46
  -2  15  -6 19711.5 595.518  53
  -1 -15   4 8106.94 368.150  28
  -1 -15   5 28098.6 761.164  28
  -1 -15   6 37.1386 103.606  28
  -1 -15   7 26701.5 815.943  28
  -1 -15   8 12872.9 571.797  28
  -1 -15   9 294.942 124.533  28
  -1 -15  10 30971.6 780.545  28
  -1 -14   2 24217.2 706.648  29
  -1 -14   2 21071.6 582.547  44
  -1 -14   3 47026.7 1117.90  29
  -1 -14   4 12787.8 649.394  29
  -1 -14   5 8953.21 578.021  29
  -1 -14   6 10710.0 544.961  50
  -1 -14   7 5546.83 441.678  50
  -1 -14   7 6741.45 534.219  28
  -1 -14   8 24221.2 966.439  28
  -1 -14   8 23425.1 936.386  50
  -1 -14   9 20764.3 865.555  28
  -1 -14  10 3139.30 335.310  28
  -1 -14  12 6731.85 403.645  40
  -1 -13   0 6989.12 386.720  29
  -1 -13   1 32709.8 968.718  29
  -1 -13   2 4328.39 415.930  29
  -1 -13   3 35788.5 1105.13  44
  -1 -13   3 39531.8 1275.88  29
  -1 -13   4 96419.6 1814.15  44
  -1 -13   4 106982. 2204.12  29
  -1 -13   5 6158.68 570.293  29
  -1 -13   5 6501.50 499.694  50
  -1 -13   6 41294.8 1352.25  50
  -1 -13   6 43973.3 1483.39  29
  -1 -13   7 8299.01 649.944  50
  -1 -13   7 7405.81 627.992  29
  -1 -13   8 4177.12 480.730  28
  -1 -13   8 3872.53 492.840  50
  -1 -13   9 52869.5 1560.01  28
  -1 -13   9 52886.7 1697.64  50
  -1 -13  10 18025.0 869.616  40
  -1 -13  10 17620.6 857.990  28
  -1 -13  11 3365.02 400.544  40
  -1 -13  11 3357.67 353.812  28
  -1 -13  12 29862.2 1102.03  40
  -1 -13  13 13704.0 709.557  40
  -1 -13  14 4004.06 365.733  40
  -1 -12  -2 5524.01 298.540  29
  -1 -12  -1 16077.0 606.649  45
  -1 -12  -1 16070.9 658.252  29
  -1 -12   0 4607.85 415.713  29
  -1 -12   1 11442.9 705.651  29
  -1 -12   2 36011.5 1313.78  29
  -1 -12   3 1932.99 342.714  29
  -1 -12   4 70548.7 1745.58  50
  -1 -12   4 73096.9 1993.78  29
  -1 -12   5 75335.5 1941.69  50
  -1 -12   5 76306.1 2069.51  29
  -1 -12   6 17932.7 1022.53  29
  -1 -12   6 16375.9 958.516  50
  -1 -12   7 85439.8 2258.85  50
  -1 -12   7 86686.7 2206.63  29
  -1 -12   8 74317.6 2162.49  50
  -1 -12   9 3789.19 527.692  50
  -1 -12   9 4488.47 498.425  28
  -1 -12   9 3780.40 469.669  40
  -1 -12  10 56457.3 1893.69  50
  -1 -12  10 55231.2 1604.93  28
  -1 -12  10 52687.9 1748.62  40
  -1 -12  11 11799.7 691.382  28
  -1 -12  11 12057.0 856.123  40
  -1 -12  12 15275.7 940.079  40
  -1 -12  13 49021.8 1552.18  40
  -1 -12  14 5062.29 477.901  40
  -1 -12  15 19228.7 719.066  40
  -1 -11  -4 10718.2 442.956  45
  -1 -11  -3 29423.9 765.841  29
  -1 -11  -3 28920.5 877.874  45
  -1 -11  -2 9920.62 567.289  29
  -1 -11  -2 10339.2 593.943  45
  -1 -11  -2 10402.8 656.145  48
  -1 -11  -1 10246.9 624.597  45
  -1 -11  -1 10777.9 662.229  29
  -1 -11  -1 10484.8 713.084  48
  -1 -11   0 54878.7 1588.10  29
  -1 -11   0 51813.9 1425.72  45
  -1 -11   0 54278.5 1641.22  48
  -1 -11   0 52422.4 2836.02  22
  -1 -11   1 1960.71 341.323  48
  -1 -11   1 2362.33 373.159  29
  -1 -11   1 1987.86 599.540  22
  -1 -11   2 26532.3 1200.35  29
  -1 -11   3 50888.6 1507.25  50
  -1 -11   3 51754.4 1707.24  29
  -1 -11   4 386.311 179.570  50
  -1 -11   4 953.896 271.795  29
  -1 -11   5 57792.0 1834.81  29
  -1 -11   5 56558.8 1791.14  50
  -1 -11   6 24348.1 1223.40  50
  -1 -11   6 24947.6 1203.58  29
  -1 -11   7 3503.95 457.991  29
  -1 -11   7 3629.24 506.918  50
  -1 -11   8 69712.9 2007.51  40
  -1 -11   8 68550.1 2143.41  50
  -1 -11   9 73852.6 1966.03  28
  -1 -11   9 78358.1 2255.20  40
  -1 -11   9 80568.2 2355.17  50
  -1 -11  10 750.968 295.128  50
  -1 -11  10 1369.69 287.880  28
  -1 -11  10 823.761 305.083  40
  -1 -11  11 53508.0 1481.63  28
  -1 -11  11 54524.8 1977.02  40
  -1 -11  12 3715.09 549.951  40
  -1 -11  13 52410.8 1794.58  40
  -1 -11  14 63450.2 1769.78  40
  -1 -11  15 536.577 204.375  40
  -1 -10  -5 54976.8 1152.87  45
  -1 -10  -5 58773.1 1240.16  48
  -1 -10  -4 5823.01 369.636  29
  -1 -10  -4 6032.33 467.393  45
  -1 -10  -4 6019.77 490.997  48
  -1 -10  -3 10263.0 702.600  48
  -1 -10  -3 10017.7 594.288  29
  -1 -10  -2 65541.0 1661.17  29
  -1 -10  -2 63500.9 1799.75  48
  -1 -10  -1 6010.99 545.660  29
  -1 -10  -1 6249.03 595.557  48
  -1 -10   0 89239.2 2146.03  29
  -1 -10   0 86048.1 3955.14  22
  -1 -10   0 87305.2 2180.08  48
  -1 -10   1 107809. 2409.63  48
  -1 -10   1 109087. 2414.29  29
  -1 -10   1 108839. 4388.31  22
  -1 -10   2 95.8776 163.634  29
  -1 -10   2-10.0292 161.761  48
  -1 -10   2-151.062 321.228  22
  -1 -10   3 105052. 2244.29  50
  -1 -10   3 109756. 2452.62  29
  -1 -10   4 56173.5 1716.87  50
  -1 -10   4 54549.7 1749.69  29
  -1 -10   5 5750.38 576.644  29
  -1 -10   5 5525.00 574.637  50
  -1 -10   6 10118.7 793.653  50
  -1 -10   6 10011.9 745.160  29
  -1 -10   7 40843.6 1472.53  29
  -1 -10   7 41508.5 1625.94  50
  -1 -10   7 40306.5 1494.03  40
  -1 -10   8 1393.45 351.859  50
  -1 -10   8 1466.68 342.146  40
  -1 -10   9 134000. 3007.78  50
  -1 -10   9 132365. 2521.98  28
  -1 -10   9 137389. 3144.18  40
  -1 -10  10 81562.2 2328.32  50
  -1 -10  10 78489.3 1866.42  28
  -1 -10  10 81241.9 2508.93  40
  -1 -10  11 7465.11 547.829  28
  -1 -10  11 6620.66 753.525  40
  -1 -10  12 87661.9 2605.35  40
  -1 -10  13 3905.91 575.740  40
  -1 -10  14 39601.5 1480.55  40
  -1 -10  15 23396.7 943.621  40
  -1  -9  -7 17318.0 528.792  48
  -1  -9  -7 18024.6 539.762  45
  -1  -9  -6 10627.1 568.206  48
  -1  -9  -6 11326.3 575.212  45
  -1  -9  -5 30116.6 1108.67  48
  -1  -9  -4 39714.3 1184.50  29
  -1  -9  -4 42354.1 1450.76  48
  -1  -9  -3 17540.7 997.629  48
  -1  -9  -3 16433.8 852.124  29
  -1  -9  -2 43708.4 1560.73  48
  -1  -9  -2 42107.9 1442.59  29
  -1  -9  -1 114166. 2413.51  29
  -1  -9  -1 114499. 2511.39  48
  -1  -9   0 9007.92 708.211  48
  -1  -9   0 9533.20 717.537  29
  -1  -9   1 68263.7 1886.48  29
  -1  -9   1 68691.3 1857.42  48
  -1  -9   1 62552.0 3543.85   2
  -1  -9   2 69747.6 1890.83  29
  -1  -9   2 72549.4 1836.30  48
  -1  -9   2 65616.7 3546.84   2
  -1  -9   2 71427.6 1741.75  50
  -1  -9   2 70504.9 3343.53  22
  -1  -9   3 1653.54 272.545  48
  -1  -9   3 1795.52 314.943  29
  -1  -9   3 1220.28 264.579  50
  -1  -9   3 1557.11 569.409   2
  -1  -9   3 1771.82 533.888  22
  -1  -9   4 97016.3 2194.12  50
  -1  -9   4 97420.2 4114.31   2
  -1  -9   4 99605.2 2208.75  29
  -1  -9   5 6671.54 566.372  29
  -1  -9   5 7791.16 654.113  50
  -1  -9   6 1825.34 349.849  50
  -1  -9   6 2072.48 325.877  29
  -1  -9   7 160992. 2678.99  29
  -1  -9   7 163909. 3101.93  50
  -1  -9   7 159610. 3025.85  40
  -1  -9   8 94951.6 2529.48  40
  -1  -9   8 99132.7 2479.11  50
  -1  -9   9 14209.7 952.764  50
  -1  -9   9 16509.1 831.563  28
  -1  -9   9 15737.3 1103.72  40
  -1  -9  10 103064. 2525.17  50
  -1  -9  10 102118. 1997.66  28
  -1  -9  10 102750. 2870.56  40
  -1  -9  11 21646.4 1356.70  40
  -1  -9  12 30695.0 1569.05  40
  -1  -9  13 58525.6 2046.42  40
  -1  -9  14 1148.09 326.327  40
  -1  -9  15 6558.20 510.503  40
  -1  -8  -8 30563.1 730.540  45
  -1  -8  -8 28920.5 691.175  48
  -1  -8  -7 1786.18 259.862  48
  -1  -8  -6 47800.2 1418.43  48
  -1  -8  -5 2138.72 463.881  48
  -1  -8  -5 1075.82 222.406  29
  -1  -8  -4 21932.7 1139.69  48
  -1  -8  -4 19677.5 935.338  29
  -1  -8  -3 103171. 2233.95  29
  -1  -8  -3 110812. 2497.96  48
  -1  -8  -2 16997.9 922.874  29
  -1  -8  -2 18966.0 1039.85  48
  -1  -8  -2 17310.2 1974.18   2
  -1  -8  -1 72108.9 1874.60  29
  -1  -8  -1 74009.4 1959.26  48
  -1  -8  -1 68647.3 3852.03   2
  -1  -8   0 152188. 2676.12  48
  -1  -8   0 150704. 2679.46  29
  -1  -8   1 1256.81 537.599   2
  -1  -8   2 89412.3 3967.55   2
  -1  -8   3 102243. 4117.41   2
  -1  -8   3 115560. 4257.09  26
  -1  -8   3 111404. 3693.81  22
  -1  -8   4 32720.8 2271.99   2
  -1  -8   4 32195.1 2382.59  26
  -1  -8   5 56565.1 3336.15  26
  -1  -8   5 54587.4 2852.81   2
  -1  -8   5 56618.4 2558.90   9
  -1  -8   6 164481. 4502.85   9
  -1  -8   7 25642.3 1878.05   9
  -1  -8   8 209288. 3092.78  43
  -1  -8   8 216619. 3384.80  50
  -1  -8   8 202864. 2672.14  28
  -1  -8   8 214476. 5701.10   9
  -1  -8   8 213279. 3734.44  40
  -1  -8   9 58143.5 1789.01  50
  -1  -8   9 55853.1 1390.83  28
  -1  -8   9 58316.7 1733.45  43
  -1  -8   9 55004.4 2035.17  40
  -1  -8  10 34346.8 1384.46  43
  -1  -8  10 31969.2 1332.73  50
  -1  -8  10 31999.6 1614.79  40
  -1  -8  11 64983.4 1965.16  43
  -1  -8  11 61695.1 2271.02  40
  -1  -8  12 5107.17 636.833  43
  -1  -8  12 1882.25 443.619  40
  -1  -8  13 50670.2 1912.29  40
  -1  -8  13 54727.0 1828.98  43
  -1  -8  14 34901.9 1380.53  40
  -1  -8  14 40764.5 1504.10  43
  -1  -8  15 8280.34 529.214  40
  -1  -7  -9 5687.95 315.356  45
  -1  -7  -8 58498.7 1325.84  48
  -1  -7  -7 10429.6 711.419  48
  -1  -7  -6 34575.8 1108.39  29
  -1  -7  -5 23745.6 1040.91  17
  -1  -7  -5 24342.3 1032.87  29
  -1  -7  -4 8151.65 628.483  29
  -1  -7  -4 8857.63 637.884  17
  -1  -7  -3 10811.3 683.562  17
  -1  -7  -3 10473.5 1579.32   2
  -1  -7  -3 10507.7 713.135  29
  -1  -7  -2 99351.1 1949.50  17
  -1  -7  -2 102435. 2142.67  29
  -1  -7  -2 96192.2 4600.42   2
  -1  -7  -1 5350.06 1048.36   2
  -1  -7  -1 6068.08 456.212  17
  -1  -7   0 131843. 4901.82   2
  -1  -7   1 236825. 6313.85   2
  -1  -7   2 2162.32 602.746   2
  -1  -7   2 5158.05 847.680  26
  -1  -7   3 269530. 6202.40   2
  -1  -7   3 261132. 6235.17  26
  -1  -7   3 279522. 5235.77  22
  -1  -7   4 53607.1 2970.94  26
  -1  -7   4 55311.5 2292.06   9
  -1  -7   4 57611.2 2764.28   2
  -1  -7   5 4500.16 680.728   9
  -1  -7   5 4596.98 928.479  26
  -1  -7   5 4405.71 772.421   2
  -1  -7   6 179481. 4464.22   9
  -1  -7   6 176721. 5907.31  26
  -1  -7   7 92072.0 3424.37   9
  -1  -7   8 11810.4 1349.43   9
  -1  -7   9 79820.0 1932.04  50
  -1  -7   9 77123.3 1905.78  43
  -1  -7   9 79207.2 3658.86   9
  -1  -7   9 74889.3 2334.75  40
  -1  -7  10 20414.2 991.828  50
  -1  -7  10 18971.2 1007.65  43
  -1  -7  10 18518.5 1227.66  40
  -1  -7  11 13571.8 860.176  36
  -1  -7  11 14014.0 906.007  43
  -1  -7  11 13850.2 1073.82  40
  -1  -7  12 58704.3 1792.76  36
  -1  -7  12 63309.7 2223.42  40
  -1  -7  12 64204.2 1966.11  43
  -1  -7  13 2010.65 407.967  43
  -1  -7  13 1330.28 337.300  40
  -1  -7  14 18803.5 1021.92  43
  -1  -7  14 16325.4 902.364  40
  -1  -7  15 73020.2 1687.88  43
  -1  -6  -9 22064.3 802.670  48
  -1  -6  -8 22117.9 988.693  48
  -1  -6  -7 78036.3 1877.26  17
  -1  -6  -6 7231.10 611.014  17
  -1  -6  -6 7496.75 563.104  29
  -1  -6  -6 8844.31 1531.15  23
  -1  -6  -5 71582.9 1911.75  17
  -1  -6  -5 67714.2 1744.42  29
  -1  -6  -4 125786. 2451.56  17
  -1  -6  -4 136573. 5487.98  23
  -1  -6  -4 132804. 5627.81   2
  -1  -6  -4 118062. 2295.48  29
  -1  -6  -4 132297. 4522.87  10
  -1  -6  -3 45414.8 1389.83  17
  -1  -6  -3 44223.2 3146.63   2
  -1  -6  -3 43669.1 1356.53  29
  -1  -6  -3 49275.1 3155.25  23
  -1  -6  -2 32420.3 2555.10   2
  -1  -6  -2 31378.0 1080.24  17
  -1  -6  -2 35155.4 2505.43  23
  -1  -6  -1 53929.1 1308.78  17
  -1  -6  -1 54574.9 3134.06   2
  -1  -6  -1 57399.5 2987.22  23
  -1  -6   0 104.770 302.782   2
  -1  -6   0 245.400 130.708  17
  -1  -6   0 461.947 443.574  23
  -1  -6   1 284474. 5539.57  26
  -1  -6   1 275902. 6364.91   2
  -1  -6   2 224381. 5227.94  26
  -1  -6   2 223531. 5408.28   2
  -1  -6   3 37398.6 2106.76   2
  -1  -6   3 35404.0 2202.27  26
  -1  -6   3 34806.1 1589.02  22
  -1  -6   4 236751. 5095.60   2
  -1  -6   4 236059. 4269.86   9
  -1  -6   5 173698. 5296.52  26
  -1  -6   5 177367. 4389.04   2
  -1  -6   5 182489. 3965.65   9
  -1  -6   6 29009.2 2264.45  26
  -1  -6   6 29599.5 1734.82   9
  -1  -6   7 272223. 5708.44   9
  -1  -6   8 22153.0 1790.92   9
  -1  -6   9 43879.5 1389.95  43
  -1  -6   9 43802.4 2724.52   9
  -1  -6   9 42655.5 1712.87  40
  -1  -6  10 126796. 2549.50  43
  -1  -6  10 126799. 4960.39   9
  -1  -6  10 126202. 3059.48  40
  -1  -6  11 25030.5 1216.90  36
  -1  -6  11 26784.5 1246.27  43
  -1  -6  11 25364.8 2318.48   9
  -1  -6  11 27593.7 1448.58  40
  -1  -6  12 37728.2 1522.30  43
  -1  -6  12 36358.9 1605.75  40
  -1  -6  13 101265. 2346.72  36
  -1  -6  13 94070.0 2353.76  43
  -1  -6  13 94898.4 2349.53  40
  -1  -6  14 44963.7 1518.54  43
  -1  -6  15 21396.5 909.768  43
  -1  -5 -10 4826.06 365.962  48
  -1  -5  -8 23954.3 2221.58  23
  -1  -5  -7 84537.4 2137.60  17
  -1  -5  -7 90268.2 4503.72  23
  -1  -5  -6 108322. 2443.24  17
  -1  -5  -6 105109. 4397.11  10
  -1  -5  -6 96717.8 2044.30  29
  -1  -5  -6 108732. 5045.73  23
  -1  -5  -5 87299.5 2117.74  17
  -1  -5  -5 88470.7 4624.70   2
  -1  -5  -5 88117.8 4447.89  23
  -1  -5  -4 66140.8 3685.78  23
  -1  -5  -4 63809.2 1709.61  17
  -1  -5  -4 62460.0 3716.45   2
  -1  -5  -3 235095. 3059.71  17
  -1  -5  -3 245171. 6976.87   2
  -1  -5  -3 237264. 6497.92  23
  -1  -5  -2 7227.95 505.499  17
  -1  -5  -2 7066.23 1155.63   2
  -1  -5  -2 7410.42 1104.88  23
  -1  -5  -1 74473.2 1470.37  17
  -1  -5  -1 77433.8 3492.58   2
  -1  -5  -1 76710.5 3181.44  23
  -1  -5   0 13096.6 1234.19  23
  -1  -5   0 12014.8 539.527  17
  -1  -5   0 12030.1 1309.12   2
  -1  -5   0 14577.6 1155.29  26
  -1  -5   1 64854.5 2524.10  26
  -1  -5   1 65818.5 2833.09   2
  -1  -5   1 67851.7 2479.59  23
  -1  -5   2 283129. 5535.12  26
  -1  -5   2 295565. 5563.87   2
  -1  -5   3 67082.8 2526.85   2
  -1  -5   3 67214.3 2829.10  26
  -1  -5   4 92969.7 2914.53   2
  -1  -5   4 96192.2 3534.83  26
  -1  -5   4 93941.5 2433.69   9
  -1  -5   5 50477.2 2693.13  26
  -1  -5   5 50695.9 1963.94   9
  -1  -5   6 31035.0 2164.26  26
  -1  -5   6 28440.6 1638.84   9
  -1  -5   7 192724. 4726.24   9
  -1  -5   8 239658. 5836.42   9
  -1  -5   9 17971.6 1778.04   9
  -1  -5  10 65917.6 1929.31  36
  -1  -5  10 69357.3 2177.22  40
  -1  -5  10 74603.7 3859.99   9
  -1  -5  10 72489.4 1929.46  43
  -1  -5  10 68401.4 1605.97  37
  -1  -5  11 93702.7 4531.07   9
  -1  -5  11 98569.6 2372.68  43
  -1  -5  11 91455.0 2365.59  36
  -1  -5  11 93249.4 2519.80  40
  -1  -5  11 95355.6 2030.69  37
  -1  -5  12 4488.04 542.162  43
  -1  -5  12 4812.07 559.164  40
  -1  -5  12 6362.81 581.298  37
  -1  -5  13 13352.5 896.958  43
  -1  -5  13 17153.8 911.020  37
  -1  -5  14 45084.4 1499.67  43
  -1  -5  15 343.655 204.933  43
  -1  -4 -11 33814.5 832.030  48
  -1  -4  -9 19106.7 1941.50  23
  -1  -4  -8 129944. 5385.91  23
  -1  -4  -7 13895.6 907.767  17
  -1  -4  -7 13954.9 888.118  14
  -1  -4  -7 12357.7 1739.19  23
  -1  -4  -6 11013.4 1648.66   2
  -1  -4  -6 11425.5 811.345  17
  -1  -4  -6 11407.5 803.044  14
  -1  -4  -6 11434.3 1674.70  23
  -1  -4  -5 287691. 3809.95  17
  -1  -4  -5 297408. 8065.80   2
  -1  -4  -5 293344. 3781.66  14
  -1  -4  -5 290365. 7748.52  23
  -1  -4  -4 48147.2 1444.87  17
  -1  -4  -4 48474.8 1446.81  14
  -1  -4  -4 49366.1 3118.60   2
  -1  -4  -4 49849.6 3003.80  23
  -1  -4  -3 184194. 2580.44  17
  -1  -4  -3 188265. 5688.45   2
  -1  -4  -3 184376. 2600.58  14
  -1  -4  -3 189711. 5360.14  23
  -1  -4  -2 321940. 3156.21  17
  -1  -4  -2 322531. 3223.38  14
  -1  -4  -2 335032. 6610.60  23
  -1  -4  -2 342027. 7157.90   2
  -1  -4  -1 140294. 1894.89  17
  -1  -4  -1 147471. 4448.49   2
  -1  -4  -1 140474. 3912.11  23
  -1  -4   0 531804. 3251.13  17
  -1  -4   0 525999. 6762.14  23
  -1  -4   1 403354. 6186.51   2
  -1  -4   2 25897.1 1453.64   2
  -1  -4   3 23477.2 1334.06   2
  -1  -4   3 22914.9 1538.34  26
  -1  -4   3 22932.4 1002.57   9
  -1  -4   4 525450. 7634.35  26
  -1  -4   4 518888. 5342.23   9
  -1  -4   4 521879. 6364.40   2
  -1  -4   5 15292.8 886.647   4
  -1  -4   5 16281.7 1091.05   9
  -1  -4   5 15119.9 1351.91  26
  -1  -4   6 263263. 5774.91  26
  -1  -4   6 272852. 5029.56   9
  -1  -4   6 273859. 3826.82   4
  -1  -4   7 80277.5 3091.18   9
  -1  -4   7 78973.1 3098.55   7
  -1  -4   8 83224.0 3494.81   9
  -1  -4   8 83440.8 3485.45   7
  -1  -4   9 222267. 6289.55   9
  -1  -4   9 227534. 6263.90   7
  -1  -4  10 20301.6 1098.51  36
  -1  -4  10 21015.1 1118.97  40
  -1  -4  10 19404.5 938.678  37
  -1  -4  10 19842.2 2052.00   9
  -1  -4  10 21938.2 1070.93  43
  -1  -4  10 21465.4 2079.23   7
  -1  -4  11 50464.4 1623.91  37
  -1  -4  11 56192.0 1864.96  36
  -1  -4  11 52247.5 1755.88  43
  -1  -4  12 48093.9 1723.58  43
  -1  -4  12 45971.8 1585.56  37
  -1  -4  13 3698.75 484.607  43
  -1  -4  13 7960.54 689.316  37
  -1  -4  14 33593.1 1249.87  43
  -1  -4  15 27859.9 899.119  43
  -1  -3  -9 26710.4 2450.45  23
  -1  -3  -8 29806.2 1338.17  17
  -1  -3  -8 31399.4 1320.29  14
  -1  -3  -8 30047.3 2697.86  23
  -1  -3  -7 54422.7 1777.64  17
  -1  -3  -7 52747.2 3595.62   2
  -1  -3  -7 53034.2 1691.02  14
  -1  -3  -7 51990.6 3465.68  23
  -1  -3  -6 14695.8 1789.51  23
  -1  -3  -6 15653.1 1879.12   2
  -1  -3  -6 15740.1 893.433  14
  -1  -3  -5 89484.6 4201.23   2
  -1  -3  -5 90140.9 1972.14  14
  -1  -3  -4 247656. 3049.89  14
  -1  -3  -4 253330. 6605.46   2
  -1  -3  -3 17221.8 1609.48   2
  -1  -3  -3 16279.2 724.349  14
  -1  -3  -2 196802. 2315.32  17
  -1  -3  -2 206055. 5073.23   2
  -1  -3  -2 205292. 2320.92  14
  -1  -3  -1 26281.1 756.956  17
  -1  -3  -1 25565.7 1692.17   2
  -1  -3   0 64587.7 1011.61  17
  -1  -3   0 65016.3 2388.05   2
  -1  -3   1 439621. 5577.76   2
  -1  -3   2 67558.1 2024.18   2
  -1  -3   2 65281.5 1320.88   9
  -1  -3   3 62730.9 1969.66   2
  -1  -3   3 63779.3 1532.61   9
  -1  -3   4 342103. 5536.08  26
  -1  -3   4 338979. 4254.60   9
  -1  -3   4 335189. 4042.79   4
  -1  -3   5 208144. 3324.89   4
  -1  -3   5 217551. 4547.92  26
  -1  -3   5 215176. 3979.92   9
  -1  -3   5 212537. 4060.59   7
  -1  -3   6 122379. 2826.37   4
  -1  -3   6 121153. 3447.96   9
  -1  -3   6 120166. 3419.60   7
  -1  -3   7 276525. 5889.67   9
  -1  -3   7 288200. 5841.31   7
  -1  -3   8 22964.0 1915.29   9
  -1  -3   8 22746.7 1840.28   7
  -1  -3   9 54833.3 3118.65   7
  -1  -3   9 55765.4 3237.38   9
  -1  -3  10 94505.0 2343.74  36
  -1  -3  10 99816.7 2328.46  43
  -1  -3  10 95292.0 2243.32  37
  -1  -3  11 131.881 169.840  43
  -1  -3  11 573.855 243.048  37
  -1  -3  12 58111.0 1890.82  43
  -1  -3  12 57480.3 1832.16  37
  -1  -3  13 104744. 2395.05  43
  -1  -3  13 103141. 2328.79  37
  -1  -3  14 2871.05 368.302  43
  -1  -3  14 10732.2 785.791  37
  -1  -3  15 32295.1 840.178  43
  -1  -2 -10 15875.3 1843.38  23
  -1  -2 -10 16778.6 960.067  17
  -1  -2  -9 151306. 2989.08  17
  -1  -2  -9 145098. 2781.25  14
  -1  -2  -9 142204. 5736.43  23
  -1  -2  -8 16954.9 1026.16  17
  -1  -2  -8 17536.4 2071.62   2
  -1  -2  -8 17085.2 967.566  14
  -1  -2  -8 16179.9 1961.89  23
  -1  -2  -7 57470.6 1694.43  14
  -1  -2  -7 57926.4 3625.05   2
  -1  -2  -6 293604. 7645.78   2
  -1  -2  -6 292376. 3579.36  14
  -1  -2  -5 52278.2 2991.19   2
  -1  -2  -5 53650.7 1425.85  14
  -1  -2  -4 369814. 7308.28   2
  -1  -2  -4 363679. 3386.86  14
  -1  -2  -3 177727. 4646.46   2
  -1  -2  -3 173492. 2141.56  14
  -1  -2  -2 4791.84 755.254   2
  -1  -2  -2 5008.39 341.781  14
  -1  -2  -1 220166. 1949.67  17
  -1  -2  -1 214616. 4240.11   2
  -1  -2   0 201588. 3529.30   2
  -1  -2   1 6795.52 602.004   2
  -1  -2   2 11535.8 748.676   2
  -1  -2   2 11957.2 502.143   9
  -1  -2   3 188311. 2886.63   7
  -1  -2   3 194106. 2741.55   9
  -1  -2   3 190179. 2872.05   4
  -1  -2   4 39530.4 1514.53   7
  -1  -2   4 38244.5 1518.45   9
  -1  -2   4 38671.1 1389.03   4
  -1  -2   5 485875. 6076.01   7
  -1  -2   5 485168. 6009.76  26
  -1  -2   5 476647. 5522.73   4
  -1  -2   5 489878. 6371.32   9
  -1  -2   6 25261.3 1451.80   4
  -1  -2   6 25756.1 1590.44   7
  -1  -2   6 26178.9 1692.85   9
  -1  -2   7 98710.9 3494.81   7
  -1  -2   7 95455.7 3208.17   4
  -1  -2   7 97316.8 3655.11   9
  -1  -2   8 228592. 5897.34   7
  -1  -2   8 224361. 6160.68   9
  -1  -2   9 65624.1 1836.84  36
  -1  -2   9 66036.7 3504.39   7
  -1  -2   9 66227.6 1822.50  37
  -1  -2   9 69501.1 1805.60  43
  -1  -2  10 9838.24 1492.81   7
  -1  -2  10 7813.58 698.876  37
  -1  -2  10 9151.57 727.851  43
  -1  -2  11 34230.5 1480.05  37
  -1  -2  11 35737.4 1486.07  43
  -1  -2  12 1579.67 398.238  37
  -1  -2  12 472.193 236.375  43
  -1  -2  13 93583.2 2166.08  43
  -1  -2  13 95020.7 2204.57  37
  -1  -2  14 94109.7 1819.47  37
  -1  -2  14 84971.7 1696.73  43
  -1  -1 -11 89711.4 4124.33  23
  -1  -1 -10 29021.8 1301.41  17
  -1  -1 -10 29813.0 1227.49  14
  -1  -1 -10 26488.3 2433.60  23
  -1  -1  -9 80859.5 2207.99  17
  -1  -1  -9 79147.4 2045.83  14
  -1  -1  -9 79960.4 4286.88  23
  -1  -1  -9 76159.9 4233.40   2
  -1  -1  -8 39586.9 2978.94   2
  -1  -1  -8 42870.3 1468.47  14
  -1  -1  -7 22291.4 2121.45   2
  -1  -1  -7 21167.8 978.042  14
  -1  -1  -6 167281. 5366.68   2
  -1  -1  -6 164055. 2514.61  14
  -1  -1  -5 492021. 8461.80   2
  -1  -1  -5 480072. 3912.64  14
  -1  -1  -4 9626.68 1117.63   2
  -1  -1  -4 8369.10 484.718  14
  -1  -1  -3 323351. 5689.75   2
  -1  -1  -3 320539. 2592.19  14
  -1  -1  -2 243356. 2001.24  14
  -1  -1  -2 239312. 4349.50   2
  -1  -1  -1 6939.87 665.837   2
  -1  -1   0 538126. 4716.53   2
  -1  -1   1 62033.0 1514.20   2
  -1  -1   2 146611. 2411.62   4
  -1  -1   2 151947. 2101.87   9
  -1  -1   3 354010. 4182.54   9
  -1  -1   3 346278. 4023.34   4
  -1  -1   4 18517.0 1053.25   7
  -1  -1   4 19096.5 1182.13   9
  -1  -1   4 17840.1 1065.08   4
  -1  -1   5 280102. 4743.72   7
  -1  -1   5 277905. 4761.49   4
  -1  -1   5 276563. 3725.00   3
  -1  -1   5 284835. 5265.61   9
  -1  -1   6 128449. 3678.58   7
  -1  -1   6 125700. 3677.70   4
  -1  -1   6 127704. 4018.21   9
  -1  -1   7 37451.1 2244.12   7
  -1  -1   7 38253.0 2265.72   4
  -1  -1   8 8313.58 1226.56   7
  -1  -1   9 90338.3 2261.92  37
  -1  -1   9 94758.5 4324.72   7
  -1  -1   9 91332.0 2198.81  36
  -1  -1   9 92395.0 2171.88  43
  -1  -1  10 26499.4 2429.23   7
  -1  -1  10 29794.1 1328.09  43
  -1  -1  10 28862.6 1353.95  37
  -1  -1  11 15789.0 1028.74  37
  -1  -1  11 15692.8 995.340  43
  -1  -1  12 52971.9 1739.89  43
  -1  -1  12 54773.5 1790.10  37
  -1  -1  13 1548.16 300.278  43
  -1  -1  13 5415.51 666.608  37
  -1  -1  14 63371.2 1262.32  43
  -1   0 -11 21726.9 1090.55  17
  -1   0 -11 20232.1 2074.23  23
  -1   0 -10 153294. 3021.31  17
  -1   0 -10 155272. 2780.95  14
  -1   0  -9 5800.27 1150.42   2
  -1   0  -9 6010.75 567.259  14
  -1   0  -8 12643.4 1624.99   2
  -1   0  -8 14757.3 824.772  14
  -1   0  -7 120766. 4661.69   2
  -1   0  -7 123176. 2209.42  14
  -1   0  -7 130692. 3878.05  11
  -1   0  -6 8044.37 527.176  14
  -1   0  -6 8875.77 955.861  11
  -1   0  -6 7863.22 1106.25   2
  -1   0  -6 8359.23 854.808  25
  -1   0  -5 130038. 4012.16   2
  -1   0  -5 133831. 1901.39  14
  -1   0  -4 346704. 5800.35   2
  -1   0  -4 347091. 2687.26  14
  -1   0  -3 27538.2 1462.43   2
  -1   0  -3 28731.6 676.157  14
  -1   0  -3 28168.8 1312.08  11
  -1   0  -2 330223. 2405.10   1
  -1   0  -2 313331. 4160.09   2
  -1   0  -1 476420. 3955.99   2
  -1   0   0 97352.2 1530.66   2
  -1   0   1 721315. 3105.80   7
  -1   0   1 708833. 5040.44   4
  -1   0   2 543517. 4087.78   7
  -1   0   2 552397. 5012.22   4
  -1   0   3 111036. 2324.34   7
  -1   0   3 114964. 2626.70   4
  -1   0   4 510017. 6367.31   4
  -1   0   4 524607. 5990.77   7
  -1   0   5 5373.68 740.498   7
  -1   0   5 5864.66 822.481   4
  -1   0   5 5958.84 718.876   3
  -1   0   6 54650.0 2572.06   7
  -1   0   6 53727.9 2714.11   4
  -1   0   7 145623. 4897.06   4
  -1   0   7 143528. 4627.16   7
  -1   0   8 32577.1 2455.31   7
  -1   0   9 19853.5 1107.92  37
  -1   0   9 19226.0 2054.71   7
  -1   0   9 19754.7 1061.45  43
  -1   0  10 126104. 2756.14  43
  -1   0  10 125513. 2828.53  37
  -1   0  11 16459.4 998.255  43
  -1   0  11 16762.8 1031.05  37
  -1   0  12 33528.9 1313.50  43
  -1   0  12 36331.7 1420.11  37
  -1   0  13 43434.1 1224.16  43
  -1   0  13 51818.3 1402.68  37
  -1   1 -12 83713.1 3866.78  23
  -1   1 -11 32990.3 1356.13  17
  -1   1 -10 52486.3 1764.44  17
  -1   1 -10 57150.1 1651.47  14
  -1   1  -9 147419. 5469.69   2
  -1   1  -9 151968. 2636.33  14
  -1   1  -8 61963.0 3390.71   2
  -1   1  -8 65028.7 1629.85  14
  -1   1  -8 63911.6 2902.36  11
  -1   1  -7 49444.7 2780.91   2
  -1   1  -7 51329.7 2468.43  11
  -1   1  -6 195822. 5019.44   2
  -1   1  -6 206235. 4584.64  11
  -1   1  -5 132885. 3648.24   2
  -1   1  -5 142766. 3497.56  11
  -1   1  -4 420164. 5616.06   2
  -1   1  -3 77753.8 2060.02   2
  -1   1  -3 83675.4 1815.02   1
  -1   1  -2 318.493 112.359   2
  -1   1  -1 468130. 2429.97   2
  -1   1   0 329756. 2958.76  11
  -1   1   0 329923. 3307.97   4
  -1   1   1 110792. 2234.49   4
  -1   1   2 62257.3 1962.05   4
  -1   1   3 21995.2 1349.07   4
  -1   1   3 23191.2 1206.08   7
  -1   1   4 278201. 4843.79   7
  -1   1   4 273549. 5400.26   4
  -1   1   5 248315. 5243.65   7
  -1   1   5 244668. 5786.31   4
  -1   1   5 253565. 5358.96   3
  -1   1   6 5524.65 915.805   7
  -1   1   6 5337.30 979.791   4
  -1   1   6 4968.85 768.228   3
  -1   1   7 135597. 4843.08   7
  -1   1   7 144676. 5251.64   4
  -1   1   8 155410. 2929.21  37
  -1   1   8 144925. 5422.67   7
  -1   1   8 148370. 2776.16  43
  -1   1   8 148011. 2734.35  51
  -1   1   9 6126.83 631.233  37
  -1   1   9 5555.21 581.544  51
  -1   1   9 5396.66 580.919  43
  -1   1   9 4918.45 1075.41   7
  -1   1  10 63546.9 1966.06  43
  -1   1  10 65134.1 2015.57  37
  -1   1  11 59075.9 1809.05  43
  -1   1  11 61748.8 1857.55  37
  -1   1  12 97.9763 161.135  43
  -1   1  12 2795.76 476.147  37
  -1   1  13 51079.6 1111.67  43
  -1   2 -12 26636.1 1148.40  16
  -1   2 -12 29051.6 2360.67  23
  -1   2 -11 151220. 2844.25  17
  -1   2 -10 41058.2 1503.28  17
  -1   2  -9 32490.1 1148.21  14
  -1   2  -9 30106.8 2147.25  11
  -1   2  -8 305365. 6964.13   2
  -1   2  -8 319328. 6615.57   1
  -1   2  -8 313572. 6599.53  11
  -1   2  -7 20992.9 1680.34   2
  -1   2  -7 21315.8 1608.54  11
  -1   2  -7 21793.7 1609.70   1
  -1   2  -6 610569. 8010.87   2
  -1   2  -6 636642. 7848.41   1
  -1   2  -5 362703. 5370.56   1
  -1   2  -5 337617. 5160.11   2
  -1   2  -4 16783.6 960.637   2
  -1   2  -4 18186.8 1063.26   1
  -1   2  -3 318601. 2921.80   2
  -1   2  -3 317537. 4102.09   1
  -1   2  -3 311241. 2312.37   4
  -1   2  -2 135073. 1768.52   4
  -1   2  -1 43122.4 1216.92   4
  -1   2   0 94889.6 2149.10   4
  -1   2   1 500909. 5695.24   4
  -1   2   1 484603. 3695.31   6
  -1   2   2 34728.5 1733.79   4
  -1   2   3 214316. 4851.21   4
  -1   2   4 67538.5 2690.87   7
  -1   2   4 67283.3 3084.11   4
  -1   2   5 35728.5 2203.97   7
  -1   2   5 39767.0 2615.76   4
  -1   2   5 37928.4 2302.81   3
  -1   2   6 174839. 5358.38   7
  -1   2   6 174692. 5869.84   4
  -1   2   6 183557. 5169.90   3
  -1   2   7 40931.4 1426.36  37
  -1   2   7 37694.4 2726.74   7
  -1   2   7 39011.2 1386.33  51
  -1   2   7 39331.7 1401.54  43
  -1   2   8 53573.4 1752.75  37
  -1   2   8 49276.9 1677.20  51
  -1   2   8 53206.1 3443.27   7
  -1   2   8 49970.4 1693.58  43
  -1   2   9 74149.2 2111.51  51
  -1   2   9 73036.4 2103.26  43
  -1   2   9 77401.1 2119.65  37
  -1   2  10 530.676 243.221  37
  -1   2  10 466.724 221.611  43
  -1   2  11 37653.7 1332.69  43
  -1   2  11 42096.4 1389.44  37
  -1   2  12 30604.7 978.883  43
  -1   2  12 34915.9 1078.84  37
  -1   3 -10 145215. 2638.33  17
  -1   3 -10 146112. 4999.41  11
  -1   3  -9 25398.2 2052.44   1
  -1   3  -9 23503.6 1967.94  11
  -1   3  -8 170889. 5010.76   1
  -1   3  -7 374620. 6408.22   2
  -1   3  -7 393360. 7051.22   1
  -1   3  -6 80739.8 2933.55   1
  -1   3  -6 76851.9 2523.89   2
  -1   3  -5 406432. 6052.88   1
  -1   3  -5 398436. 4753.00   2
  -1   3  -4 101029. 1092.26  16
  -1   3  -4 103071. 2810.12   1
  -1   3  -4 101105. 1710.32   2
  -1   3  -3 31657.9 823.476   4
  -1   3  -2 43815.3 1290.32   4
  -1   3  -2 45409.2 738.014  12
  -1   3  -1 3626.68 460.270   4
  -1   3  -1 3471.89 434.655   6
  -1   3   0 514114. 6014.34   4
  -1   3   0 485721. 4824.31   6
  -1   3   1 905633. 9199.68   4
  -1   3   1 923769. 6589.27   6
  -1   3   2 288764. 5851.82   4
  -1   3   3 181356. 5158.54   4
  -1   3   4 204790. 5982.74   4
  -1   3   4 202574. 5591.93   3
  -1   3   5 42534.9 2620.56   7
  -1   3   5 44070.1 2981.77   4
  -1   3   5 42350.7 2695.09   3
  -1   3   6 55990.9 3260.56   7
  -1   3   6 60927.9 3211.84   3
  -1   3   7 94933.8 2208.35  37
  -1   3   7 92302.0 2288.31  51
  -1   3   7 92144.6 4443.08   7
  -1   3   7 89226.3 2239.42  43
  -1   3   8 3174.31 463.930  51
  -1   3   8 3610.19 466.230  37
  -1   3   8 3136.43 461.406  43
  -1   3   9 48009.4 1669.65  43
  -1   3   9 48035.3 1706.18  51
  -1   3   9 49561.6 1633.47  37
  -1   3  10 44310.6 1493.74  43
  -1   3  10 44207.2 1423.71  37
  -1   3  11 55.9505 133.761  43
  -1   3  11 2892.63 400.389  37
  -1   3  12 31490.1 777.076  43
  -1   4 -11 78268.2 3812.22  11
  -1   4 -10 14925.6 1684.62  11
  -1   4  -9 242561. 5974.47   6
  -1   4  -9 246548. 6618.47   1
  -1   4  -8 17956.7 1562.43   6
  -1   4  -8 19452.1 1766.76   1
  -1   4  -7 421533. 7641.97   1
  -1   4  -7 421931. 3107.11  16
  -1   4  -6 257421. 2088.59  16
  -1   4  -6 264227. 5610.22   1
  -1   4  -5 8667.51 328.808  16
  -1   4  -5 9272.03 995.255   1
  -1   4  -4 129532. 1478.24  12
  -1   4  -3 196276. 3794.76   6
  -1   4  -3 196916. 2914.62   4
  -1   4  -3 196136. 1741.69  12
  -1   4  -2 30376.9 1446.89   6
  -1   4  -2 30271.5 1410.16   4
  -1   4  -2 33576.8 1673.24  20
  -1   4  -1 82455.5 2436.86  20
  -1   4  -1 79228.9 2545.85   4
  -1   4  -1 79386.9 2319.83   6
  -1   4   0 7794.55 932.648   4
  -1   4   0 15402.6 1040.28   6
  -1   4   1 138991. 4213.91   4
  -1   4   1 139055. 3021.06   6
  -1   4   2 697739. 10399.6   4
  -1   4   3 40296.4 2718.72   4
  -1   4   4 25599.3 2305.15   4
  -1   4   4 24098.5 2132.95   3
  -1   4   5 117456. 4668.79   7
  -1   4   5 118794. 4806.44   3
  -1   4   6 6144.36 537.308  37
  -1   4   6 5821.53 1135.05   7
  -1   4   6 7457.41 665.465  51
  -1   4   6 5508.32 1031.82   3
  -1   4   7 17279.3 1026.32  51
  -1   4   7 19134.5 1065.59  43
  -1   4   7 20295.8 1001.32  37
  -1   4   8 45709.5 1630.78  43
  -1   4   8 44987.5 1658.08  51
  -1   4   8 45828.0 1501.81  37
  -1   4   9 3025.81 411.935  43
  -1   4   9 3090.97 447.553  51
  -1   4   9 3609.91 416.487  37
  -1   4  10 48993.1 1397.70  43
  -1   4  10 48052.0 1263.89  37
  -1   4  11 38152.8 960.756  43
  -1   5 -11 41655.2 2926.64  11
  -1   5 -11 42446.0 1355.28  12
  -1   5 -10 900.489 496.339   1
  -1   5  -9 158012. 5059.00   6
  -1   5  -9 156378. 5491.40   1
  -1   5  -8 279091. 6439.54   6
  -1   5  -8 280341. 6966.88   1
  -1   5  -7 2134.55 594.767   1
  -1   5  -7 2419.74 274.272  12
  -1   5  -7 2741.10 642.792   6
  -1   5  -6 403700. 6908.72   6
  -1   5  -6 394502. 3092.98  12
  -1   5  -5 510610. 7392.48   6
  -1   5  -5 476008. 3220.66  12
  -1   5  -4 29809.2 1741.95   6
  -1   5  -4 27973.0 755.110  12
  -1   5  -3 349847. 5664.25   6
  -1   5  -2 104970. 3123.38  20
  -1   5  -2 105328. 3067.25   6
  -1   5  -2 103059. 3084.79   4
  -1   5  -1 176270. 3760.34  20
  -1   5  -1 166093. 1662.37  18
  -1   5  -1 166364. 3860.45   6
  -1   5  -1 169702. 4374.38   4
  -1   5   0 480860. 8024.85   4
  -1   5   0 479685. 6536.55   6
  -1   5   1 79065.2 3568.29   4
  -1   5   1 80886.6 2601.70   6
  -1   5   2 58741.8 3321.83   4
  -1   5   3 54032.1 3304.19   3
  -1   5   4 15359.5 1806.58   3
  -1   5   5 42503.5 2938.90   7
  -1   5   5 37662.9 1397.72  53
  -1   5   5 37898.2 1335.46  30
  -1   5   5 37666.9 1444.17  51
  -1   5   5 41636.5 2961.98   3
  -1   5   6 97968.4 4583.38   7
  -1   5   6 100831. 4432.56   3
  -1   5   6 99702.7 2445.02  51
  -1   5   7 10582.6 816.589  51
  -1   5   7 10570.7 793.040  43
  -1   5   7 10696.8 680.665  37
  -1   5   8 70410.2 1998.44  51
  -1   5   8 72546.5 1956.23  43
  -1   5   8 72115.7 1660.29  37
  -1   5   9 65615.4 1740.73  51
  -1   5   9 65082.6 1646.39  43
  -1   5   9 60959.8 1338.40  37
  -1   5  10 362.288 130.683  43
  -1   6 -12 7738.40 1322.56  11
  -1   6 -11 42022.8 1318.59  12
  -1   6 -10 55305.7 3248.75   6
  -1   6 -10 59466.1 1537.87  12
  -1   6  -9 348.549 162.237  12
  -1   6  -9 79.1323 258.178   6
  -1   6  -8 167434. 5235.16   6
  -1   6  -8 167638. 2318.49  12
  -1   6  -7 136310. 4525.75   6
  -1   6  -7 136467. 2000.14  12
  -1   6  -6 29726.2 2036.38   6
  -1   6  -6 29632.7 895.119  12
  -1   6  -5 106496. 3714.19   6
  -1   6  -5 100097. 1597.53  12
  -1   6  -4 230962. 5314.00   6
  -1   6  -3 29866.2 1894.71  20
  -1   6  -3 29961.5 1887.23   6
  -1   6  -2 408248. 6466.19  20
  -1   6  -2 394044. 3008.32  18
  -1   6  -2 405022. 6815.46   6
  -1   6  -1 66940.4 2414.14  20
  -1   6  -1 69839.6 1200.81  18
  -1   6  -1 68888.1 2796.17   6
  -1   6   0 128980. 3750.99   6
  -1   6   1 187608. 6125.53   3
  -1   6   2 4358.50 1003.82   3
  -1   6   3 13028.7 794.141  54
  -1   6   3 13073.4 795.212  53
  -1   6   3 15406.7 1870.81   3
  -1   6   4 39292.4 1443.37  53
  -1   6   4 38911.2 2992.89   3
  -1   6   4 37138.9 1277.66  30
  -1   6   5 5865.40 582.804  53
  -1   6   5 4272.84 954.914   3
  -1   6   5 5779.55 605.802  51
  -1   6   6 48562.3 1709.13  51
  -1   6   7 124297. 2550.60  43
  -1   6   7 125747. 2663.62  51
  -1   6   8 11929.1 727.682  43
  -1   6   8 13085.5 805.667  51
  -1   6   9 18255.5 736.012  43
  -1   7 -12 244286. 7365.50  20
  -1   7 -11 62687.2 1592.31  12
  -1   7 -10 37587.5 2802.95   6
  -1   7 -10 37400.5 1214.73  12
  -1   7  -9 165502. 5782.54   6
  -1   7  -9 167677. 2511.08  12
  -1   7  -8 12581.7 1548.78   6
  -1   7  -8 11591.4 643.364  12
  -1   7  -7 150487. 5106.24   6
  -1   7  -7 146218. 2176.73  12
  -1   7  -6 122086. 4462.37   6
  -1   7  -5 21375.6 1835.75   6
  -1   7  -4 203170. 2595.43  18
  -1   7  -4 206599. 5553.67   6
  -1   7  -3 133296. 4116.39  20
  -1   7  -3 125731. 1943.88  18
  -1   7  -3 129464. 4336.01   6
  -1   7  -2 66388.6 2686.85  20
  -1   7  -2 62913.7 1329.44  18
  -1   7  -2 62944.1 2977.52   6
  -1   7  -1 230308. 5559.24   6
  -1   7   0 63873.7 3703.35   3
  -1   7   0 66149.7 2879.51   6
  -1   7   1 82640.4 4350.81   3
  -1   7   2 106262. 2296.03  53
  -1   7   2 107042. 5072.52   3
  -1   7   2 102229. 2218.74  54
  -1   7   3 9558.53 728.728  53
  -1   7   3 9585.06 622.635  30
  -1   7   3 9975.60 1568.45   3
  -1   7   3 10245.8 753.192  54
  -1   7   4 55063.7 1743.27  53
  -1   7   5 66737.7 1886.98  53
  -1   7   5 69181.7 2009.17  51
  -1   7   6 2449.92 418.194  51
  -1   7   7 40215.4 1377.47  51
  -1   7   7 39542.4 1302.91  43
  -1   7   8 25232.5 879.639  43
  -1   7   8 28616.8 993.850  51
  -1   8 -13 11720.3 1556.18  20
  -1   8 -12 54809.6 3706.26  20
  -1   8 -10 51558.4 3423.12   6
  -1   8 -10 51739.9 1447.62  12
  -1   8  -9 119743. 5171.48   6
  -1   8  -8 104228. 4685.69   6
  -1   8  -7 3693.54 902.485   6
  -1   8  -6 208266. 6303.05   6
  -1   8  -5 66604.4 1650.94  18
  -1   8  -5 67720.1 3534.71   6
  -1   8  -5 65985.1 3145.42   3
  -1   8  -4 22878.8 1881.23  20
  -1   8  -4 21338.4 911.379  18
  -1   8  -4 21116.5 1929.53   6
  -1   8  -4 22751.4 1985.56   3
  -1   8  -3 259887. 2999.11  18
  -1   8  -3 248655. 6882.96   3
  -1   8  -3 261572. 5866.98  20
  -1   8  -3 254808. 6561.95   6
  -1   8  -2 69354.8 3343.09   6
  -1   8  -2 70682.8 3844.90   3
  -1   8  -1 5042.17 900.426   6
  -1   8  -1 5725.68 1171.33   3
  -1   8   0 187390. 2828.25  54
  -1   8   0 194052. 3064.74  53
  -1   8   0 188486. 6704.50   3
  -1   8   1 40686.5 3202.29   3
  -1   8   1 42224.2 1490.73  53
  -1   8   1 41518.7 1420.84  54
  -1   8   2 11864.8 819.065  53
  -1   8   2 11890.4 812.409  54
  -1   8   2 11070.2 1667.47   3
  -1   8   3 75044.4 2036.48  53
  -1   8   4 465.266 201.979  53
  -1   8   4 319.259 199.142  51
  -1   8   5 50611.5 1636.66  51
  -1   8   6 47153.4 1459.51  51
  -1   8   6 45537.0 1385.37  43
  -1   8   7 683.865 204.101  51
  -1   8   7 720.415 182.964  43
  -1   8   8 11752.4 430.098  43
  -1   9 -13 65287.6 3745.96  20
  -1   9 -12 1600.64 726.769  20
  -1   9 -12 2531.58 431.530  18
  -1   9 -11 98766.0 5255.98  20
  -1   9 -11 96152.0 2539.55  18
  -1   9 -10 145786. 3088.74  18
  -1   9  -9 2487.97 445.367  18
  -1   9  -9 3092.54 873.694   6
  -1   9  -8 112269. 2561.22  18
  -1   9  -8 102098. 4917.27   6
  -1   9  -7 87677.3 2171.29  18
  -1   9  -7 84438.2 4411.50   6
  -1   9  -6 2896.95 830.153  20
  -1   9  -6 5760.04 551.077  18
  -1   9  -6 3391.15 897.773   6
  -1   9  -5 120715. 4664.38  20
  -1   9  -5 112612. 2288.55  18
  -1   9  -5 115586. 4910.04   6
  -1   9  -5 118704. 2326.95  53
  -1   9  -4 90270.8 2048.78  53
  -1   9  -4 91144.8 3760.88  20
  -1   9  -4 87718.4 1938.88  18
  -1   9  -4 87633.3 4185.31   6
  -1   9  -4 90958.3 4200.35   3
  -1   9  -3 27645.9 2283.79   6
  -1   9  -3 28494.2 1176.36  53
  -1   9  -3 25459.0 2329.38   3
  -1   9  -2 181772. 6466.19   3
  -1   9  -2 175733. 5599.29   6
  -1   9  -2 167010. 2660.48  46
  -1   9  -2 179681. 3001.45  53
  -1   9  -1 68783.7 1905.39  53
  -1   9  -1 70912.5 4157.31   3
  -1   9  -1 66333.3 1710.93  54
  -1   9  -1 66280.3 1675.24  46
  -1   9   0 46065.0 1501.31  54
  -1   9   0 49094.7 3531.30   3
  -1   9   0 46546.1 1594.06  53
  -1   9   1 122634. 2612.77  53
  -1   9   1 119403. 2512.97  54
  -1   9   2 13782.3 869.328  54
  -1   9   2 13644.0 879.472  53
  -1   9   3 59107.9 1760.88  53
  -1   9   4 62304.0 1686.23  53
  -1   9   4 65815.3 1805.77  51
  -1   9   5 1487.02 305.664  51
  -1   9   5 1086.21 258.746  43
  -1   9   6 35184.2 1045.07  51
  -1   9   6 34391.0 986.065  43
  -1  10 -12 111563. 5293.05  20
  -1  10 -12 107140. 2606.20  18
  -1  10 -11 4839.48 1185.60  20
  -1  10 -10 107177. 5430.48  20
  -1  10  -9 67142.5 4257.45  20
  -1  10  -9 59645.7 1964.25  18
  -1  10  -8 2594.19 889.013  20
  -1  10  -8 2677.04 433.672  18
  -1  10  -8 2690.78 844.313   6
  -1  10  -7 89547.7 4559.02  20
  -1  10  -7 88114.9 2252.69  18
  -1  10  -7 88980.8 4692.26   6
  -1  10  -7 94456.9 2222.56  53
  -1  10  -6 74206.6 3864.67  20
  -1  10  -6 71335.3 1952.03  18
  -1  10  -6 72319.6 4169.84   6
  -1  10  -6 73538.6 1969.96  53
  -1  10  -5 1041.98 272.223  53
  -1  10  -5 905.152 506.384  20
  -1  10  -5 794.135 468.143   6
  -1  10  -4 40991.8 2961.34   6
  -1  10  -4 41254.5 2897.05   3
  -1  10  -4 45567.5 1575.79  53
  -1  10  -3 9847.42 1532.77   3
  -1  10  -3 10615.0 1469.72   6
  -1  10  -3 13603.0 841.631  46
  -1  10  -3 11876.9 815.465  53
  -1  10  -2 28228.9 2593.84   3
  -1  10  -2 26028.7 1079.06  54
  -1  10  -2 25744.7 1096.13  46
  -1  10  -2 27702.9 1243.96  53
  -1  10  -1 99030.6 2361.54  53
  -1  10  -1 95003.0 2142.18  54
  -1  10  -1 97105.7 2059.99  46
  -1  10   0 13964.1 849.681  54
  -1  10   0 14795.8 923.037  53
  -1  10   1 27636.3 1239.21  53
  -1  10   1 26606.7 1172.41  54
  -1  10   2 60390.9 1752.63  53
  -1  10   3 1030.76 269.940  51
  -1  10   3 920.347 250.730  53
  -1  10   4 24673.4 959.464  51
  -1  10   5 31383.9 921.227  51
  -1  10   5 31975.4 904.704  43
  -1  11 -12 56223.6 3601.68  20
  -1  11 -11 141859. 5973.48  20
  -1  11 -11 130864. 2879.94  18
  -1  11 -10 2938.00 395.521  53
  -1  11 -10 2628.74 939.366  20
  -1  11 -10 3100.04 473.479  18
  -1  11  -9 67984.8 4159.82  20
  -1  11  -9 65416.4 2056.80  18
  -1  11  -9 70854.0 1943.47  53
  -1  11  -8 112681. 5162.94  20
  -1  11  -8 104581. 2534.66  18
  -1  11  -8 110072. 2474.28  53
  -1  11  -7 7966.95 1334.26  20
  -1  11  -7 10094.9 797.778  18
  -1  11  -7 8394.52 695.878  53
  -1  11  -6 153973. 5323.39  20
  -1  11  -6 151339. 2916.50  53
  -1  11  -5 61815.1 1876.98  53
  -1  11  -4 45816.2 1627.63  53
  -1  11  -4 49588.7 1593.23  46
  -1  11  -3 108161. 2475.55  53
  -1  11  -3 103722. 2227.23  46
  -1  11  -2 18138.1 1028.43  53
  -1  11  -2 18332.8 912.043  54
  -1  11  -2 17093.1 877.996  46
  -1  11  -1 22014.5 1121.26  53
  -1  11  -1 21779.3 1014.82  54
  -1  11   0 51214.7 1538.22  54
  -1  11   0 53858.7 1689.87  53
  -1  11   1 13620.3 816.229  53
  -1  11   2 7878.23 560.151  51
  -1  11   2 7519.28 565.267  53
  -1  11   3 19289.0 776.035  51
  -1  11   4 951.315 168.917  51
  -1  11   4 928.441 165.618  43
  -1  12 -11 15418.8 1856.51  20
  -1  12 -11 17954.9 863.553  53
  -1  12 -10 28290.8 2520.17  20
  -1  12 -10 30580.2 1205.73  53
  -1  12  -9 76.2773 440.489  20
  -1  12  -9 815.232 265.551  53
  -1  12  -8 79701.9 4027.13  20
  -1  12  -8 87849.7 2194.24  53
  -1  12  -7 59137.8 3239.59  20
  -1  12  -7 59297.3 1814.57  53
  -1  12  -6 16850.4 984.075  53
  -1  12  -6 25433.2 1226.97  46
  -1  12  -5 195498. 3306.91  53
  -1  12  -5 186047. 3061.90  46
  -1  12  -4 34555.1 1412.42  53
  -1  12  -4 34451.2 1285.98  46
  -1  12  -3 23785.7 1147.00  53
  -1  12  -3 21387.7 954.098  46
  -1  12  -2 52572.7 1440.42  54
  -1  12  -2 53306.9 1685.70  53
  -1  12  -1 591.985 190.103  54
  -1  12  -1 807.749 264.816  53
  -1  12   0 25831.6 1059.35  53
  -1  12   1 35509.3 1106.77  53
  -1  12   1 34903.8 1032.10  51
  -1  12   2 1847.86 224.199  51
  -1  12   3 7161.39 353.151  43
  -1  13 -14 6634.28 406.491  46
  -1  13 -11 1712.49 275.770  53
  -1  13 -10 27990.4 1074.31  53
  -1  13  -9 39582.1 1346.63  53
  -1  13  -8 15004.9 1027.91  46
  -1  13  -8 4600.02 493.598  53
  -1  13  -7 74911.2 1947.07  53
  -1  13  -7 78688.6 1980.24  46
  -1  13  -6 68214.4 1874.27  53
  -1  13  -6 71457.5 1806.67  46
  -1  13  -5 2307.00 405.992  46
  -1  13  -5 1920.10 355.760  53
  -1  13  -4 40915.6 1419.80  53
  -1  13  -4 38060.4 1203.79  46
  -1  13  -3 14650.7 841.957  53
  -1  13  -2 13589.9 769.992  53
  -1  13  -1 39352.1 1175.59  53
  -1  13  -1 36674.8 944.937  51
  -1  13   0 1096.93 205.008  53
  -1  13   0 990.538 156.410  51
  -1  14 -13 4373.84 372.375  46
  -1  14 -12 45846.6 1189.45  46
  -1  14 -11 38635.6 983.444  53
  -1  14 -11 50336.5 1339.04  46
  -1  14 -10 411.416 155.203  53
  -1  14 -10 7144.48 661.155  46
  -1  14  -9 60123.9 1571.86  46
  -1  14  -9 52671.9 1383.93  53
  -1  14  -8 16234.1 806.189  53
  -1  14  -8 20985.5 956.401  46
  -1  14  -7 3924.51 430.388  53
  -1  14  -7 5787.11 527.366  46
  -1  14  -6 41560.7 1294.47  53
  -1  14  -6 37860.9 1138.60  46
  -1  14  -5 15465.9 785.338  53
  -1  14  -5 13481.5 628.956  46
  -1  14  -4 2871.80 349.078  53
  -1  14  -3 24829.7 893.661  53
  -1  14  -2 6017.61 411.783  53
  -1  14  -1 14496.6 534.603  53
  -1  15 -11 23799.4 744.395  46
  -1  15 -10 11382.4 473.140  53
  -1  15 -10 13090.9 593.951  46
  -1  15  -9 10098.9 498.515  53
  -1  15  -9 9947.65 528.786  46
  -1  15  -8 42109.2 1053.16  53
  -1  15  -8 39617.5 1001.89  46
  -1  15  -7 26838.0 856.636  53
  -1  15  -7 24942.8 739.086  46
  -1  15  -6 1304.88 216.460  53
  -1  15  -5 24594.5 779.000  53
  -1  15  -4 5371.70 344.434  53
   0 -15   4 21344.3 595.411  28
   0 -15   4 19047.3 540.871  44
   0 -15   5 723.176 155.425  28
   0 -15   5 533.589 115.449  44
   0 -15   6 27748.2 846.491  28
   0 -15   7 11401.9 574.169  28
   0 -15   8 3618.50 342.823  28
   0 -15   9 32116.7 954.693  28
   0 -15  10 7351.18 449.600  28
   0 -14   1 20302.0 630.686  44
   0 -14   2 13716.9 512.600  28
   0 -14   2 13698.2 588.224  44
   0 -14   3 6975.35 459.458  44
   0 -14   4 24203.3 879.413  44
   0 -14   5 8859.71 547.573  44
   0 -14   6 6200.18 525.987  28
   0 -14   6 5519.56 433.985  44
   0 -14   7 41629.8 1338.47  28
   0 -14   7 37017.9 1055.31  44
   0 -14   8 17820.0 886.313  28
   0 -14   9 5156.90 489.033  28
   0 -14  10 23335.3 953.767  28
   0 -14  11 328.136 212.241  40
   0 -14  12 39529.5 1073.32  40
   0 -14  13 27266.4 830.238  40
   0 -13  -1 21936.8 690.766  44
   0 -13   1 223.122 122.976  29
   0 -13   2 51468.2 1332.65  29
   0 -13   3 27150.4 1059.67  29
   0 -13   3 25421.1 1048.50  44
   0 -13   4 3158.09 397.842  44
   0 -13   4 3328.22 417.875  29
   0 -13   5 58983.8 1716.05  29
   0 -13   5 54746.4 1564.11  44
   0 -13   6 12859.9 762.298  44
   0 -13   6 13452.9 741.479  50
   0 -13   7 32795.0 1344.13  28
   0 -13   7 29792.4 1113.24  44
   0 -13   8 79831.9 2080.92  28
   0 -13   9 9896.08 728.132  28
   0 -13   9 9461.82 646.937  40
   0 -13  10 15815.5 886.985  28
   0 -13  10 14746.8 851.423  40
   0 -13  11 25159.5 1046.25  28
   0 -13  11 25001.8 1107.83  40
   0 -13  12-731.048 409.187  40
   0 -13  13 13942.9 781.677  40
   0 -13  14 25978.0 916.359  40
   0 -12  -3 12608.9 458.494  45
   0 -12  -2 25931.1 804.571  45
   0 -12  -1 202.642 144.095  45
   0 -12   0 17610.2 761.135  29
   0 -12   0 17969.2 804.014  45
   0 -12   1 32788.8 1153.55  29
   0 -12   1 31481.7 1093.13  45
   0 -12   1 31739.9 2229.02  22
   0 -12   2 5041.89 503.938  29
   0 -12   2 4267.58 411.632  45
   0 -12   2 4143.40 849.484  22
   0 -12   3 56855.4 1706.39  29
   0 -12   3 52535.4 2986.36  22
   0 -12   4 54782.2 1731.36  29
   0 -12   4 50256.4 2878.92  22
   0 -12   5 19328.6 1063.17  29
   0 -12   5 17102.0 947.671  44
   0 -12   6 134938. 2638.29  50
   0 -12   6 141482. 2872.81  29
   0 -12   6 132435. 2588.34  44
   0 -12   7 27199.0 1260.40  50
   0 -12   7 26181.0 1115.73  44
   0 -12   8 49376.4 1737.94  50
   0 -12   8 53554.2 1770.09  28
   0 -12   8 52273.1 1636.18  40
   0 -12   9 75074.5 2068.35  28
   0 -12   9 74669.8 2087.19  40
   0 -12  10 1456.37 313.524  28
   0 -12  10 525.207 260.321  40
   0 -12  11 34997.9 1294.46  28
   0 -12  11 37077.3 1535.04  40
   0 -12  12 13689.0 934.593  40
   0 -12  13 1416.77 377.325  40
   0 -12  14 17482.1 897.299  40
   0 -12  15 36953.1 1048.96  40
   0 -11  -4 39388.8 969.756  45
   0 -11  -3 3583.87 365.159  45
   0 -11  -2 30534.3 1108.02  45
   0 -11  -1 33059.3 1219.41  45
   0 -11  -1 33026.6 1089.57  29
   0 -11  -1 35900.7 2478.94  22
   0 -11   0 1441.02 274.280  29
   0 -11   0 1633.80 304.255  45
   0 -11   0 1513.42 634.488  22
   0 -11   1 85618.8 2038.66  29
   0 -11   1 81618.1 1965.67  45
   0 -11   1 81812.1 3976.25  22
   0 -11   2 23915.3 1129.98  29
   0 -11   2 24165.2 1045.95  45
   0 -11   2 23203.7 2149.72  22
   0 -11   3 2348.41 381.332  29
   0 -11   3 2466.55 730.966  22
   0 -11   4 89260.7 2253.58  29
   0 -11   4 84725.7 3937.91  22
   0 -11   5 60614.8 1799.27  44
   0 -11   5 61799.3 1890.38  29
   0 -11   5 61235.4 1770.86  50
   0 -11   5 59880.0 3197.30  22
   0 -11   6 9685.56 758.625  29
   0 -11   6 8699.19 714.862  50
   0 -11   6 9108.82 685.374  44
   0 -11   7 92840.7 2394.36  50
   0 -11   7 93687.7 2093.03  44
   0 -11   7 95960.1 2368.88  29
   0 -11   7 94508.3 2225.66  40
   0 -11   8 12826.0 869.731  28
   0 -11   8 13061.7 906.668  40
   0 -11   8 13435.9 952.585  50
   0 -11   9 56613.2 1963.42  50
   0 -11   9 57322.7 1786.59  28
   0 -11   9 57749.5 1973.76  40
   0 -11  10 89041.2 2172.75  28
   0 -11  10 91566.3 2575.91  40
   0 -11  11 700.536 325.096  40
   0 -11  11 1473.42 278.794  28
   0 -11  12 48864.2 1885.10  40
   0 -11  13 59522.8 1940.54  40
   0 -11  14 1627.07 378.273  40
   0 -11  15 41078.1 1209.33  40
   0 -10  -6 26372.1 668.522  45
   0 -10  -5 8067.61 494.728  45
   0 -10  -4 17125.1 828.201  45
   0 -10  -4 17238.0 839.434  48
   0 -10  -3 43775.5 1478.26  48
   0 -10  -3 42835.3 1419.40  45
   0 -10  -3 43136.8 2705.75  22
   0 -10  -2 1503.01 322.031  45
   0 -10  -2 1165.76 305.530  48
   0 -10  -2 1275.86 235.258  29
   0 -10  -2 832.208 470.272  22
   0 -10  -1 135766. 2440.02  29
   0 -10  -1 133060. 2654.68  45
   0 -10  -1 135482. 2816.09  48
   0 -10  -1 133973. 5222.37  22
   0 -10   0 90471.3 2102.42  29
   0 -10   0 95112.1 2368.44  48
   0 -10   0 90300.9 2179.29  45
   0 -10   0 93095.6 4393.58  22
   0 -10   1 20493.7 1026.77  29
   0 -10   1 20317.6 1093.09  48
   0 -10   1 21123.7 1028.71  45
   0 -10   1 21338.5 2100.19  22
   0 -10   2 109308. 2396.79  29
   0 -10   2 107825. 2213.18  45
   0 -10   2 111404. 4680.56  22
   0 -10   3 41025.0 1484.90  29
   0 -10   3 41805.1 2816.48  22
   0 -10   4 1524.66 291.874  50
   0 -10   4 1383.92 310.365  29
   0 -10   4 861.526 447.332  22
   0 -10   5 35440.2 1349.46  50
   0 -10   5 37494.3 1426.16  29
   0 -10   5 34041.5 2458.48   9
   0 -10   5 36674.6 2464.32  22
   0 -10   6 708.880 233.605  29
   0 -10   6 1166.54 454.804  22
   0 -10   6 828.716 258.756  50
   0 -10   6 1057.21 242.485  44
   0 -10   6 733.842 416.059   9
   0 -10   7 43253.7 1621.86  50
   0 -10   7 43121.0 1520.83  29
   0 -10   7 41988.9 1328.03  44
   0 -10   7 43497.6 2855.35   9
   0 -10   7 44670.4 1615.95  40
   0 -10   8 111507. 2434.13  28
   0 -10   8 108923. 4578.21   9
   0 -10   8 114250. 2749.18  40
   0 -10   8 117974. 2745.93  50
   0 -10   9 20971.1 1192.55  50
   0 -10   9 18373.9 985.874  28
   0 -10   9 18329.2 1173.02  40
   0 -10  10 51264.1 1614.01  28
   0 -10  10 52339.4 2025.95  40
   0 -10  11 50835.9 2031.14  40
   0 -10  12 1112.56 372.157  40
   0 -10  13 48776.8 1846.93  40
   0 -10  14 35922.9 1421.45  40
   0 -10  15 15283.9 783.900  40
   0  -9  -7 8465.96 410.011  45
   0  -9  -6 13322.4 659.545  45
   0  -9  -6 12646.3 626.187  48
   0  -9  -5 70120.9 1747.30  45
   0  -9  -5 69244.7 1706.25  48
   0  -9  -4 11241.5 776.217  48
   0  -9  -3 56443.2 1795.22  48
   0  -9  -2 75128.9 2100.29  48
   0  -9  -2 75270.3 1789.12  29
   0  -9  -1 15878.7 965.719  48
   0  -9  -1 15443.7 848.368  29
   0  -9  -1 17171.9 1815.97   2
   0  -9   0 259342. 3844.06  48
   0  -9   0 246029. 3426.03  29
   0  -9   1 83013.6 2129.38  48
   0  -9   1 78653.9 1935.91  29
   0  -9   1 83730.8 4058.12  22
   0  -9   2 6774.15 596.629  48
   0  -9   2 6619.65 565.519  29
   0  -9   2 7205.30 1176.73  22
   0  -9   3 88141.5 2031.28  29
   0  -9   3 92683.2 3977.66  22
   0  -9   4 38671.4 2494.90  22
   0  -9   5 90764.6 3625.89  22
   0  -9   6 184500. 2902.14  29
   0  -9   6 182944. 5488.53   9
   0  -9   6 194709. 5059.78  22
   0  -9   7 38475.8 1463.71  50
   0  -9   7 35150.8 1266.19  29
   0  -9   7 37388.1 1481.61  40
   0  -9   7 34716.0 2470.22   9
   0  -9   8 80254.1 1907.78  28
   0  -9   8 80997.7 3852.38   9
   0  -9   8 77873.1 2149.84  50
   0  -9   8 78682.4 2294.13  40
   0  -9   9 157938. 3149.91  50
   0  -9   9 151663. 2648.39  28
   0  -9   9 156590. 5560.56   9
   0  -9   9 154138. 3411.82  40
   0  -9  10 8595.43 635.950  28
   0  -9  10 8739.65 1359.20   9
   0  -9  10 8331.02 834.688  40
   0  -9  11 22016.7 1365.72  40
   0  -9  12 41347.7 1467.82  36
   0  -9  12 46603.7 1933.91  40
   0  -9  13 1842.45 348.504  36
   0  -9  13 1665.54 401.740  40
   0  -9  14 47712.2 1364.74  36
   0  -9  14 49762.8 1667.61  40
   0  -9  15 21398.0 810.621  36
   0  -9  15 8325.64 581.923  40
   0  -8  -8 3938.72 288.421  45
   0  -8  -7 38837.7 1091.82  48
   0  -8  -7 40466.9 1157.92  45
   0  -8  -6 11769.6 731.742  48
   0  -8  -5 30865.3 1277.94  48
   0  -8  -4 117942. 2592.32  48
   0  -8  -3 1773.95 372.131  48
   0  -8  -2 93901.5 2294.74  48
   0  -8  -2 88088.0 1932.54  29
   0  -8  -2 93167.1 4404.95   2
   0  -8  -1 65713.3 1674.91  29
   0  -8  -1 67387.2 1899.06  48
   0  -8  -1 64501.8 3529.33   2
   0  -8   0 68490.7 1848.25  48
   0  -8   0 63442.4 3337.90   2
   0  -8   1 132544. 4548.70   2
   0  -8   2 54958.2 2750.35   2
   0  -8   2 53027.0 2904.23  22
   0  -8   3 7413.22 953.687   2
   0  -8   3 7324.33 1071.19  22
   0  -8   4 183045. 4904.20  22
   0  -8   5 3292.14 639.009  22
   0  -8   6 189322. 5258.10   9
   0  -8   6 194331. 4619.26  22
   0  -8   7 379897. 7683.07   9
   0  -8   8 14466.2 979.869  40
   0  -8   8 12928.8 818.687  50
   0  -8   9 118788. 2556.72  50
   0  -8   9 114682. 2142.61  28
   0  -8   9 119602. 2411.47  43
   0  -8   9 124361. 4837.73   9
   0  -8   9 112308. 2871.40  40
   0  -8  10 55630.1 1718.04  36
   0  -8  10 57620.1 1539.49  28
   0  -8  10 62003.0 1819.21  43
   0  -8  10 60493.7 3541.49   9
   0  -8  10 59478.8 2186.13  40
   0  -8  11 474.876 212.399  36
   0  -8  11 500.820 274.334  40
   0  -8  12 58882.2 1881.33  36
   0  -8  12 66275.7 1979.55  43
   0  -8  12 62681.3 2225.77  40
   0  -8  13 57006.6 1784.11  36
   0  -8  13 62595.2 2085.33  40
   0  -8  14 19006.1 972.711  36
   0  -8  14 11390.7 787.199  40
   0  -8  15 44759.0 1273.42  36
   0  -7  -9 31618.3 755.641  45
   0  -7  -8 6772.34 457.294  48
   0  -7  -7 15590.4 819.864  48
   0  -7  -6 64794.5 1825.97  48
   0  -7  -5 1967.39 311.324  17
   0  -7  -5 3814.58 515.050  48
   0  -7  -4 85868.5 1930.89  17
   0  -7  -4 81475.1 4332.20   2
   0  -7  -4 88521.4 2243.99  48
   0  -7  -3 122368. 2193.61  17
   0  -7  -3 115861. 5043.04   2
   0  -7  -3 115565. 2507.67  48
   0  -7  -2 279.846 288.907   2
   0  -7  -2 210.242 130.774  17
   0  -7  -1 253810. 6716.02   2
   0  -7   0 148450. 4813.79   2
   0  -7   1 3102.31 676.551   2
   0  -7   2 198136. 4877.09   2
   0  -7   3 196113. 4482.04   2
   0  -7   3 190624. 4743.52  22
   0  -7   4 61932.6 2310.67   2
   0  -7   4 56804.0 2413.27  22
   0  -7   5 216686. 5084.12   9
   0  -7   5 212602. 4458.78  22
   0  -7   6 5983.17 891.098   9
   0  -7   6 5430.58 711.620  22
   0  -7   7 109139. 3914.01   9
   0  -7   8 118571. 4331.99   9
   0  -7   9 1123.35 253.861  50
   0  -7   9 1137.76 256.695  43
   0  -7   9 1069.54 561.394   9
   0  -7   9 703.084 268.421  40
   0  -7  10 27602.9 1250.61  36
   0  -7  10 27505.2 1181.71  43
   0  -7  10 29341.8 2453.33   9
   0  -7  10 29057.1 1496.40  40
   0  -7  11 47251.7 1727.29  36
   0  -7  11 51618.4 1692.21  43
   0  -7  11 51272.5 1997.83  40
   0  -7  12-87.5132 273.654  36
   0  -7  12 447.257 244.973  43
   0  -7  12-98.7135 277.270  40
   0  -7  13 133050. 2808.68  36
   0  -7  13 139578. 2785.81  43
   0  -7  13 139744. 2987.90  40
   0  -7  14 38219.5 1394.90  43
   0  -7  14 39650.1 1331.48  40
   0  -7  15 27542.2 1054.22  36
   0  -6  -9 17903.5 699.967  48
   0  -6  -8 36058.1 1212.14  48
   0  -6  -7 1478.06 343.880  48
   0  -6  -7-36.0633 150.601  17
   0  -6  -6 116712. 2432.76  17
   0  -6  -5 81318.5 2015.14  17
   0  -6  -5 80346.2 2060.46  14
   0  -6  -5 80345.1 3759.35  10
   0  -6  -5 80748.8 4418.67   2
   0  -6  -4 1477.51 601.952   2
   0  -6  -4 1848.14 347.003  14
   0  -6  -4 1549.45 518.890  10
   0  -6  -3 126364. 2346.03  14
   0  -6  -3 126288. 5028.07   2
   0  -6  -3 124235. 4218.34  10
   0  -6  -2 106702. 3554.81  10
   0  -6  -2 105475. 4300.36   2
   0  -6  -2 105432. 1997.06  14
   0  -6  -1 15561.7 1560.92   2
   0  -6  -1 15008.5 1203.22  10
   0  -6   0 149931. 1751.68  17
   0  -6   0 151756. 4527.68   2
   0  -6   1 236293. 5208.78   2
   0  -6   2 52628.0 2273.35   2
   0  -6   3 909650. 8505.21   2
   0  -6   3 870202. 8820.23  22
   0  -6   4 70052.1 2193.18   2
   0  -6   4 71283.5 2354.93  22
   0  -6   5 272401. 5193.00   9
   0  -6   5 261851. 4364.58  22
   0  -6   6 253889. 5275.24   9
   0  -6   7 4525.58 789.458   9
   0  -6   8 119028. 4188.92   9
   0  -6   9 29005.5 2252.99   9
   0  -6  10 603.240 196.338  43
   0  -6  10 570.506 487.356   9
   0  -6  10 1117.24 329.202  40
   0  -6  11 85770.1 2349.44  36
   0  -6  11 90011.4 2216.39  43
   0  -6  11 94479.7 4546.16   9
   0  -6  11 86837.9 2495.63  40
   0  -6  12 185859. 3490.23  36
   0  -6  12 193128. 3344.67  43
   0  -6  13 308.956 214.653  43
   0  -6  13 220.359 166.525  40
   0  -6  14 47142.4 1634.87  36
   0  -6  14 36224.8 1304.23  43
   0  -6  15 55633.1 1422.16  36
   0  -5 -10 33675.7 865.297  48
   0  -5  -9 11104.1 665.121  48
   0  -5  -8 29807.1 1223.78  17
   0  -5  -8 31045.2 1264.76  14
   0  -5  -7 161809. 2972.85  17
   0  -5  -6 8335.99 1453.39   2
   0  -5  -6 8062.52 685.519  14
   0  -5  -6 8072.73 1284.27  10
   0  -5  -6 7178.41 1354.80  23
   0  -5  -5 120346. 2490.09  14
   0  -5  -5 122374. 5332.26   2
   0  -5  -5 115453. 4603.08  10
   0  -5  -5 121514. 5148.36  23
   0  -5  -4 172618. 5291.76  10
   0  -5  -4 177480. 6010.43   2
   0  -5  -4 176356. 2810.44  14
   0  -5  -4 183352. 6017.18  23
   0  -5  -3 578.859 412.361   2
   0  -5  -3 324.866 190.145  14
   0  -5  -3 273.021 323.619  10
   0  -5  -3 382.348 482.146  23
   0  -5  -2 122176. 4309.49   2
   0  -5  -2 119315. 1983.33  14
   0  -5  -2 117755. 3600.62  10
   0  -5  -2 121847. 4305.15  23
   0  -5  -1 51154.8 2591.41   2
   0  -5  -1 50009.5 1183.04  14
   0  -5  -1 50417.2 2100.30  10
   0  -5  -1 53922.0 2686.38  23
   0  -5   0 37561.7 2048.08   2
   0  -5   0 37903.1 940.765  14
   0  -5   0 37533.6 1510.86  10
   0  -5   1 191883. 4242.15   2
   0  -5   1 193193. 2616.92  10
   0  -5   2 298385. 4672.76   2
   0  -5   3 295083. 4148.36   2
   0  -5   3 296882. 4318.29  22
   0  -5   4 422739. 4775.05   2
   0  -5   4 426347. 4918.73  22
   0  -5   5 11711.5 1005.58   9
   0  -5   5 11259.9 808.084  22
   0  -5   6 268274. 5136.38   9
   0  -5   7 275383. 5699.39   9
   0  -5   8 254.733 363.864   9
   0  -5   9 40591.9 2625.97   9
   0  -5  10 50810.8 1738.98  36
   0  -5  10 50625.4 1544.75  43
   0  -5  10 48109.7 3106.74   9
   0  -5  10 50507.5 1758.31  40
   0  -5  11 3340.54 488.490  36
   0  -5  11 3189.46 424.076  43
   0  -5  11 3674.35 484.489  40
   0  -5  11 3634.90 408.904  37
   0  -5  12 167777. 3318.45  36
   0  -5  12 166317. 3072.31  43
   0  -5  12 167167. 2799.85  37
   0  -5  13 45929.9 1582.17  43
   0  -5  13 46247.0 1448.47  37
   0  -5  14 219.782 179.225  43
   0  -5  14 2481.07 378.136  37
   0  -4 -10 10850.7 606.446  48
   0  -4  -9 63135.7 1801.96  17
   0  -4  -9 60945.5 1746.18  14
   0  -4  -8 32373.4 2650.49  23
   0  -4  -7 69416.4 4157.45   2
   0  -4  -7 69451.0 1980.14  14
   0  -4  -7 67421.5 3777.11  10
   0  -4  -7 68373.3 3933.36  23
   0  -4  -6 210650. 7070.80   2
   0  -4  -6 212513. 3369.81  14
   0  -4  -6 191431. 6201.03  10
   0  -4  -6 206132. 6721.69  23
   0  -4  -5 1366.84 626.410   2
   0  -4  -5 1417.02 313.188  14
   0  -4  -5 1537.07 626.479  10
   0  -4  -5 1440.21 651.688  23
   0  -4  -4 321905. 7642.19   2
   0  -4  -4 318069. 3577.47  14
   0  -4  -4 315972. 7414.66  23
   0  -4  -3 281831. 6539.55   2
   0  -4  -3 275045. 3009.31  14
   0  -4  -3 267917. 6344.58  23
   0  -4  -2 65816.3 2914.35   2
   0  -4  -2 65280.4 1344.68  14
   0  -4  -2 63292.3 2844.13  23
   0  -4  -1 429355. 6732.43   2
   0  -4  -1 423592. 3064.87  14
   0  -4  -1 421897. 6650.36  23
   0  -4   0 150037. 3601.55   2
   0  -4   0 148542. 1642.11  14
   0  -4   0 141600. 2745.93  10
   0  -4   1 24507.0 814.824  10
   0  -4   1 24827.7 1324.42   2
   0  -4   2 846521. 6542.92   2
   0  -4   3 5820.39 504.860   2
   0  -4   4 199579. 3506.38   9
   0  -4   5 554140. 6428.54   9
   0  -4   6 39035.0 1919.03   9
   0  -4   6 36683.3 1905.54   7
   0  -4   7 143005. 4080.22   9
   0  -4   7 144145. 4119.43   7
   0  -4   8 232890. 5774.31   9
   0  -4   8 235036. 5753.03   7
   0  -4   9 609.880 371.953   7
   0  -4   9 1072.51 536.306   9
   0  -4  10 80921.9 1875.05  37
   0  -4  10 82083.1 2195.35  36
   0  -4  10 82111.1 1972.51  43
   0  -4  10 88880.7 4224.31   9
   0  -4  10 88516.8 4217.59   7
   0  -4  11 55262.5 1682.84  37
   0  -4  11 53158.3 1845.58  36
   0  -4  11 51080.4 3397.58   9
   0  -4  11 53623.6 1711.82  43
   0  -4  12 120707. 2735.01  36
   0  -4  12 118389. 2581.44  43
   0  -4  12 121105. 2570.02  37
   0  -4  13 99457.4 2269.06  43
   0  -4  13 103241. 2276.22  37
   0  -4  14 23193.8 949.093  43
   0  -4  14 25317.8 1021.89  37
   0  -4  15 9962.58 546.057  37
   0  -3  -9 2933.62 434.230  14
   0  -3  -9 2968.86 832.497  23
   0  -3  -8 85597.3 4360.81  10
   0  -3  -8 87011.2 2232.41  14
   0  -3  -8 82195.2 4286.75  23
   0  -3  -7 540.708 254.921  14
   0  -3  -7-26.4964 420.866  10
   0  -3  -7 299.100 467.861  23
   0  -3  -7 474.532 395.805   2
   0  -3  -6 293094. 7922.58   2
   0  -3  -6 294710. 3803.83  14
   0  -3  -6 284000. 7526.48  23
   0  -3  -5 278917. 7184.56   2
   0  -3  -5 279778. 3414.95  14
   0  -3  -5 272140. 6841.19  23
   0  -3  -4 1130.65 490.571  23
   0  -3  -4 1141.99 484.766   2
   0  -3  -3 346837. 6678.17   2
   0  -3  -3 335873. 6444.10  23
   0  -3  -2 77345.0 2823.61   2
   0  -3  -2 74902.6 1297.12  14
   0  -3  -2 73679.2 2750.98  23
   0  -3  -1 21875.6 1359.84   2
   0  -3  -1 22693.8 637.780  14
   0  -3  -1 19296.7 1278.91  23
   0  -3   0 222561. 3829.81   2
   0  -3   1 494841. 2750.25  10
   0  -3   1 483867. 4756.98   2
   0  -3   2 289732. 3056.29   2
   0  -3   4 120149. 2577.52   9
   0  -3   4 124671. 2702.72   7
   0  -3   5 198570. 3800.89   9
   0  -3   5 205376. 3904.35   7
   0  -3   6 239637. 4746.53   9
   0  -3   6 244103. 4802.95   7
   0  -3   7 28290.8 1836.76   7
   0  -3   7 25997.8 1779.89   9
   0  -3   8 164998. 4925.62   7
   0  -3   8 157334. 4825.82   9
   0  -3   9 156726. 5268.99   9
   0  -3   9 164874. 5369.78   7
   0  -3  10 1929.85 754.184   7
   0  -3  10 1839.65 350.548  36
   0  -3  10 2285.15 356.370  37
   0  -3  10 2649.67 375.381  43
   0  -3  10 2093.42 739.594   9
   0  -3  11 163099. 3053.92  37
   0  -3  11 163745. 3169.48  36
   0  -3  11 164702. 3014.32  43
   0  -3  12 9332.27 758.079  37
   0  -3  12 8250.35 682.269  43
   0  -3  13 8867.37 656.165  43
   0  -3  13 9662.06 734.362  37
   0  -3  14 31979.4 1016.39  43
   0  -3  14 34093.1 1177.52  37
   0  -3  15 7756.03 477.487  37
   0  -2 -10 59082.8 1782.90  14
   0  -2 -10 57840.6 3331.99  23
   0  -2  -9 41688.3 1545.75  14
   0  -2  -9 41764.9 3091.85  10
   0  -2  -9 40938.8 2992.74  23
   0  -2  -8 128503. 5625.69   2
   0  -2  -8 133651. 2726.66  14
   0  -2  -8 127822. 5337.57  10
   0  -2  -8 122747. 5126.17  23
   0  -2  -7 182309. 6324.51   2
   0  -2  -7 186942. 3058.11  14
   0  -2  -7 171831. 5820.06  23
   0  -2  -6 18370.9 1876.07   2
   0  -2  -6 19604.1 1873.43  23
   0  -2  -5 551291. 9403.18   2
   0  -2  -5 541515. 8922.64  23
   0  -2  -4 286908. 2102.85  15
   0  -2  -4 296661. 6198.54   2
   0  -2  -3 64035.5 1309.53   5
   0  -2  -3 65945.0 2603.44   2
   0  -2  -2 112946. 1772.42   5
   0  -2  -2 120870. 3083.63   2
   0  -2  -1 129470. 2821.64   2
   0  -2  -1 124659. 1917.19   5
   0  -2   0 8711.53 645.089   2
   0  -2   1 645916. 3980.35   2
   0  -2   2 13798.7 544.940   2
   0  -2   3 417213. 2094.19   4
   0  -2   4 393977. 3350.65   4
   0  -2   5 25110.7 1384.11   7
   0  -2   5 25686.7 1115.47   4
   0  -2   5 26780.5 1435.79   9
   0  -2   6 550235. 7374.31   7
   0  -2   6 546038. 7435.30   9
   0  -2   7 280205. 5891.41   7
   0  -2   7 269832. 5872.75   9
   0  -2   8 3180.51 758.665   7
   0  -2   8 2413.62 688.283   9
   0  -2   9 208598. 3252.39  36
   0  -2   9 212517. 6391.04   9
   0  -2  10 182205. 3220.32  36
   0  -2  10 184589. 3239.37  37
   0  -2  10 184396. 3050.40  43
   0  -2  11 21985.1 1160.91  37
   0  -2  11 20391.4 1066.71  43
   0  -2  12 72703.1 2087.36  37
   0  -2  12 70213.4 1925.72  43
   0  -2  13 31630.7 1159.34  43
   0  -2  13 32890.4 1310.38  37
   0  -2  14 2803.04 376.598  37
   0  -1 -11 15138.7 866.085  14
   0  -1 -10 16827.6 974.385  14
   0  -1 -10 16298.3 1840.16  23
   0  -1  -9 216529. 7317.91   2
   0  -1  -9 206036. 6936.49  10
   0  -1  -9 208821. 3436.84  14
   0  -1  -8 649.517 460.511  23
   0  -1  -8 691.100 438.657   2
   0  -1  -7 194976. 6172.76   2
   0  -1  -6 316206. 2490.88  15
   0  -1  -6 324751. 7281.59   2
   0  -1  -5 13400.7 832.099  11
   0  -1  -5 13965.6 477.149  15
   0  -1  -5 14844.5 1424.90   2
   0  -1  -4 166154. 1462.84  15
   0  -1  -4 167792. 1978.37   5
   0  -1  -4 165186. 2614.05  11
   0  -1  -4 172812. 4201.08   2
   0  -1  -3 260033. 2298.09   5
   0  -1  -3 259123. 2836.74  11
   0  -1  -2 59849.7 997.786   5
   0  -1  -2 60132.1 1840.74   2
   0  -1  -1 727032. 3156.20   5
   0  -1  -1 713529. 5175.77   2
   0  -1   0 454355. 3138.16   2
   0  -1   1 310338. 1784.16   2
   0  -1   2 380487. 2174.97   4
   0  -1   3 794.565 191.236   4
   0  -1   3 424.591 88.5590   3
   0  -1   4 96936.1 2331.45   4
   0  -1   4 101270. 1566.16   3
   0  -1   5 53172.8 2103.61   7
   0  -1   5 54095.8 2071.62   4
   0  -1   5 53739.1 1330.83   3
   0  -1   5 52392.6 2126.49   9
   0  -1   6 3227.53 658.408   7
   0  -1   6 4388.85 768.655   9
   0  -1   7 84973.4 3397.61   7
   0  -1   7 81846.9 3410.30   9
   0  -1   8 121535. 4547.48   7
   0  -1   8 120238. 4558.33   9
   0  -1   9 313.393 169.779  37
   0  -1   9 720.124 458.015   7
   0  -1   9 602.532 224.991  36
   0  -1   9 785.442 203.617  43
   0  -1  10 183805. 3319.71  37
   0  -1  10 180253. 3081.25  43
   0  -1  11 30890.0 1393.91  37
   0  -1  11 30813.4 1294.02  43
   0  -1  12 8480.40 722.353  37
   0  -1  12 7338.49 603.930  43
   0  -1  13 40010.6 1174.85  43
   0  -1  13 44102.6 1435.17  37
   0  -1  14 11886.0 617.872  37
   0   0 -11 61762.1 1800.85  14
   0   0 -10 6707.74 621.429  14
   0   0 -10 6066.29 1260.37  10
   0   0 -10 5361.23 1080.48  23
   0   0  -9 226238. 7260.00   2
   0   0  -9 225225. 6712.65  23
   0   0  -8 155910. 5619.47   2
   0   0  -7 2499.05 234.567  15
   0   0  -7 3435.92 770.174   2
   0   0  -6 125688. 2913.66  11
   0   0  -6 132512. 4243.58   2
   0   0  -6 128793. 1526.56  15
   0   0  -5 161416. 2237.35   5
   0   0  -4 27009.2 856.100   5
   0   0  -3 333112. 2677.52   5
   0   0  -2 88416.4 1158.16   5
   0   0  -1 354100. 1676.76   5
   0   0   1 326750. 2417.80   4
   0   0   2 87767.4 1847.46   4
   0   0   2 91058.8 1731.92   3
   0   0   3 337077. 4488.70   4
   0   0   3 338072. 3964.82   3
   0   0   4 28050.7 1426.42   7
   0   0   4 28193.1 1548.92   4
   0   0   4 27526.0 1280.02   3
   0   0   4 27701.5 1459.50   9
   0   0   5 158017. 3935.58   7
   0   0   5 161359. 3336.72   3
   0   0   5 157422. 4012.43   9
   0   0   6 127321. 4016.81   7
   0   0   6 119863. 3030.55   3
   0   0   6 123823. 4010.26   9
   0   0   7 2500.12 700.146   7
   0   0   8 152846. 5376.45   7
   0   0   9 219215. 3507.56  37
   0   0   9 225592. 7046.27   7
   0   0   9 219069. 3167.23  51
   0   0   9 218053. 3248.54  43
   0   0  10 5665.03 600.741  37
   0   0  10 5736.71 559.339  43
   0   0  11 63577.6 1954.72  37
   0   0  11 59516.6 1753.38  43
   0   0  12 20663.9 936.498  43
   0   0  12 22877.8 1113.89  37
   0   0  13 11927.7 700.307  37
   0   0  14 48139.2 1036.09  37
   0   1 -11 31614.0 1292.32  14
   0   1 -10 192592. 6655.84   2
   0   1 -10 187174. 6556.27  10
   0   1 -10 192005. 6098.38  23
   0   1  -9 291.648 368.933   2
   0   1  -8 129252. 4795.02   2
   0   1  -7 90154.6 3598.61   2
   0   1  -6 4507.60 451.866   5
   0   1  -5 54617.6 1520.87   5
   0   1  -4 88947.8 1025.71   8
   0   1  -3 1022.08 147.350   8
   0   1  -2 364439. 2665.17   8
   0   1  -1 324922. 2301.61   6
   0   1   0 486487. 3646.64   4
   0   1   0 481847. 3104.91   6
   0   1   1 703137. 5669.71   4
   0   1   2 61864.8 2055.92   4
   0   1   2 65929.5 2077.99   3
   0   1   3 268885. 4895.70   4
   0   1   3 265038. 4567.78   3
   0   1   4 168951. 3895.37   3
   0   1   5 14605.5 1344.73   7
   0   1   5 14466.6 1220.10   3
   0   1   6 314905. 6814.96   7
   0   1   6 309009. 5800.42   3
   0   1   7 183931. 5756.43   7
   0   1   8 499.694 177.379  37
   0   1   8 255.511 150.877  51
   0   1   8 270.801 155.927  43
   0   1   9 204542. 3418.89  37
   0   1   9 203678. 6896.19   7
   0   1   9 179049. 2893.53  36
   0   1   9 191719. 3158.21  51
   0   1   9 190112. 3132.59  43
   0   1  10 17302.7 1031.05  37
   0   1  10 17069.1 951.341  43
   0   1  11 14704.2 916.979  37
   0   1  11 13546.8 797.627  43
   0   1  12 57337.7 1367.36  43
   0   1  12 61926.3 1658.71  37
   0   1  13 19632.8 766.368  37
   0   2 -11 22464.7 2248.61  10
   0   2 -10 191932. 6429.17   2
   0   2 -10 191045. 6520.89  10
   0   2  -9 226052. 6558.77   2
   0   2  -8 2984.20 711.290   2
   0   2  -7 290650. 4252.74   5
   0   2  -6 562678. 6009.91   6
   0   2  -6 563178. 5875.34   5
   0   2  -5 25347.9 803.922   8
   0   2  -4 366372. 3727.29   8
   0   2  -3 415263. 4002.94   6
   0   2  -3 390081. 4062.65   8
   0   2  -2 14791.5 728.476   6
   0   2  -2 15311.4 837.383   8
   0   2  -1 669245. 4912.30   6
   0   2   0 9932.20 642.557   6
   0   2   1 139475. 3232.95   4
   0   2   1 136826. 3208.66   3
   0   2   2 128604. 3474.06   4
   0   2   2 121851. 3354.23   3
   0   2   3 68413.1 2698.78   3
   0   2   4 287714. 5848.66   3
   0   2   5 539696. 8820.15   7
   0   2   5 518186. 8237.40   3
   0   2   6 18352.8 1809.35   7
   0   2   6 17727.8 1575.26   3
   0   2   7 179986. 6046.56   7
   0   2   8 124424. 2578.95  37
   0   2   8 113037. 2173.47  36
   0   2   8 131097. 5479.35   7
   0   2   8 125815. 2567.01  51
   0   2   8 120493. 2477.29  30
   0   2   8 121661. 2454.21  43
   0   2   9 38047.5 1410.41  43
   0   2   9 36624.1 1432.55  51
   0   2  10 61608.5 1831.47  37
   0   2  10 58687.5 1747.00  51
   0   2  10 59972.2 1709.01  43
   0   2  11 8464.59 578.082  43
   0   2  11 7989.01 632.203  37
   0   2  12 9472.57 581.563  37
   0   2  13 39272.0 835.083  37
   0   3 -11 181482. 6119.14  10
   0   3 -10 1608.15 638.768  10
   0   3 -10 2665.77 740.800   2
   0   3 -10 1695.73 632.153   1
   0   3  -9 160785. 5212.39   2
   0   3  -7 28158.4 1570.01   6
   0   3  -6 244050. 4366.21   6
   0   3  -5 208622. 3749.35   6
   0   3  -5 197017. 3318.15   8
   0   3  -4 126939. 2784.23   6
   0   3  -4 127339. 2932.29   1
   0   3  -4 118251. 2783.65   8
   0   3  -3 432560. 4916.48   6
   0   3  -3 410261. 5221.03   8
   0   3  -2 318669. 4190.80   6
   0   3  -1 516845. 5465.77   6
   0   3   0 248380. 3896.00   6
   0   3   1 20109.2 1452.25   3
   0   3   2 79462.4 3082.35   3
   0   3   3 370409. 6994.68   3
   0   3   4 1478.80 539.954   3
   0   3   5 285384. 6712.31   3
   0   3   6 295886. 7604.95   7
   0   3   6 283458. 6834.79   3
   0   3   7 402.211 177.299  37
   0   3   7 433.306 466.822   7
   0   3   7 629.313 210.528  30
   0   3   7 461.119 189.836  43
   0   3   7 1134.17 266.704  51
   0   3   8 82105.6 2069.07  37
   0   3   8 81034.5 2041.52  43
   0   3   8 80253.5 2135.08  51
   0   3   9 2592.39 398.903  37
   0   3   9 3192.30 441.857  51
   0   3   9 2425.45 366.585  43
   0   3  10 22472.8 1031.95  37
   0   3  10 20169.6 982.959  51
   0   3  10 21138.7 948.027  43
   0   3  11 36889.5 1144.07  37
   0   3  12 14680.2 563.256  37
   0   4 -11 56802.1 3531.74   1
   0   4 -10 95662.8 4492.44   1
   0   4  -9 1474.16 576.346   1
   0   4  -8 243081. 6146.99   1
   0   4  -8 240854. 5313.12   6
   0   4  -7 144788. 3910.30   6
   0   4  -7 150175. 4453.51   1
   0   4  -6 36644.9 1862.60   6
   0   4  -6 37402.5 2038.11   1
   0   4  -5 578493. 7035.54   6
   0   4  -5 556007. 2732.77  12
   0   4  -5 573603. 7282.36   1
   0   4  -4 209579. 4049.42   1
   0   4  -4 213706. 4121.12   6
   0   4  -4 204307. 1568.02  12
   0   4  -4 213772. 2894.55   3
   0   4  -4 202083. 4188.95   8
   0   4  -3 6323.77 731.765   6
   0   4  -3 6640.02 671.748   3
   0   4  -3 6488.25 702.079   1
   0   4  -3 7295.99 829.708   8
   0   4  -2 912928. 3922.13  18
   0   4  -2 915365. 8872.14   8
   0   4  -1 27703.1 690.533  18
   0   4  -1 27929.9 1493.15   6
   0   4  -1 28059.1 1666.32   3
   0   4   0 163523. 4327.50   3
   0   4   0 168630. 3702.61   6
   0   4   1 470568. 7839.21   3
   0   4   2 75486.0 3318.49   3
   0   4   3 294977. 6826.72   3
   0   4   4 332806. 7545.23   3
   0   4   5 1347.76 573.497   3
   0   4   6 204090. 2914.08  37
   0   4   6 197682. 3098.57  30
   0   4   6 208671. 6193.50   3
   0   4   7 70666.6 1835.03  37
   0   4   7 69075.1 1915.39  30
   0   4   7 68856.0 1966.37  51
   0   4   7 67361.2 1855.88  43
   0   4   8 32081.6 1251.59  37
   0   4   8 29681.6 1301.90  51
   0   4   8 30701.2 1243.60  43
   0   4   9 63679.5 1685.19  37
   0   4   9 60879.8 1767.96  51
   0   4   9 60612.6 1640.15  43
   0   4  10 10858.2 593.091  43
   0   4  10 10535.3 621.000  37
   0   4  11 4656.73 348.398  37
   0   5 -11 5476.91 1130.20   1
   0   5 -10 52813.5 3387.30   1
   0   5  -9 42173.6 2834.19   1
   0   5  -9 39148.1 2263.32   5
   0   5  -9 40092.5 1028.68  12
   0   5  -8 132.773 335.977   1
   0   5  -8 594.706 124.571  12
   0   5  -7 275716. 5913.17   6
   0   5  -7 282559. 6287.05   1
   0   5  -7 271096. 2334.69  12
   0   5  -6 288788. 5944.41   1
   0   5  -6 280097. 5700.60   6
   0   5  -6 270599. 2186.12  12
   0   5  -5 12581.1 1206.13   6
   0   5  -5 12289.6 449.047  12
   0   5  -5 11322.4 1129.77   1
   0   5  -5 12974.4 1207.74   8
   0   5  -4 474447. 6992.39   6
   0   5  -4 468497. 5737.89   3
   0   5  -4 475893. 7203.17   8
   0   5  -3 321062. 2706.21  18
   0   5  -3 318702. 5694.46   6
   0   5  -3 299480. 5264.65   3
   0   5  -3 340297. 6145.49   8
   0   5  -2 320813. 2669.28  18
   0   5  -2 314838. 5863.50   3
   0   5  -1 222513. 4711.30   6
   0   5  -1 218032. 5243.47   3
   0   5   0 45250.9 2548.90   3
   0   5   0 44263.8 2125.89   6
   0   5   1 58299.6 3056.52   3
   0   5   2 131871. 4767.37   3
   0   5   3 171.404 284.456   3
   0   5   4 185136. 6033.02   3
   0   5   5 116477. 2217.99  53
   0   5   5 123875. 2387.57  30
   0   5   5 123125. 4985.58   3
   0   5   5 119597. 2497.37  54
   0   5   6 9051.38 614.443  37
   0   5   6 7764.78 1351.55   7
   0   5   6 7000.73 638.793  51
   0   5   6 7872.74 639.330  30
   0   5   6 6978.39 1176.54   3
   0   5   7 164313. 2668.14  37
   0   5   7 167208. 2949.95  30
   0   5   7 163686. 2871.77  43
   0   5   7 163874. 3074.24  51
   0   5   8 32133.2 1143.71  37
   0   5   8 32320.6 1316.91  51
   0   5   8 30020.8 1178.33  43
   0   5   9 11211.2 705.613  51
   0   5   9 11508.2 635.511  43
   0   5   9 11482.9 612.574  37
   0   5  10 36321.1 851.531  37
   0   6 -10 663.236 485.184   1
   0   6  -9 31731.8 2328.71   6
   0   6  -9 30755.0 2484.15   1
   0   6  -8 122614. 4449.26   6
   0   6  -8 121210. 1715.50  12
   0   6  -8 129490. 4722.77   1
   0   6  -7 5003.17 905.952   6
   0   6  -7 4642.87 330.633  12
   0   6  -7 4833.72 928.667   1
   0   6  -6 262423. 6044.70   6
   0   6  -6 256065. 5896.79   1
   0   6  -6 245515. 2268.33  12
   0   6  -5 294371. 6310.88   6
   0   6  -4 77331.4 1549.83  18
   0   6  -4 75967.9 3159.42   6
   0   6  -4 78563.4 2794.87   3
   0   6  -3 960311. 5251.62  18
   0   6  -3 958645. 10601.2   3
   0   6  -2 57170.8 1263.37  18
   0   6  -2 60341.0 2755.66   6
   0   6  -2 59334.8 2850.37   3
   0   6  -1 279422. 6537.82   3
   0   6  -1 281263. 5894.55   6
   0   6   0 173882. 5454.41   3
   0   6   1 17807.6 1843.73   3
   0   6   2 117705. 4858.53   3
   0   6   3 137545. 5372.76   3
   0   6   4 2551.18 386.896  54
   0   6   4 2057.54 313.324  53
   0   6   4 2373.90 339.474  30
   0   6   4 1725.05 673.440   3
   0   6   5 85331.2 1966.32  53
   0   6   5 86147.0 2050.21  30
   0   6   5 84277.1 4242.46   3
   0   6   6 127301. 2708.98  51
   0   6   6 126276. 2510.63  30
   0   6   7 56.0467 182.294  51
   0   6   7 83.8366 130.834  43
   0   6   8 37142.5 1156.50  43
   0   6   8 38740.9 1333.40  51
   0   6   9 19232.9 788.658  51
   0   7 -12 1276.73 292.245  18
   0   7 -11 55453.1 1857.48  18
   0   7 -10 32272.9 2733.26   1
   0   7  -9 849.836 394.978   6
   0   7  -9 566.454 439.042   1
   0   7  -8 116376. 4642.51   6
   0   7  -8 123798. 4820.69   1
   0   7  -7 125931. 2394.00  18
   0   7  -7 116017. 4526.85   6
   0   7  -6 6736.53 551.772  18
   0   7  -6 6522.42 1082.25   6
   0   7  -5 231462. 2983.52  18
   0   7  -5 226545. 6070.01   6
   0   7  -4 62009.1 1516.44  18
   0   7  -4 69314.1 2925.07   3
   0   7  -4 68943.1 3310.60   6
   0   7  -3 216047. 2734.45  18
   0   7  -3 223495. 5812.29   6
   0   7  -3 211832. 5554.13   3
   0   7  -2 237104. 5925.94   6
   0   7  -2 229021. 6069.24   3
   0   7  -1 4517.24 936.478   3
   0   7  -1 4419.73 826.133   6
   0   7   0 171585. 5813.53   3
   0   7   1 290789. 7793.93   3
   0   7   2 149.047 132.096  53
   0   7   2 240.991 381.605   3
   0   7   2 452.598 198.039  54
   0   7   3 125679. 2580.43  54
   0   7   3 120848. 2352.76  53
   0   7   3 122229. 2278.44  30
   0   7   4 89591.3 2054.87  53
   0   7   4 91043.9 2050.92  30
   0   7   4 95274.5 4635.92   3
   0   7   4 94183.5 2293.28  54
   0   7   5 1938.25 311.756  53
   0   7   5 2438.98 365.104  30
   0   7   6 67988.8 1931.02  51
   0   7   6 69402.7 1775.96  30
   0   7   6 65756.8 1741.01  43
   0   7   7 17473.8 902.629  51
   0   7   7 15938.0 768.094  43
   0   7   8 7113.39 409.300  43
   0   7   8 7679.50 520.262  51
   0   8 -13 64321.9 1931.30  19
   0   8 -12 69260.1 2089.36  18
   0   8 -11 1373.56 352.140  18
   0   8 -10 69925.0 2099.44  18
   0   8  -9 132755. 2807.43  18
   0   8  -9 124509. 5157.96   6
   0   8  -8 11058.1 808.170  18
   0   8  -8 10847.4 1542.10   6
   0   8  -7 427580. 4727.35  18
   0   8  -7 410553. 9082.51   6
   0   8  -6 213085. 3204.09  18
   0   8  -6 207235. 6353.00   6
   0   8  -5 3398.75 431.512  18
   0   8  -5 3470.77 880.698   6
   0   8  -4 205330. 2952.46  18
   0   8  -4 214111. 6212.49   6
   0   8  -4 214941. 5594.77   3
   0   8  -3 7953.03 475.011  19
   0   8  -3 9372.46 1323.10   6
   0   8  -3 8640.58 1238.38   3
   0   8  -2 61550.7 3249.98   6
   0   8  -2 58565.9 3308.71   3
   0   8  -1 152982. 5591.02   3
   0   8   0 73970.1 1813.88  54
   0   8   0 81909.0 4229.13   3
   0   8   1 74402.1 1844.54  53
   0   8   1 78509.4 4269.46   3
   0   8   1 77059.1 1940.42  54
   0   8   2 97678.8 2174.28  53
   0   8   2 101904. 2327.31  54
   0   8   2 96223.0 1964.29  30
   0   8   2 104865. 5002.35   3
   0   8   3 721.189 249.799  54
   0   8   3 659.426 210.261  53
   0   8   4 122642. 2381.19  53
   0   8   4 124286. 2355.60  30
   0   8   5 32661.2 1167.05  30
   0   8   5 32893.9 1337.19  51
   0   8   6 13641.5 801.492  51
   0   8   6 12994.7 692.618  43
   0   8   7 39781.4 960.229  43
   0   8   7 41728.0 1178.32  51
   0   8   8 4359.25 302.323  51
   0   9 -12 48123.0 1763.15  18
   0   9 -11 24183.5 1287.33  18
   0   9 -10 9464.38 813.910  18
   0   9 -10 9230.11 1439.10   6
   0   9  -9 170790. 3321.73  18
   0   9  -9 166091. 6205.42   6
   0   9  -8 88670.1 2344.86  18
   0   9  -8 88167.4 4524.73   6
   0   9  -7 38666.0 1504.20  18
   0   9  -7 37102.6 2885.46   6
   0   9  -6 213861. 3394.17  18
   0   9  -6 214671. 6837.35   6
   0   9  -5 103945. 2304.64  18
   0   9  -5 102893. 4642.67   6
   0   9  -4 41822.4 1191.72  19
   0   9  -4 39801.5 2859.09   6
   0   9  -4 42771.4 2663.10   3
   0   9  -3 105193. 2160.61  53
   0   9  -3 106291. 4466.35   3
   0   9  -3 107105. 4580.06   6
   0   9  -2 7503.77 580.415  54
   0   9  -2 7949.09 1329.65   3
   0   9  -2 7860.40 606.896  53
   0   9  -1 92840.5 2098.64  54
   0   9  -1 93549.4 2116.85  53
   0   9  -1 92810.4 4565.83   3
   0   9   0 276968. 3706.02  53
   0   9   0 277528. 3749.35  54
   0   9   1 16944.3 928.627  53
   0   9   1 17652.7 990.542  54
   0   9   1 17923.7 2094.67   3
   0   9   2 78973.0 1984.64  53
   0   9   2 81325.6 1777.10  30
   0   9   2 81820.1 2133.75  54
   0   9   3 62647.8 1851.34  54
   0   9   3 58111.8 1639.23  53
   0   9   3 59946.0 1538.57  30
   0   9   4 11520.8 676.123  53
   0   9   4 12464.9 682.264  30
   0   9   5 76678.0 1809.82  51
   0   9   5 71042.1 1572.04  43
   0   9   6 12802.7 535.486  43
   0   9   6 13720.9 670.797  51
   0   9   7 8916.96 418.495  51
   0  10 -12 838.300 267.923  19
   0  10 -12 1303.54 303.032  18
   0  10 -11 54665.6 1933.81  18
   0  10 -10 58203.7 1997.73  18
   0  10  -9 21254.5 1213.72  18
   0  10  -8 126842. 2876.63  18
   0  10  -8 132548. 5682.88   6
   0  10  -7 50067.4 1765.40  18
   0  10  -7 52921.1 3599.17   6
   0  10  -6 764.060 201.873  19
   0  10  -6 1546.74 432.203  18
   0  10  -6 910.319 498.279   6
   0  10  -5 39034.8 2443.85  20
   0  10  -5 40600.6 3077.96   6
   0  10  -5 42137.6 1346.00  54
   0  10  -5 41916.6 1475.05  53
   0  10  -4 1044.44 547.088   6
   0  10  -4 1377.06 317.742  53
   0  10  -4 1571.29 258.999  41
   0  10  -4 1302.77 254.503  54
   0  10  -3 45579.0 3040.38   3
   0  10  -3 48266.7 1574.28  53
   0  10  -3 48183.0 1502.42  54
   0  10  -2 121690. 2451.89  54
   0  10  -2 123824. 2539.19  53
   0  10  -2 123171. 5150.91   3
   0  10  -1 22636.8 1087.83  54
   0  10  -1 22261.3 1084.42  53
   0  10   0 102513. 2330.66  54
   0  10   0 102325. 2295.80  53
   0  10   1 145849. 2780.27  54
   0  10   1 142560. 2649.99  53
   0  10   2 1304.30 275.844  53
   0  10   2 1101.96 295.026  54
   0  10   3 45046.9 1302.27  53
   0  10   4 18192.7 857.250  51
   0  10   5 8208.14 499.203  51
   0  10   5 7800.27 397.656  43
   0  10   6 28397.8 691.315  51
   0  11 -11 892.243 262.251  19
   0  11 -11 1479.29 337.265  18
   0  11 -10 99838.6 2482.56  19
   0  11  -9 61452.4 1916.04  19
   0  11  -8 13108.6 851.526  19
   0  11  -8 14988.2 1027.89  18
   0  11  -7 106678. 2285.17  19
   0  11  -6 10573.6 695.668  54
   0  11  -6 10765.4 795.082  53
   0  11  -5 71939.8 2013.90  53
   0  11  -5 71020.8 1813.86  54
   0  11  -4 100768. 2196.90  54
   0  11  -4 100553. 2076.72  46
   0  11  -4 100107. 2338.89  53
   0  11  -3 2211.99 362.087  53
   0  11  -3 2749.20 388.786  54
   0  11  -2 29042.6 1250.05  53
   0  11  -2 29272.1 1207.77  54
   0  11  -1 91357.0 2157.87  54
   0  11  -1 93761.9 2196.97  53
   0  11   0 1504.33 315.547  54
   0  11   0 1486.68 297.291  53
   0  11   1 37005.7 1324.39  54
   0  11   1 34874.9 1224.28  53
   0  11   2 32842.2 1071.00  53
   0  11   3 3637.04 379.741  51
   0  11   4 44439.9 1032.55  51
   0  12 -13 1112.90 238.169  53
   0  12 -11 40604.5 2928.17  20
   0  12 -10-263.402 682.835  20
   0  12 -10 353.291 178.380  19
   0  12  -9 79107.4 4016.27  20
   0  12  -9 80540.8 2009.18  19
   0  12  -9 86809.6 2186.50  53
   0  12  -8 58297.5 3283.56  20
   0  12  -8 58650.6 1840.40  53
   0  12  -7 33358.8 1387.59  53
   0  12  -6 159430. 2621.42  54
   0  12  -6 168107. 3067.25  53
   0  12  -5 18962.4 1051.09  53
   0  12  -5 19081.7 932.076  54
   0  12  -4 61671.9 1690.06  54
   0  12  -4 62444.6 1848.54  53
   0  12  -3 64593.6 1854.90  53
   0  12  -3 62469.2 1703.24  54
   0  12  -2 5461.84 538.177  53
   0  12  -2 5276.03 507.835  54
   0  12  -1 36368.6 1266.63  54
   0  12  -1 37190.0 1293.77  53
   0  12   0 19319.4 892.080  54
   0  12   0 18646.1 856.320  53
   0  12   1 229.105 137.525  53
   0  12   2 28861.9 890.545  51
   0  12   3 14531.7 520.131  51
   0  13 -13 14907.5 632.233  53
   0  13 -12 774.232 244.307  53
   0  13 -11 31973.4 1166.15  53
   0  13 -10 18173.1 949.140  53
   0  13  -9 13265.4 845.523  53
   0  13  -8 95082.8 2222.63  53
   0  13  -7 35813.2 1383.14  53
   0  13  -6 15507.3 910.001  53
   0  13  -6 20500.6 968.932  46
   0  13  -5 61626.3 1541.38  54
   0  13  -5 62794.7 1483.96  46
   0  13  -5 66253.6 1825.85  53
   0  13  -4 3362.41 390.046  54
   0  13  -4 3726.54 455.590  53
   0  13  -3 27395.0 1028.45  54
   0  13  -3 29618.5 1148.77  53
   0  13  -2 54116.8 1386.57  54
   0  13  -2 54793.1 1465.26  53
   0  13  -1 187.795 147.209  54
   0  13  -1 237.602 153.433  53
   0  13   0 32930.7 900.697  53
   0  13   1 23097.3 669.921  51
   0  14 -12 48032.9 1120.56  53
   0  14 -11 163.764 168.438  53
   0  14 -10 28299.8 1036.67  53
   0  14  -9 4879.76 474.838  53
   0  14  -9 13924.9 821.767  46
   0  14  -8 26528.4 982.779  46
   0  14  -8 21216.1 955.961  53
   0  14  -7 47801.2 1432.27  53
   0  14  -7 47501.5 1239.90  46
   0  14  -6 7259.29 572.220  53
   0  14  -5 11244.1 678.707  53
   0  14  -4 28273.4 861.936  54
   0  14  -4 29906.8 1034.42  53
   0  14  -3 7396.48 431.413  54
   0  14  -3 7584.47 495.641  53
   0  14  -2 15849.1 628.322  53
   0  14  -1 20827.8 568.784  51
   0  14  -1 20680.0 588.602  53
   0  15 -12 43564.1 884.645  46
   0  15 -11 14334.0 572.270  46
   0  15 -11 10866.4 484.012  53
   0  15 -10 8279.96 472.073  53
   0  15 -10 10628.1 517.474  46
   0  15  -9 35410.5 897.830  46
   0  15  -9 37989.7 1040.34  53
   0  15  -8 3696.19 348.253  53
   0  15  -7 13393.3 633.654  53
   0  15  -6 32261.2 948.684  53
   0  15  -5 763.736 171.074  53
   0  15  -4 24492.8 709.586  53
   1 -15   4 4479.94 300.073  44
   1 -15   5 19624.0 566.570  28
   1 -15   5 20494.6 668.827  44
   1 -15   6 1017.77 171.891  28
   1 -15   6 944.803 173.545  44
   1 -15   7 22992.5 758.418  28
   1 -15   7 21433.6 707.500  44
   1 -15   8 36640.4 995.240  28
   1 -15   8 32497.1 830.993  44
   1 -14   1 13213.5 519.798  44
   1 -14   2 4939.88 376.159  44
   1 -14   3 21098.0 639.807  28
   1 -14   3 22037.9 836.000  44
   1 -14   4 2051.43 254.159  28
   1 -14   4 2153.94 303.494  44
   1 -14   5 11817.3 631.406  28
   1 -14   5 11907.0 676.655  44
   1 -14   6 34398.0 1133.30  28
   1 -14   6 33137.0 1130.20  44
   1 -14   7 3157.35 380.475  28
   1 -14   7 3225.37 375.115  44
   1 -14   8 14024.4 768.748  28
   1 -14   8 13098.5 692.772  44
   1 -14   9 45336.6 1355.80  28
   1 -14   9 41707.2 1159.10  44
   1 -14  10 507.851 150.395  44
   1 -14  11 32904.4 1021.36  40
   1 -14  12 34974.6 1026.70  40
   1 -13  -1 27463.5 759.973  44
   1 -13   0 1101.20 216.137  44
   1 -13   1 34938.9 1135.32  44
   1 -13   2 12448.1 582.246  28
   1 -13   2 12129.7 737.868  44
   1 -13   3 13084.8 682.314  28
   1 -13   3 13175.6 802.302  44
   1 -13   4 35494.3 1213.30  28
   1 -13   4 36552.6 1345.57  44
   1 -13   5 1157.00 265.899  28
   1 -13   5 1049.69 277.496  44
   1 -13   5 1420.52 518.833  22
   1 -13   6 57449.5 1690.33  28
   1 -13   6 56266.7 1692.12  44
   1 -13   7 63863.4 1812.25  28
   1 -13   7 60320.7 1713.38  44
   1 -13   8 3948.32 490.581  28
   1 -13   8 3894.35 439.182  44
   1 -13   9 33917.5 1337.91  28
   1 -13   9 31583.2 1175.17  44
   1 -13   9 33651.7 1233.99  40
   1 -13  10 24244.1 1100.67  28
   1 -13  10 22388.0 927.131  44
   1 -13  10 24362.1 1106.99  40
   1 -13  11 2659.65 529.572  40
   1 -13  12 49366.8 1532.24  40
   1 -13  13 23690.1 1027.32  40
   1 -13  14 12617.0 676.464  40
   1 -12  -3 6552.24 336.112  44
   1 -12  -2 1609.82 234.019  45
   1 -12  -1 32168.4 1052.97  45
   1 -12   0 23207.8 972.155  45
   1 -12   1 560.372 221.923  45
   1 -12   1 1293.34 543.781  22
   1 -12   2 46717.8 1374.45  29
   1 -12   2 46034.5 2947.20  22
   1 -12   3 20490.3 977.801  29
   1 -12   3 20051.4 1083.50  44
   1 -12   3 18751.1 1926.07  22
   1 -12   4 28944.8 1214.01  29
   1 -12   4 29058.5 1313.46  44
   1 -12   4 26574.5 2310.94  22
   1 -12   5 163509. 3073.79  44
   1 -12   5 154732. 5480.35  22
   1 -12   6 15335.2 942.927  28
   1 -12   6 14880.5 928.481  44
   1 -12   6 14136.8 1650.24  22
   1 -12   7 50261.4 1717.79  28
   1 -12   7 47767.1 1623.77  44
   1 -12   8 73726.7 1962.61  44
   1 -12   8 73828.3 2082.95  28
   1 -12   8 71110.3 1969.89  40
   1 -12   9 1092.05 310.952  28
   1 -12   9 761.039 229.982  44
   1 -12   9 970.984 383.624  40
   1 -12  10 24683.8 1177.56  28
   1 -12  10 24452.3 1059.33  44
   1 -12  10 24062.9 1250.12  40
   1 -12  11 13615.4 737.643  44
   1 -12  11 11629.6 875.602  40
   1 -12  12 9116.36 859.729  40
   1 -12  13 32891.3 1344.66  40
   1 -12  14 28955.4 1109.03  40
   1 -12  15 10546.1 564.403  40
   1 -11  -4 1000.52 186.668  45
   1 -11  -3 16756.9 615.943  32
   1 -11  -3 18011.5 792.716  45
   1 -11  -2 6892.84 564.804  45
   1 -11  -1 12514.4 791.926  45
   1 -11  -1 12917.1 1558.21  22
   1 -11   0 45806.6 1546.80  45
   1 -11   0 46328.6 3065.43  22
   1 -11   1 19012.4 895.043  29
   1 -11   1 18429.5 1000.47  45
   1 -11   1 18801.0 2026.69  22
   1 -11   2 14755.8 843.993  29
   1 -11   2 15312.6 907.607  45
   1 -11   2 13863.8 1757.08  22
   1 -11   3 89510.8 2152.18  29
   1 -11   3 89788.8 2127.78  45
   1 -11   3 91671.1 4479.44  22
   1 -11   4 38867.2 1461.74  29
   1 -11   4 39483.3 1543.38  44
   1 -11   4 39773.4 2936.69  22
   1 -11   5 53791.8 1744.31  29
   1 -11   5 53926.1 1780.78  44
   1 -11   5 56640.1 3419.93  22
   1 -11   6 131069. 2747.04  44
   1 -11   6 132073. 5142.68  22
   1 -11   7 7384.91 675.555  28
   1 -11   7 7138.88 641.201  44
   1 -11   7 7436.56 666.635  40
   1 -11   8 98069.7 2394.17  28
   1 -11   8 91476.0 2194.22  44
   1 -11   8 94789.2 2477.16  40
   1 -11   9 61207.7 1891.04  28
   1 -11   9 63131.7 2111.22  40
   1 -11   9 59174.3 1739.35  44
   1 -11  10 2856.14 426.904  28
   1 -11  10 2485.39 361.711  44
   1 -11  10 3873.23 603.625  40
   1 -11  11 114205. 2227.40  44
   1 -11  11 116026. 2935.41  40
   1 -11  12 50801.0 1904.32  40
   1 -11  13 2368.16 640.897  40
   1 -11  14 45828.3 1498.07  40
   1 -11  15 17458.7 782.345  40
   1 -10  -6 87.2375 79.2390  45
   1 -10  -5 28907.5 816.834  32
   1 -10  -5 30930.0 932.200  45
   1 -10  -4 23524.4 980.224  45
   1 -10  -3 839.681 286.490  45
   1 -10  -2 56778.0 1761.95  45
   1 -10  -2 58251.3 3419.06  22
   1 -10  -1 25542.4 1216.18  45
   1 -10  -1 25702.8 2379.84  22
   1 -10   0 12328.7 852.096  45
   1 -10   0 12631.2 1717.78  22
   1 -10   1 83502.7 1938.54  29
   1 -10   1 85694.9 2187.78  45
   1 -10   1 89721.9 4520.84  22
   1 -10   2 23944.8 1082.49  29
   1 -10   2 22159.2 1101.03  45
   1 -10   2 26038.9 2444.33  22
   1 -10   3 9078.95 685.648  29
   1 -10   3 9318.69 682.747  45
   1 -10   3 9054.42 1439.08  22
   1 -10   4 37191.4 1401.62  29
   1 -10   4 36963.0 2770.58  22
   1 -10   5 1128.65 256.231  29
   1 -10   5 649.082 218.132  44
   1 -10   5 687.098 461.434  22
   1 -10   6 59834.9 1803.26  50
   1 -10   6 63073.4 1825.00  44
   1 -10   6 62285.1 1822.66  40
   1 -10   6 67285.7 3761.85   9
   1 -10   6 66341.7 3532.15  22
   1 -10   7 80850.4 2114.26  28
   1 -10   7 79775.9 2219.81  40
   1 -10   7 81506.3 2019.76  44
   1 -10   7 87329.0 4306.72   9
   1 -10   8 3099.84 428.908  28
   1 -10   8 2782.11 386.251  44
   1 -10   8 2796.00 484.539  40
   1 -10   8 1990.27 735.484   9
   1 -10   9 56543.6 1758.06  28
   1 -10   9 53959.3 1623.82  44
   1 -10   9 54949.0 2030.18  40
   1 -10  10 95347.1 2271.93  28
   1 -10  10 96353.4 2130.44  44
   1 -10  10 89752.3 2683.35  40
   1 -10  11 3891.73 473.355  36
   1 -10  11 3860.49 424.258  44
   1 -10  11 3796.57 603.769  40
   1 -10  12 91357.1 2199.98  36
   1 -10  12 97947.3 2717.86  40
   1 -10  13 34176.8 1275.10  36
   1 -10  13 40842.9 1654.13  40
   1 -10  14 12336.6 686.903  36
   1 -10  14 19578.4 1037.14  40
   1 -10  15 40032.5 960.066  36
   1 -10  15 46400.3 1222.90  40
   1  -9  -7 16858.1 539.152  32
   1  -9  -7 16200.8 529.179  45
   1  -9  -6 33315.8 1006.14  45
   1  -9  -5 1148.24 285.054  45
   1  -9  -4 59170.4 1701.49  48
   1  -9  -4 62725.1 1837.97  45
   1  -9  -4 60710.4 3328.80  22
   1  -9  -3 57899.6 1837.97  45
   1  -9  -3 57456.9 1799.77  48
   1  -9  -3 56290.3 3467.08  22
   1  -9  -2 13454.9 909.980  45
   1  -9  -2 14014.0 920.528  48
   1  -9  -2 13671.9 1790.34  22
   1  -9  -1 111670. 2611.98  48
   1  -9  -1 107483. 2523.81  45
   1  -9   0 39591.3 1512.38  45
   1  -9   0 41494.4 1585.42  48
   1  -9   0 42345.5 3103.57  22
   1  -9   1 58617.8 1581.08  29
   1  -9   1 59999.8 1783.94  45
   1  -9   1 61053.2 3646.70  22
   1  -9   2 149048. 2557.84  29
   1  -9   2 154297. 2716.62  45
   1  -9   2 158191. 5699.80  22
   1  -9   3 23846.9 1035.10  29
   1  -9   3 22990.4 2139.41  22
   1  -9   4 78692.7 1887.32  29
   1  -9   4 82800.3 3889.85  22
   1  -9   5 105812. 2202.14  29
   1  -9   5 106929. 2211.30  44
   1  -9   5 107458. 4308.48  22
   1  -9   6 4026.82 467.875  50
   1  -9   6 3809.81 418.313  44
   1  -9   6 3745.32 469.122  40
   1  -9   6 3065.27 792.459   9
   1  -9   6 3381.77 808.090  22
   1  -9   7 76644.8 2071.72  50
   1  -9   7 82693.0 1972.87  28
   1  -9   7 77941.2 1847.86  44
   1  -9   7 82712.7 4044.02   9
   1  -9   7 77526.0 2212.59  40
   1  -9   8 99954.7 2220.32  28
   1  -9   8 98744.2 2080.28  44
   1  -9   8 104818. 4616.95   9
   1  -9   8 96798.8 2627.04  40
   1  -9   9 2682.99 384.923  36
   1  -9   9 1822.27 294.405  44
   1  -9   9 1990.27 341.657  28
   1  -9   9 1619.33 687.127   9
   1  -9   9 1926.06 437.480  40
   1  -9  10 121686. 2659.14  36
   1  -9  10 122141. 3152.62  40
   1  -9  11 88902.0 1993.63  44
   1  -9  11 86099.6 2665.86  40
   1  -9  12 1783.04 357.189  36
   1  -9  12 1721.64 448.962  40
   1  -9  13 57411.8 1804.40  36
   1  -9  13 61383.4 2045.74  40
   1  -9  14 10561.8 711.732  36
   1  -9  14 14708.2 904.093  40
   1  -9  15 18576.3 797.022  36
   1  -9  15 21444.7 822.574  40
   1  -8  -8 10686.1 418.923  45
   1  -8  -8 12990.6 509.253  32
   1  -8  -7 694.551 198.105  45
   1  -8  -6 41604.0 1268.68  48
   1  -8  -6 43596.6 1390.42  45
   1  -8  -5 48187.3 1620.64  45
   1  -8  -5 45331.8 1489.15  48
   1  -8  -4 286.582 187.660  48
   1  -8  -3 70449.4 2015.06  48
   1  -8  -2 11036.5 813.117  48
   1  -8  -1 38737.7 1470.34  48
   1  -8   0 172885. 3019.11  48
   1  -8   0 171710. 2953.39  45
   1  -8   0 174617. 6015.38  22
   1  -8   1 4463.05 979.964  22
   1  -8   2 66649.8 3464.23  22
   1  -8   3 241817. 6312.85  22
   1  -8   4 19257.8 1735.28  22
   1  -8   5 63504.6 3021.65  22
   1  -8   6 195411. 5669.14   9
   1  -8   6 196531. 5242.82  22
   1  -8   7 3703.74 831.820   9
   1  -8   8 93780.0 1988.62  28
   1  -8   8 90195.6 1856.64  44
   1  -8   8 96135.3 4225.58   9
   1  -8   8 89622.2 2505.00  40
   1  -8   9 109041. 2421.08  36
   1  -8   9 111924. 2243.31  28
   1  -8   9 112000. 2139.83  44
   1  -8   9 108708. 2896.89  40
   1  -8  10 44429.3 1659.46  36
   1  -8  10 45080.2 1396.03  44
   1  -8  10 43241.6 1878.94  40
   1  -8  11 175259. 3373.89  36
   1  -8  11 185011. 2855.43  44
   1  -8  11 175430. 3758.85  40
   1  -8  12 52646.3 1875.91  36
   1  -8  12 54468.3 2028.48  40
   1  -8  13 10091.1 791.156  36
   1  -8  13 10736.0 863.574  40
   1  -8  14 42360.7 1474.67  36
   1  -8  14 45355.8 1444.23  40
   1  -8  15 11785.9 688.345  36
   1  -8  16 21938.7 662.332  36
   1  -7  -8 24508.0 856.139  45
   1  -7  -7 36159.5 1155.35  48
   1  -7  -7 37429.6 1274.17  45
   1  -7  -6 2002.31 336.590  48
   1  -7  -6 1657.86 559.929  24
   1  -7  -5 59677.3 1705.86  14
   1  -7  -5 62626.5 1855.25  48
   1  -7  -5 60640.1 3354.45  24
   1  -7  -4 47168.2 3177.92   2
   1  -7  -4 50708.3 1556.43  14
   1  -7  -4 49661.8 1677.43  48
   1  -7  -4 50798.6 3058.88  24
   1  -7  -3 8266.03 1300.27   2
   1  -7  -3 9121.03 645.662  14
   1  -7  -3 8970.36 712.350  48
   1  -7  -2 98912.0 4226.14   2
   1  -7  -2 98091.7 1963.77  14
   1  -7  -2 95186.2 2200.61  48
   1  -7  -1 74077.8 3408.19   2
   1  -7  -1 73869.1 1573.03  14
   1  -7   0 60165.8 2811.71   2
   1  -7   1 212289. 5849.31  22
   1  -7   2 59653.8 2980.56  22
   1  -7   3 123289. 4062.76  22
   1  -7   4 195050. 4901.70  22
   1  -7   5 19148.8 1516.60  22
   1  -7   6 117357. 4092.09   9
   1  -7   6 111560. 3655.76  22
   1  -7   7 143582. 4689.86   9
   1  -7   8 11260.8 1411.84   9
   1  -7   9 152546. 2859.81  36
   1  -7   9 152084. 2384.23  44
   1  -7   9 153322. 2560.00  43
   1  -7   9 152659. 3305.50  40
   1  -7  10 33680.9 1445.73  36
   1  -7  10 34140.0 1191.78  44
   1  -7  10 35275.2 1297.62  43
   1  -7  10 35310.6 2717.41   9
   1  -7  10 31947.2 1566.88  40
   1  -7  11 56545.9 1952.55  36
   1  -7  11 56273.4 1685.39  43
   1  -7  11 56932.7 2054.62  40
   1  -7  12 233265. 3966.49  36
   1  -7  12 230290. 3954.47  40
   1  -7  13 65576.2 2035.89  36
   1  -7  13 66678.8 1930.63  40
   1  -7  14 14031.5 869.848  36
   1  -7  15 54350.2 1431.25  36
   1  -7  16 22550.7 705.804  36
   1  -6  -9 16580.1 660.993  45
   1  -6  -8 11348.8 619.141  48
   1  -6  -8 11270.9 689.830  45
   1  -6  -7 113719. 2332.73  14
   1  -6  -7 115273. 2260.72  48
   1  -6  -7 108949. 4557.04  24
   1  -6  -6 45562.9 1540.81  14
   1  -6  -6 44977.7 1528.64  48
   1  -6  -5 4287.87 986.651   2
   1  -6  -5 4813.23 512.194  14
   1  -6  -5 5527.76 561.034  48
   1  -6  -4 34439.9 2706.07   2
   1  -6  -4 36072.0 1307.62  14
   1  -6  -4 36609.3 1369.92  48
   1  -6  -3 13939.9 1630.12   2
   1  -6  -3 14614.8 782.165  14
   1  -6  -2 4409.40 867.291   2
   1  -6  -2 4997.05 438.272  14
   1  -6  -1 172507. 4891.01   2
   1  -6  -1 168141. 2228.79  14
   1  -6   0 111368. 3584.66   2
   1  -6   0 111163. 1637.80  14
   1  -6   1 64444.2 2414.99   2
   1  -6   1 62524.1 2872.90  22
   1  -6   2 380733. 4885.09   2
   1  -6   2 387288. 6741.38  22
   1  -6   3 28347.8 1729.80  22
   1  -6   4 218084. 4629.11  22
   1  -6   5 100613. 3397.75   9
   1  -6   5 94948.4 3060.87  22
   1  -6   6 27753.6 1860.15   9
   1  -6   7 137416. 4333.11   9
   1  -6   8 167566. 5119.23   9
   1  -6   9 160.356 148.199  36
   1  -6   9 201.955 401.894   9
   1  -6   9-45.3980 207.548  40
   1  -6  10 53807.8 1827.43  36
   1  -6  10 52187.3 1513.62  43
   1  -6  10 55186.7 3354.25   9
   1  -6  10 51544.8 1866.43  40
   1  -6  11 38589.0 1609.05  36
   1  -6  11 39704.8 1612.66  40
   1  -6  12 7666.45 746.840  36
   1  -6  12 6964.72 651.102  40
   1  -6  13 90734.2 2397.12  36
   1  -6  14 13837.0 900.697  36
   1  -6  15 50752.9 1349.22  36
   1  -5  -9 58453.6 1444.95  45
   1  -5  -8 73345.2 1902.23  14
   1  -5  -8 67170.7 1644.28  48
   1  -5  -8 69332.8 3759.14  24
   1  -5  -7 8973.07 710.334  14
   1  -5  -7 10081.4 698.748  48
   1  -5  -6 102539. 4985.15   2
   1  -5  -6 96534.8 2282.90  14
   1  -5  -6 95269.7 2185.33  48
   1  -5  -6 91909.8 4383.83  10
   1  -5  -5 38899.8 2940.03   2
   1  -5  -5 40802.1 1426.42  14
   1  -5  -5 38484.0 2795.52  10
   1  -5  -4 15160.9 1723.84   2
   1  -5  -4 15740.3 840.118  14
   1  -5  -4 13398.8 1575.46  10
   1  -5  -3 53231.7 2986.66   2
   1  -5  -3 53062.1 1407.94  14
   1  -5  -3 53498.9 2869.60  10
   1  -5  -2 51075.9 2688.96   2
   1  -5  -2 49042.5 1243.09  14
   1  -5  -2 49715.4 2525.09  10
   1  -5  -1 72662.8 2936.92   2
   1  -5  -1 72689.8 1361.76  14
   1  -5   0 440216. 6417.92   2
   1  -5   0 436796. 2908.96  14
   1  -5   0 449159. 5786.56  24
   1  -5   1 156431. 3334.60   2
   1  -5   1 154501. 1470.88  14
   1  -5   2 100184. 2038.33   2
   1  -5   2 100117. 2983.92  22
   1  -5   3 325389. 5119.98  22
   1  -5   4 25753.6 1442.84  22
   1  -5   5 480722. 6785.44   9
   1  -5   6 391592. 6550.74   9
   1  -5   7 2465.93 632.691   9
   1  -5   8 272742. 6356.37   9
   1  -5   9 158653. 5243.12   9
   1  -5  10 557.386 242.166  36
   1  -5  10 631.454 519.787   9
   1  -5  10 172.108 158.096  40
   1  -5  11 41203.5 1646.98  36
   1  -5  12 29359.7 1157.47  37
   1  -5  12 29080.5 1405.34  36
   1  -5  13 19008.2 1112.93  36
   1  -5  13 18345.1 887.319  37
   1  -5  14 66647.3 1779.92  36
   1  -5  15 36727.9 1128.05  36
   1  -4  -9 4099.81 984.455  24
   1  -4  -7 19756.8 2209.79   2
   1  -4  -7 20605.5 1087.48  14
   1  -4  -7 21886.2 2233.85  10
   1  -4  -6 5863.07 578.185  14
   1  -4  -6 4843.11 1085.03  10
   1  -4  -6 4787.49 1070.29   2
   1  -4  -5 119546. 4942.16   2
   1  -4  -5 117184. 4814.99  10
   1  -4  -4 23272.2 2027.12   2
   1  -4  -4 21929.5 1960.13  10
   1  -4  -4 22285.2 1950.46  23
   1  -4  -3 38495.2 2361.63   2
   1  -4  -3 37804.6 2331.79  10
   1  -4  -3 36420.4 1765.68   5
   1  -4  -2 690670. 8979.57   2
   1  -4  -2 662792. 8799.44  10
   1  -4  -2 669417. 7501.54   5
   1  -4  -1 136018. 3545.20   2
   1  -4  -1 129118. 3419.54  10
   1  -4  -1 131877. 3309.74   5
   1  -4   0 7317.05 729.396   2
   1  -4   0 7853.96 346.962  14
   1  -4   0 7086.56 800.559   5
   1  -4   1 79368.6 1972.86   2
   1  -4   1 81026.0 2613.30   5
   1  -4   1 83675.7 2466.65  22
   1  -4   2 30804.8 769.225   2
   1  -4   2 32162.7 1447.26  22
   1  -4   3 188699. 3412.12  22
   1  -4   4 127117. 3047.46   9
   1  -4   4 121897. 2817.17  22
   1  -4   5 8854.05 890.435   9
   1  -4   6 249397. 5000.11   9
   1  -4   6 249881. 4833.45   7
   1  -4   7 407406. 6994.75   9
   1  -4   7 393340. 6713.04   7
   1  -4   8 16535.0 1577.76   9
   1  -4   8 16950.8 1550.47   7
   1  -4   9 231141. 6304.35   9
   1  -4   9 215106. 6027.13   7
   1  -4  10 14116.3 798.668  37
   1  -4  10 16332.1 996.108  36
   1  -4  10 14531.8 1745.14   9
   1  -4  10 16206.1 1807.27   7
   1  -4  11 67898.7 1861.11  37
   1  -4  11 72543.3 2164.77  36
   1  -4  12 148469. 2813.11  37
   1  -4  12 152460. 3133.14  36
   1  -4  13 10544.6 720.795  37
   1  -4  13 12958.4 957.366  36
   1  -4  14 31063.0 1322.37  36
   1  -4  14 14783.2 753.817  37
   1  -3 -10 41664.4 2914.62  24
   1  -3  -8 2639.81 428.874  14
   1  -3  -8 2752.36 852.292  10
   1  -3  -7 94113.6 4760.36   2
   1  -3  -7 93753.0 4607.61  10
   1  -3  -7 89078.0 4234.12  23
   1  -3  -6 59399.4 3540.29   2
   1  -3  -6 56969.9 3473.27  10
   1  -3  -6 54930.4 3234.51  23
   1  -3  -5 40953.8 2789.35  10
   1  -3  -5 42464.8 2650.05  23
   1  -3  -5 43167.6 2775.91   2
   1  -3  -4 200011. 5575.36  10
   1  -3  -4 205602. 3858.91   5
   1  -3  -4 191450. 5237.03  23
   1  -3  -4 213493. 5579.86   2
   1  -3  -3 182967. 4813.18  10
   1  -3  -3 172842. 4593.52  23
   1  -3  -3 181093. 3572.19   5
   1  -3  -3 184490. 4666.55   2
   1  -3  -2 282395. 4375.87   5
   1  -3  -2 286088. 5353.68  10
   1  -3  -2 294322. 5450.85  23
   1  -3  -2 291881. 5146.74   2
   1  -3  -1 920280. 8265.40  10
   1  -3  -1 935419. 7759.91   5
   1  -3  -1 927830. 8011.02   2
   1  -3   0 506471. 5725.25   5
   1  -3   0 496006. 4923.49   2
   1  -3   1 3564.86 331.597   2
   1  -3   1 3136.74 507.701   5
   1  -3   2 44383.7 1782.43   5
   1  -3   3 31960.8 1267.89  22
   1  -3   4 100568. 2523.00   9
   1  -3   4 97171.6 2340.84   7
   1  -3   5 395639. 5597.38   9
   1  -3   5 395681. 5340.02   7
   1  -3   6 73314.9 2677.07   9
   1  -3   6 75584.2 2639.85   7
   1  -3   7 373625. 6610.20   7
   1  -3   7 376749. 6752.11   9
   1  -3   8 159661. 4806.92   7
   1  -3   8 161625. 4907.26   9
   1  -3   9 23586.5 1099.46  36
   1  -3   9 22946.9 2050.25   9
   1  -3   9 24151.2 2071.87   7
   1  -3  10 132026. 2613.70  37
   1  -3  10 139032. 2848.44  36
   1  -3  10 137851. 5359.17   9
   1  -3  10 136514. 5303.96   7
   1  -3  11 34097.1 1390.56  37
   1  -3  11 33587.1 1453.56  36
   1  -3  12 49179.9 1666.95  37
   1  -3  12 50750.3 1734.48  36
   1  -3  13 63786.6 1781.61  37
   1  -3  13 74203.9 1949.05  36
   1  -3  14 42288.3 1279.14  36
   1  -3  14 13108.5 700.178  37
   1  -3  15 13380.4 520.454  37
   1  -2 -10 572.552 224.086  14
   1  -2  -9 75906.8 2118.16  14
   1  -2  -9 72580.0 4130.34  10
   1  -2  -8 58519.2 3806.43   2
   1  -2  -8 53806.4 3588.45  10
   1  -2  -8 52802.9 3159.53  23
   1  -2  -7 36991.7 2887.02  10
   1  -2  -7 37456.4 2610.43  23
   1  -2  -7 39230.3 2914.46   2
   1  -2  -6 175701. 2327.31  15
   1  -2  -6 184102. 6001.37  10
   1  -2  -6 172345. 5381.54  23
   1  -2  -6 181181. 5772.87   2
   1  -2  -5 36516.6 999.500  15
   1  -2  -5 38596.6 2613.64  10
   1  -2  -5 35504.6 2249.87  23
   1  -2  -5 38202.0 2412.04   2
   1  -2  -4 65775.3 1240.26  15
   1  -2  -4 60970.0 2703.09  23
   1  -2  -4 66739.8 2089.29   5
   1  -2  -4 66492.3 3067.94  10
   1  -2  -3 214766. 2074.76  15
   1  -2  -3 212663. 3603.57   5
   1  -2  -3 212879. 4888.15  10
   1  -2  -3 217601. 4536.19  23
   1  -2  -2 36095.0 775.197  15
   1  -2  -2 35196.8 1403.48   5
   1  -2  -2 32189.7 1640.75  10
   1  -2  -2 32820.0 1564.53  23
   1  -2  -1 524478. 2720.96  15
   1  -2  -1 526297. 5445.02  10
   1  -2   0 94439.0 2173.53   5
   1  -2   1 43179.8 1487.80   5
   1  -2   2 140175. 2795.43   5
   1  -2   3 300824. 3704.85   9
   1  -2   3 308774. 3435.73   7
   1  -2   4 16828.0 967.858   7
   1  -2   4 18151.9 1050.23   9
   1  -2   5 342113. 5020.00   7
   1  -2   5 341282. 5156.18   9
   1  -2   6 615550. 7744.76   7
   1  -2   6 597296. 7751.71   9
   1  -2   7 20380.2 1611.10   7
   1  -2   7 19584.0 1583.55   9
   1  -2   8 303955. 6899.03   7
   1  -2   8 297632. 6783.28   9
   1  -2   9 27667.7 2298.44   7
   1  -2   9 30278.9 1239.25  37
   1  -2   9 31544.9 1264.12  36
   1  -2   9 28950.8 2356.47   9
   1  -2  10 42515.6 3070.77   7
   1  -2  10 40056.8 1516.75  37
   1  -2  10 39217.1 1518.86  36
   1  -2  10 41041.2 2973.36   9
   1  -2  11 158768. 3068.39  37
   1  -2  11 158107. 3052.75  36
   1  -2  12 30654.9 1314.19  37
   1  -2  12 36845.4 1402.07  36
   1  -2  13 7660.29 623.232  37
   1  -2  13 27930.3 1255.93  36
   1  -2  14 50401.1 1289.12  37
   1  -1 -11 60622.9 1769.92  14
   1  -1 -11 60638.7 3657.90  24
   1  -1  -9 6877.85 1334.76   2
   1  -1  -9 5252.10 1213.98  10
   1  -1  -8 155855. 2336.90  15
   1  -1  -8 150992. 5892.21  10
   1  -1  -8 150352. 5094.29  23
   1  -1  -8 159096. 6000.23   2
   1  -1  -7 140601. 2134.38  15
   1  -1  -7 137782. 5371.75  10
   1  -1  -7 137115. 4695.93  23
   1  -1  -7 146149. 5294.14   2
   1  -1  -6 5567.50 408.487  15
   1  -1  -6 6117.73 1148.42  10
   1  -1  -6 6058.37 961.325  23
   1  -1  -5 247205. 2429.78  15
   1  -1  -5 255619. 4121.99   5
   1  -1  -5 253728. 6267.26  10
   1  -1  -4 277084. 2340.77  15
   1  -1  -4 270617. 1940.80  13
   1  -1  -4 277000. 4075.60   5
   1  -1  -3 24090.4 629.308  15
   1  -1  -3 22763.4 531.433  13
   1  -1  -3 23152.0 1119.90   5
   1  -1  -3 23275.1 1456.32  10
   1  -1  -2 61447.9 902.237  15
   1  -1  -2 63183.2 1725.16   5
   1  -1  -1 109722. 2138.79   5
   1  -1   0 338705. 3571.02   5
   1  -1   1 455929. 4077.52   5
   1  -1   2 55.1143 84.1708   7
   1  -1   2 745.667 202.668   5
   1  -1   3 81925.5 1825.97   7
   1  -1   3 80161.9 1881.40   9
   1  -1   4 433894. 5146.53   7
   1  -1   4 448469. 5229.88   9
   1  -1   4 440510. 6189.25  21
   1  -1   5 136583. 3384.72   7
   1  -1   5 136306. 3378.85   9
   1  -1   6 200112. 4698.31   7
   1  -1   6 198217. 4624.98   9
   1  -1   7 47399.2 2583.16   7
   1  -1   7 47572.4 2561.93   9
   1  -1   8 63104.0 3292.76   7
   1  -1   8 60768.2 3195.08   9
   1  -1   9 150763. 5577.27   7
   1  -1   9 145286. 2812.34  37
   1  -1   9 139804. 2676.55  36
   1  -1  10 55584.0 1800.43  37
   1  -1  10 53767.0 1717.57  36
   1  -1  11 33521.3 1425.40  37
   1  -1  11 34559.8 1372.68  36
   1  -1  12 95543.3 2284.24  37
   1  -1  12 95586.4 2119.26  36
   1  -1  13 20956.0 959.390  37
   1  -1  14 18747.4 722.888  37
   1   0 -11 16864.6 2007.93  24
   1   0 -10 124658. 5464.91  10
   1   0  -9 21466.4 889.383  15
   1   0  -9 19070.0 2149.39  10
   1   0  -9 21081.5 2257.59   2
   1   0  -8 33596.8 1079.26  15
   1   0  -8 33550.6 2725.44  10
   1   0  -8 34881.2 2656.88   2
   1   0  -7 147686. 2119.81  15
   1   0  -7 152845. 5359.23  10
   1   0  -7 142938. 4433.64  23
   1   0  -6 56409.1 1209.75  15
   1   0  -6 56087.4 1075.11  13
   1   0  -6 54443.4 1989.94   5
   1   0  -6 54256.5 2968.33  10
   1   0  -6 50035.4 2425.98  23
   1   0  -5 5378.53 323.301  13
   1   0  -5 5139.61 594.355   5
   1   0  -5 5467.57 910.181  10
   1   0  -5 4943.88 688.145  23
   1   0  -4 518531. 2926.17  13
   1   0  -4 516872. 5485.48   5
   1   0  -4 517428. 7147.55  10
   1   0  -3 115491. 2416.82   5
   1   0  -3 118297. 1291.94  13
   1   0  -3 119688. 2885.80  10
   1   0  -2 580831. 4965.96   5
   1   0  -1 716554. 5053.66   5
   1   0   0 96846.2 1703.10   5
   1   0   1 465045. 3352.74   5
   1   0   1 469909. 2789.69   9
   1   0   2 317376. 3271.97   7
   1   0   2 317048. 2488.88   5
   1   0   2 315169. 3204.34   9
   1   0   3 27498.3 1215.36   7
   1   0   3 27968.2 1198.55   9
   1   0   3 29528.1 1284.55   3
   1   0   3 28804.7 1482.60  21
   1   0   4 365721. 5226.73   7
   1   0   4 353081. 5004.03   9
   1   0   4 354957. 4934.64   3
   1   0   5 142418. 3780.52   7
   1   0   5 139102. 3638.60   9
   1   0   5 134258. 3293.97   3
   1   0   6 8348.77 1072.10   7
   1   0   6 8026.76 1021.13   9
   1   0   7 120372. 4416.27   7
   1   0   7 115304. 4186.25   9
   1   0   8 15203.4 872.042  37
   1   0   8 14151.6 1660.24   7
   1   0   9 5036.63 545.976  37
   1   0   9 5189.55 520.310  36
   1   0   9 5448.92 1145.23   7
   1   0   9 4414.90 454.168  30
   1   0  10 157554. 3032.37  37
   1   0  10 139104. 2601.19  36
   1   0  11 23399.3 1162.06  37
   1   0  11 36395.9 1335.51  36
   1   0  12 27305.7 1178.79  37
   1   0  13 87791.2 1772.63  37
   1   0  14 1656.74 208.507  37
   1   1 -12 50644.3 3193.62  24
   1   1 -10 29137.8 1052.83  15
   1   1 -10 27085.6 2544.84  10
   1   1 -10 27993.7 2590.00   2
   1   1  -9 95887.2 1887.90  15
   1   1  -9 93057.4 4550.74  10
   1   1  -9 96977.3 4585.99   2
   1   1  -8 10588.6 1482.09  10
   1   1  -7 41166.6 1052.65  13
   1   1  -7 38847.2 1791.92   5
   1   1  -7 39782.9 2589.08  10
   1   1  -6 132313. 1837.76  13
   1   1  -6 131156. 3187.64   5
   1   1  -5 291093. 4500.98   5
   1   1  -5 295203. 5513.59  10
   1   1  -4 17968.6 1075.45   5
   1   1  -4 20308.7 1231.54  10
   1   1  -3 369314. 4488.92   5
   1   1  -3 370729. 4314.83  10
   1   1  -2 160926. 2740.56   5
   1   1  -1 67330.4 1619.73   5
   1   1   0 550466. 4006.79   5
   1   1   0 568911. 4530.96   3
   1   1   1 6968.45 366.038   5
   1   1   1 7263.32 634.265   3
   1   1   1 7102.10 439.037   9
   1   1   2 246559. 4039.77   3
   1   1   2 227057. 3209.28   9
   1   1   3 337078. 5243.08   3
   1   1   3 329759. 4598.96   9
   1   1   3 336392. 2940.92   8
   1   1   4 9259.50 960.918   3
   1   1   4 8973.03 900.011   9
   1   1   5 488652. 7769.62   7
   1   1   5 471581. 7227.63   3
   1   1   6 159707. 4933.80   7
   1   1   6 157776. 4387.60   3
   1   1   7 21585.9 2018.87   7
   1   1   8 42713.3 1504.02  37
   1   1   8 39458.0 2928.46   7
   1   1   8 34954.9 1192.80  36
   1   1   8 38123.5 1322.36  30
   1   1   9 71272.0 1753.12  36
   1   1   9 73546.8 1915.99  30
   1   1  10 30359.2 1332.15  37
   1   1  10 37078.0 1309.27  36
   1   1  11 106193. 2354.61  37
   1   1  12 37747.2 1261.73  37
   1   1  13 18994.6 711.210  37
   1   2 -12 513.529 427.660  24
   1   2 -11 35998.8 2786.10  10
   1   2 -11 37617.1 2856.45  24
   1   2 -10 10692.1 650.118  15
   1   2 -10 9924.11 1502.24  10
   1   2 -10 10560.7 1533.10   2
   1   2  -9 70055.9 3738.68  10
   1   2  -8 239230. 2858.21  13
   1   2  -8 242045. 4802.25   5
   1   2  -8 244906. 6431.78  10
   1   2  -7 101003. 3062.94   5
   1   2  -7 101643. 3724.11  10
   1   2  -6 26320.6 1521.06   5
   1   2  -6 25316.0 1662.13  10
   1   2  -5 499363. 6358.60   5
   1   2  -5 504654. 6324.85  10
   1   2  -5 493267. 4968.21   6
   1   2  -4 38706.3 1695.47   5
   1   2  -4 39717.2 803.667  18
   1   2  -4 37832.1 1428.02   6
   1   2  -4 38787.6 1452.30  10
   1   2  -3 199636. 3271.21   6
   1   2  -3 206612. 3678.61   5
   1   2  -2 11794.7 442.413  19
   1   2  -2 12454.8 851.062   6
   1   2  -1 6596.97 406.549   1
   1   2  -1 7400.31 570.273   3
   1   2   0 202856. 3524.61   3
   1   2   1 212146. 2232.90   5
   1   2   1 233121. 4320.29   3
   1   2   2 4580.56 718.739   3
   1   2   2 4743.81 486.450   8
   1   2   3 179871. 4493.04   3
   1   2   4 371124. 6872.95   3
   1   2   5 56255.3 2897.47   7
   1   2   5 54237.0 2759.34   3
   1   2   6 293121. 7206.07   7
   1   2   6 285656. 6584.59   3
   1   2   7 59438.0 1683.64  37
   1   2   7 59553.6 3513.47   7
   1   2   7 54651.2 1568.65  30
   1   2   8 16493.2 947.937  37
   1   2   8 17422.9 851.545  36
   1   2   8 17740.2 2041.16   7
   1   2   8 15635.9 891.806  30
   1   2   8 14627.0 817.969  51
   1   2   9 152228. 2892.16  37
   1   2   9 146998. 2608.12  51
   1   2  10 17372.5 965.295  37
   1   2  11 32484.5 1199.45  37
   1   2  12 81171.3 1583.21  37
   1   3 -11 256.134 138.444  15
   1   3 -11-27.7343 244.353  24
   1   3 -10 105659. 2078.76  13
   1   3 -10 110341. 4505.07  10
   1   3  -9 58921.7 3096.53  10
   1   3  -8 24192.4 1656.17   5
   1   3  -8 24626.7 1835.28  10
   1   3  -7 296106. 5646.24   5
   1   3  -7 299647. 5672.35  10
   1   3  -6 126281. 3213.55   6
   1   3  -6 131761. 3648.07   5
   1   3  -6 125291. 3190.89  10
   1   3  -5 227895. 2278.31  18
   1   3  -5 226689. 4620.08   5
   1   3  -5 219233. 3514.26  10
   1   3  -5 215987. 3334.10  24
   1   3  -5 219403. 4280.20   6
   1   3  -4 360678. 2741.31  18
   1   3  -4 359879. 5364.77   6
   1   3  -3 67112.7 1152.88  18
   1   3  -3 66946.2 2298.60   6
   1   3  -2 72136.5 1162.40  19
   1   3  -2 69712.0 1172.39  18
   1   3  -2 70096.3 2368.10   6
   1   3  -2 66086.8 1676.04   1
   1   3  -2 69001.9 1818.17   3
   1   3  -1 472438. 2771.54  19
   1   3  -1 454549. 5664.15   3
   1   3   0 67704.8 2501.02   3
   1   3   0 66283.0 2131.98   8
   1   3   1 28723.7 1809.59   3
   1   3   1 25272.3 1336.52   8
   1   3   1 26625.7 1431.13  21
   1   3   2 211382. 5185.95   3
   1   3   2 210233. 3688.10   8
   1   3   3 17026.3 1569.04   3
   1   3   4 252931. 6270.50   3
   1   3   5 87125.9 3807.88   3
   1   3   6 16760.5 1862.09   7
   1   3   6 15200.7 819.728  30
   1   3   6 14346.5 1598.45   3
   1   3   7 53046.7 1622.08  37
   1   3   7 53717.1 3469.38   7
   1   3   7 51652.4 1601.10  30
   1   3   7 53470.0 1591.47  51
   1   3   8 33429.9 1320.86  37
   1   3   8 31339.7 1288.69  30
   1   3   8 33123.9 1287.40  51
   1   3   9 27771.1 1189.21  37
   1   3   9 25760.7 1093.51  51
   1   3  10 57118.0 1592.98  37
   1   3  11 3353.62 352.384  37
   1   3  12 25788.1 699.968  37
   1   4 -12 47478.3 1374.06  15
   1   4 -11 56664.6 1605.96  13
   1   4 -10 22078.1 1027.07  19
   1   4  -9 236326. 5622.08   5
   1   4  -8 86714.6 1809.30  18
   1   4  -8 86574.7 3396.33   5
   1   4  -8 87849.3 3025.80  10
   1   4  -7 85099.4 1708.60  18
   1   4  -7 85175.9 3292.78   5
   1   4  -7 83921.3 2579.21  10
   1   4  -7 87282.8 3008.07   8
   1   4  -7 83640.1 2991.93   6
   1   4  -6 277421. 2953.89  18
   1   4  -6 278062. 5519.70   6
   1   4  -6 283357. 3938.94  10
   1   4  -6 280002. 5468.73   8
   1   4  -5 16402.9 685.291  18
   1   4  -5 15760.9 1300.24   6
   1   4  -4 542700. 3782.69  18
   1   4  -4 550395. 7452.13   6
   1   4  -3 23613.9 1234.59   1
   1   4  -3 26063.4 815.851  18
   1   4  -3 25432.7 1632.80   6
   1   4  -3 24597.2 1148.94   3
   1   4  -2 25200.9 734.939  19
   1   4  -2 25593.0 1436.42   3
   1   4  -2 27139.1 1660.81   6
   1   4  -2 26336.0 1576.32   8
   1   4  -1 442635. 2848.67  19
   1   4  -1 446437. 6320.86   8
   1   4   0 590233. 8496.38   3
   1   4   0 581182. 7162.54   8
   1   4   1 159066. 4734.27   3
   1   4   1 163384. 3711.94   8
   1   4   2 364601. 7503.44   3
   1   4   3 199553. 5799.72   3
   1   4   4 51790.2 3045.08   3
   1   4   5 292816. 7442.85   3
   1   4   6 12345.3 746.707  37
   1   4   6 11953.5 1649.23   7
   1   4   6 11693.5 763.679  30
   1   4   6 11866.1 1520.96   3
   1   4   7 13038.3 800.289  37
   1   4   7 13443.0 858.278  30
   1   4   7 12039.1 796.908  51
   1   4   8 131382. 2497.33  37
   1   4   8 134671. 2583.45  51
   1   4   8 135314. 2657.12  30
   1   4   9 19798.6 925.112  37
   1   4   9 19812.8 915.661  51
   1   4  10 9146.75 560.315  37
   1   4  11 33638.2 825.518  37
   1   5 -11 100947. 2310.21  19
   1   5 -11 98111.5 2315.87  13
   1   5 -10 79213.6 2137.69  19
   1   5 -10 78428.5 3443.76   5
   1   5  -9 19117.5 950.391  18
   1   5  -9 17672.7 1675.75   5
   1   5  -9 17722.0 1878.12   1
   1   5  -8 252620. 6255.08   5
   1   5  -8 259353. 3325.91  18
   1   5  -8 245264. 6332.22   1
   1   5  -7 195815. 2790.64  18
   1   5  -7 194634. 5225.86   1
   1   5  -7 206560. 5254.11   6
   1   5  -7 206458. 5132.90   8
   1   5  -6 28463.6 1857.74   1
   1   5  -6 30820.3 1067.69  18
   1   5  -6 29120.2 1988.50   6
   1   5  -6 30521.5 1986.19   8
   1   5  -5 53333.0 1344.58  18
   1   5  -5 53364.6 2320.83   1
   1   5  -5 57269.0 2706.75   6
   1   5  -5 56552.8 2649.39   8
   1   5  -4 103533. 1797.93  18
   1   5  -4 108203. 3665.73   6
   1   5  -4 98759.6 2329.05   3
   1   5  -4 95700.0 2874.05   1
   1   5  -4 104983. 3553.16   8
   1   5  -3 72422.4 1416.65  19
   1   5  -3 74791.2 1509.73  18
   1   5  -3 79377.9 3120.90   6
   1   5  -3 70622.4 2449.93   3
   1   5  -3 75269.4 3002.47   8
   1   5  -2 313464. 2752.54  19
   1   5  -2 314734. 5855.80   3
   1   5  -2 331292. 6353.64   6
   1   5  -2 318039. 6060.70   8
   1   5  -1 69039.8 1202.91  19
   1   5  -1 74303.5 3127.00   3
   1   5  -1 74258.6 2887.61   8
   1   5   0 14042.6 1485.57   3
   1   5   0 13622.0 1231.66   8
   1   5   1 86549.0 3776.34   3
   1   5   2 8507.74 1265.95   3
   1   5   3 261642. 7081.72   3
   1   5   4 65782.7 1665.55  30
   1   5   4 65807.4 3645.33   3
   1   5   5 85370.5 1818.16  37
   1   5   5 84840.5 2062.08  54
   1   5   5 88680.0 2054.63  30
   1   5   5 86934.0 4233.48   3
   1   5   6 107382. 2127.87  37
   1   5   6 111239. 2389.90  30
   1   5   6 108904. 4627.48   3
   1   5   7 87446.4 1944.83  37
   1   5   7 87894.1 2121.81  51
   1   5   7 89474.9 2153.50  30
   1   5   8 22895.5 951.457  37
   1   5   8 21476.4 990.280  51
   1   5   8 23525.6 1070.87  30
   1   5   9 50447.0 1261.05  37
   1   5   9 50530.2 1307.01  51
   1   5  10 3582.61 267.949  37
   1   6 -12 40233.0 1491.41  13
   1   6 -11 27495.0 1319.28  19
   1   6 -10 135874. 2745.91  18
   1   6 -10 136027. 5520.12   1
   1   6 -10 127375. 4762.00   5
   1   6  -9 48848.0 1608.28  18
   1   6  -9 48073.7 2958.44   5
   1   6  -9 50079.1 3136.75   1
   1   6  -8 23974.4 1089.99  18
   1   6  -8 21753.3 1949.84   1
   1   6  -8 22384.2 1892.61   6
   1   6  -8 25566.7 1919.88   8
   1   6  -7 271860. 6366.55   1
   1   6  -7 280195. 3569.39  18
   1   6  -7 285157. 6728.00   6
   1   6  -7 286921. 6609.38   8
   1   6  -6 32046.5 1153.14  18
   1   6  -6 31328.0 2217.23   6
   1   6  -6 31287.6 2208.22   8
   1   6  -6 29151.5 1975.15   1
   1   6  -5 199829. 2781.62  18
   1   6  -5 204714. 5513.17   6
   1   6  -5 199181. 5408.46   8
   1   6  -4 250757. 2904.24  19
   1   6  -4 265751. 3125.99  18
   1   6  -4 260987. 4742.46   3
   1   6  -4 256676. 6043.84   8
   1   6  -3 39376.4 1084.42  19
   1   6  -3 43641.0 2517.06   6
   1   6  -3 41033.7 2180.14   3
   1   6  -3 41341.2 2435.18   8
   1   6  -2 242965. 2500.32  19
   1   6  -2 244017. 5782.36   3
   1   6  -1 302298. 6849.11   3
   1   6  -1 316888. 6384.21   8
   1   6   0 1770.55 626.073   3
   1   6   1 62615.3 3420.01   3
   1   6   2 35851.9 2684.25   3
   1   6   3 49477.0 1503.98  54
   1   6   3 50351.9 1450.61  30
   1   6   3 49364.7 3245.90   3
   1   6   4 137712. 2652.15  54
   1   6   4 134556. 2519.22  30
   1   6   4 137963. 5492.66   3
   1   6   5 77108.8 2039.57  54
   1   6   5 77870.8 1967.76  30
   1   6   6 7982.41 653.644  30
   1   6   7 83959.4 1998.82  51
   1   6   7 85843.7 2018.69  30
   1   6   8 20597.6 880.271  51
   1   6   9 22603.8 718.679  51
   1   7 -13 1182.91 263.534  13
   1   7 -12 65944.7 2016.83  19
   1   7 -12 67363.0 2030.88  13
   1   7 -11 16160.5 1073.42  19
   1   7 -11 17048.0 1009.86  18
   1   7 -10 19160.6 1084.66  18
   1   7 -10 20415.4 2053.72   5
   1   7 -10 18261.2 2064.28   1
   1   7  -9 81731.1 2176.19  18
   1   7  -9 80032.7 4091.27   5
   1   7  -9 81171.2 4057.09   1
   1   7  -8 12076.4 825.441  18
   1   7  -8 12344.1 1493.87   6
   1   7  -8 12761.3 1544.50   1
   1   7  -8 12276.8 1441.15   8
   1   7  -7 97258.2 2247.28  18
   1   7  -7 98468.2 4229.26   6
   1   7  -7 93199.5 3879.84   1
   1   7  -7 102591. 4222.71   8
   1   7  -6 201735. 3099.19  18
   1   7  -6 202760. 5975.78   6
   1   7  -6 195862. 5782.38   8
   1   7  -5 5199.57 482.541  19
   1   7  -5 5517.98 533.975  18
   1   7  -5 5503.40 1032.59   6
   1   7  -5 5224.56 1003.95   8
   1   7  -4 61544.6 1489.56  19
   1   7  -4 66087.2 3374.51   6
   1   7  -4 61700.9 2666.91   3
   1   7  -4 64478.3 3253.15   8
   1   7  -3 307791. 3104.09  19
   1   7  -3 306983. 6590.48   3
   1   7  -3 318553. 7112.52   8
   1   7  -2 2992.36 741.136   3
   1   7  -2 2765.10 723.145   8
   1   7  -1 276495. 6975.18   3
   1   7   0 160984. 5591.82   3
   1   7   1 6571.95 1218.45   3
   1   7   2 111279. 2158.40  30
   1   7   2 113814. 5034.50   3
   1   7   2 112088. 2326.35  54
   1   7   3 13710.7 852.970  54
   1   7   3 13463.0 799.427  30
   1   7   3 12228.3 1682.42   3
   1   7   4 8047.15 674.959  54
   1   7   4 8538.34 649.850  30
   1   7   5 28069.6 1170.83  30
   1   7   6 39139.7 1330.93  30
   1   7   6 39295.2 1384.44  51
   1   7   7 9907.11 634.490  30
   1   7   7 9949.58 633.428  51
   1   7   8 59387.0 1234.48  51
   1   8 -12 1463.25 342.474  19
   1   8 -11 70229.3 2228.29  19
   1   8 -11 68437.6 2086.41  18
   1   8 -10 38759.9 1649.17  19
   1   8 -10 37197.7 1547.92  18
   1   8 -10 37742.5 2932.40   5
   1   8 -10 38152.7 2971.95   1
   1   8  -9 63916.1 2058.15  19
   1   8  -9 62703.7 1982.87  18
   1   8  -9 62346.6 3516.52   6
   1   8  -8 242414. 3822.52  18
   1   8  -8 230368. 6877.83   6
   1   8  -7 27975.6 1255.30  19
   1   8  -7 28900.4 1302.00  18
   1   8  -7 26891.4 2340.80   6
   1   8  -7 28534.9 2338.65   8
   1   8  -6 183229. 2982.84  19
   1   8  -6 190748. 3222.20  18
   1   8  -6 188181. 6132.38   6
   1   8  -6 186399. 5948.52   8
   1   8  -5 63474.5 1656.68  19
   1   8  -5 63740.4 3442.41   8
   1   8  -5 64215.3 3557.38   6
   1   8  -4 36486.2 1185.02  19
   1   8  -4 39370.8 2756.82   6
   1   8  -4 40638.7 2388.66   3
   1   8  -4 38939.8 2644.94   8
   1   8  -3 121071. 1986.43  19
   1   8  -3 120565. 4445.33   3
   1   8  -2 104497. 4348.69   3
   1   8  -1 1067.13 529.165   3
   1   8   0 167464. 2818.36  54
   1   8   0 160089. 2494.62  53
   1   8   0 161005. 2439.85  30
   1   8   0 170125. 6047.15   3
   1   8   0 164849. 2726.23  41
   1   8   1 79351.3 2005.07  54
   1   8   1 79792.7 1774.74  53
   1   8   1 77231.4 1785.66  30
   1   8   2 17885.9 989.196  54
   1   8   2 18849.6 924.579  30
   1   8   2 19810.3 2158.30   3
   1   8   3 116171. 2510.69  54
   1   8   3 111875. 2279.88  30
   1   8   4 21949.1 1091.45  54
   1   8   4 21807.0 1007.89  30
   1   8   5 1479.53 281.756  30
   1   8   6 49753.4 1390.05  51
   1   8   6 49076.4 1326.69  30
   1   8   7 1499.31 223.619  51
   1   9 -12 33709.0 1481.96  19
   1   9 -12 30958.0 1348.26  18
   1   9 -11 22386.0 1249.80  19
   1   9 -11 22282.0 1208.71  18
   1   9 -10 115616. 2830.12  19
   1   9 -10 113346. 2753.79  18
   1   9  -9 19525.0 1154.03  19
   1   9  -9 19384.5 1142.97  18
   1   9  -9 19047.9 2021.49   6
   1   9  -8 107364. 2570.61  19
   1   9  -8 111901. 2707.64  18
   1   9  -7 181946. 3201.43  19
   1   9  -7 185441. 3413.08  18
   1   9  -7 179600. 6390.50   6
   1   9  -6 2505.20 371.477  19
   1   9  -6 3566.84 402.418  54
   1   9  -6 2848.40 837.989   6
   1   9  -6 2245.96 319.680  41
   1   9  -5 7708.10 602.057  19
   1   9  -5 8748.36 632.033  54
   1   9  -4 115377. 2103.89  19
   1   9  -4 109916. 2235.04  54
   1   9  -4 109662. 2153.55  41
   1   9  -3 1659.57 299.846  54
   1   9  -3 2564.15 372.041  53
   1   9  -3 2113.07 320.613  41
   1   9  -3 1805.49 591.037   3
   1   9  -2 78267.7 3946.47   3
   1   9  -2 80219.1 1863.55  53
   1   9  -2 81640.6 1998.80  54
   1   9  -2 80521.4 1922.34  41
   1   9  -1 76652.2 1976.33  54
   1   9  -1 73267.9 1796.80  53
   1   9  -1 72447.1 1621.83  30
   1   9  -1 72628.6 3967.40   3
   1   9  -1 75787.1 1908.07  41
   1   9   0 9159.16 706.854  54
   1   9   0 9481.84 620.251  30
   1   9   0 10284.3 1532.19   3
   1   9   0 9212.02 641.765  53
   1   9   1 126576. 2604.45  54
   1   9   1 124459. 2302.38  53
   1   9   1 120818. 2263.62  30
   1   9   2 46742.7 1605.61  54
   1   9   2 45375.9 1407.51  30
   1   9   3 18327.4 989.643  54
   1   9   3 17412.4 860.649  30
   1   9   4 41310.2 1254.37  30
   1   9   5 30961.0 1092.62  51
   1   9   5 30370.7 980.248  30
   1   9   6 11208.6 552.243  51
   1  10 -12 93674.7 2380.83  19
   1  10  -9 154701. 3146.92  19
   1  10  -8 1647.37 353.537  19
   1  10  -8 1449.31 285.151  54
   1  10  -8 2376.14 805.482   6
   1  10  -7 46801.2 1608.08  19
   1  10  -7 47013.6 1523.83  54
   1  10  -6 12475.4 805.153  19
   1  10  -6 11978.5 781.939  54
   1  10  -6 11892.0 727.612  41
   1  10  -5 6343.87 579.721  54
   1  10  -5 6600.88 552.726  41
   1  10  -4 64460.5 1802.22  53
   1  10  -4 62700.4 1710.47  41
   1  10  -4 66667.7 1850.63  54
   1  10  -3 119006. 2484.04  54
   1  10  -3 117304. 2393.06  53
   1  10  -3 119653. 4750.92   3
   1  10  -3 120059. 2404.15  41
   1  10  -2 215.018 180.359  54
   1  10  -2-232.868 240.718  53
   1  10  -2-102.123 175.133  41
   1  10  -2 137.751 328.416   3
   1  10  -1 119022. 2532.45  54
   1  10  -1 118774. 2365.24  53
   1  10   0 97098.4 2289.71  54
   1  10   0 94105.8 2057.27  53
   1  10   0 96376.4 1914.00  30
   1  10   1 7112.00 630.047  54
   1  10   1 6827.47 532.630  53
   1  10   1 6769.33 514.363  30
   1  10   2 69802.5 1869.01  54
   1  10   2 68824.2 1586.48  30
   1  10   3 11193.4 728.175  54
   1  10   3 10859.7 600.262  30
   1  10   4 6018.91 405.134  30
   1  10   4 6359.71 493.335  51
   1  10   5 60780.3 1210.17  51
   1  11 -11 61071.8 1903.54  19
   1  11 -10 1352.66 330.412  19
   1  11 -10 851.781 217.009  54
   1  11  -9 86391.2 2258.48  19
   1  11  -9 90482.9 2102.70  54
   1  11  -8 75025.1 2054.91  19
   1  11  -8 76313.4 1971.79  54
   1  11  -7 7463.26 656.017  19
   1  11  -7 4383.43 489.462  54
   1  11  -6 29537.5 1247.53  54
   1  11  -6 29008.6 1148.10  41
   1  11  -5 63958.4 1860.80  53
   1  11  -5 66680.1 1881.17  54
   1  11  -5 66060.5 1761.41  41
   1  11  -4 703.851 286.332  53
   1  11  -4 659.443 227.391  54
   1  11  -4 505.375 201.945  41
   1  11  -3 59762.4 1776.12  54
   1  11  -3 57342.8 1707.27  53
   1  11  -2 28497.7 1231.86  54
   1  11  -2 29585.1 1200.54  53
   1  11  -1 2554.27 402.510  54
   1  11  -1 2319.25 344.578  53
   1  11   0 59308.0 1536.49  53
   1  11   0 60226.6 1756.03  54
   1  11   1 11367.9 749.922  54
   1  11   1 10891.9 598.851  53
   1  11   2 11094.7 688.292  54
   1  11   2 10881.3 525.077  30
   1  11   3 32390.7 1010.95  51
   1  11   4 12118.5 511.437  51
   1  12 -10 59859.5 1572.63  54
   1  12  -9 10516.9 769.270  19
   1  12  -9 4374.60 458.231  54
   1  12  -8 89144.3 2047.53  19
   1  12  -8 86883.0 2049.16  54
   1  12  -7 96913.2 2203.21  54
   1  12  -7 100921. 2359.57  53
   1  12  -6 18993.2 985.138  54
   1  12  -6 19974.2 924.890  41
   1  12  -6 20477.9 1079.05  53
   1  12  -5 87108.2 2097.03  54
   1  12  -5 85139.4 2116.62  53
   1  12  -4 80111.7 1996.48  54
   1  12  -4 77328.3 1964.21  53
   1  12  -3 2524.83 373.210  54
   1  12  -3 2413.97 358.251  53
   1  12  -2 39808.3 1385.40  54
   1  12  -2 38944.1 1280.47  53
   1  12  -1 12498.1 763.772  54
   1  12  -1 11648.1 660.856  53
   1  12   0 5211.36 486.682  54
   1  12   0 4590.32 373.410  53
   1  12   1 18998.9 803.713  54
   1  12   2 7082.26 434.102  51
   1  12   3 1601.85 172.702  51
   1  13 -14 5300.49 330.496  53
   1  13 -13 17324.3 727.116  53
   1  13 -12 37560.9 1180.36  53
   1  13 -11 6414.15 582.224  53
   1  13 -10 26067.9 1133.82  53
   1  13  -9 60385.2 1499.13  54
   1  13  -9 66291.4 1815.18  53
   1  13  -8 3748.85 414.586  54
   1  13  -8 6500.08 652.852  53
   1  13  -7 8979.40 632.135  54
   1  13  -7 11117.1 773.094  53
   1  13  -6 49012.1 1450.32  54
   1  13  -6 47883.0 1517.20  53
   1  13  -5 7132.69 565.096  54
   1  13  -5 6308.01 557.011  53
   1  13  -4 115572. 2192.77  54
   1  13  -4 113895. 2185.83  53
   1  13  -3 42667.0 1310.90  54
   1  13  -3 40664.9 1227.34  53
   1  13  -2 4378.13 424.455  54
   1  13  -2 4155.20 373.175  53
   1  13  -1 36867.1 1088.05  54
   1  13  -1 34329.8 891.543  53
   1  13   1 3125.63 249.862  51
   1  14 -13 8079.01 406.002  53
   1  14 -12 10473.7 550.845  53
   1  14 -11 40388.8 1150.43  53
   1  14 -10 3671.48 432.751  53
   1  14  -9 25771.6 1006.26  53
   1  14  -8 27186.0 884.709  54
   1  14  -8 28340.9 1063.64  53
   1  14  -7 6415.62 457.161  54
   1  14  -7 6584.00 520.838  53
   1  14  -6 12589.4 642.032  54
   1  14  -6 13148.0 704.557  53
   1  14  -5 9558.85 579.308  53
   1  14  -5 9032.23 545.682  54
   1  14  -4 13615.0 639.875  54
   1  14  -4 13242.5 632.639  53
   1  14  -3 48976.1 1134.40  54
   1  14  -3 45495.8 1028.37  53
   1  14  -2 25495.9 751.664  54
   1  15 -11 27564.5 749.920  53
   1  15 -10 37525.4 948.324  53
   1  15  -9-129.883 183.199  53
   1  15  -8 15943.5 650.829  53
   1  15  -7 29282.0 857.615  53
   1  15  -6 84.7315 68.5557  54
   1  15  -6 154.264 106.932  53
   1  15  -5 25035.0 621.701  54
   1  15  -5 28840.6 728.971  53
   2 -15   5 244.772 99.9171  44
   2 -15   6 18781.2 636.657  44
   2 -15   7 20457.4 676.385  44
   2 -15   8 570.952 138.750  44
   2 -15   9 11317.9 468.839  44
   2 -14   2 25952.7 752.660  44
   2 -14   3 434.136 156.747  44
   2 -14   4 15056.4 702.323  44
   2 -14   5 22320.4 895.419  44
   2 -14   6 229.704 125.774  28
   2 -14   6 165.587 153.058  44
   2 -14   7 27641.6 1021.07  44
   2 -14   8 17239.7 795.236  44
   2 -14   9 630.038 194.338  44
   2 -14  10 29277.1 933.846  44
   2 -14  11 25323.0 765.465  44
   2 -13   0 26292.4 778.066  44
   2 -13   1 2038.62 277.527  44
   2 -13   2 25759.3 996.735  44
   2 -13   3 11557.1 725.424  44
   2 -13   4 3068.99 427.102  44
   2 -13   5 51944.2 1359.27  28
   2 -13   5 51270.3 1616.97  44
   2 -13   6 32882.6 1160.12  28
   2 -13   6 34995.5 1342.62  44
   2 -13   7 5007.64 489.598  28
   2 -13   7 4938.50 529.701  44
   2 -13   8 34637.8 1262.57  28
   2 -13   8 35283.4 1312.66  44
   2 -13   9 17807.3 906.837  44
   2 -13  10 2557.82 351.529  44
   2 -13  11 40312.4 1196.35  44
   2 -12  -2 22863.0 668.412  44
   2 -12  -1 1463.91 236.649  44
   2 -12   0 12139.0 699.562  44
   2 -12   1 53711.2 1584.32  44
   2 -12   2 4385.95 509.007  44
   2 -12   2 5371.05 1042.93  22
   2 -12   3 24567.8 1183.60  44
   2 -12   3 23893.7 2207.02  22
   2 -12   4 67819.1 1679.49  28
   2 -12   4 66810.8 1979.01  44
   2 -12   4 62332.5 3591.02  22
   2 -12   5 152.569 167.043  28
   2 -12   5 77.1121 194.966  44
   2 -12   5 296.888 356.750  22
   2 -12   6 94709.8 2185.10  28
   2 -12   6 94730.1 2361.27  44
   2 -12   7 28949.0 1241.83  28
   2 -12   7 30060.2 1318.36  44
   2 -12   8 9536.95 737.731  28
   2 -12   8 9524.26 743.037  44
   2 -12   8 9060.54 726.473  40
   2 -12   9 40143.6 1465.56  44
   2 -12   9 40909.2 1591.31  40
   2 -12  10 8825.09 680.225  44
   2 -12  10 12241.3 1037.85  40
   2 -12  11 9205.40 647.472  44
   2 -12  11 17966.0 1259.13  40
   2 -12  12 42495.6 1561.08  40
   2 -11  -3 302.270 117.603  32
   2 -11  -3 214.152 107.624  44
   2 -11  -2 32751.2 955.217  32
   2 -11  -2 34295.7 1091.73  44
   2 -11  -1 29460.2 977.216  32
   2 -11  -1 31363.6 1241.63  45
   2 -11   0 3873.67 478.211  45
   2 -11   0 3814.84 927.798  22
   2 -11   1 29899.3 2546.84  22
   2 -11   2 68633.7 2035.32  44
   2 -11   2 68955.9 3940.91  22
   2 -11   3 17860.8 1067.98  44
   2 -11   3 18012.0 2061.88  22
   2 -11   4 34327.4 1287.82  28
   2 -11   4 34903.4 1483.27  44
   2 -11   4 34765.7 2828.59  22
   2 -11   5 67462.1 1883.60  28
   2 -11   5 68686.0 2065.19  44
   2 -11   5 69483.5 3961.71  22
   2 -11   6 14201.0 899.074  28
   2 -11   6 15190.5 975.830  44
   2 -11   6 13718.9 1755.86  22
   2 -11   7 107867. 2466.45  28
   2 -11   7 106011. 2506.07  44
   2 -11   7 100652. 2471.52  40
   2 -11   8 23076.2 1156.92  28
   2 -11   8 22417.4 1141.47  44
   2 -11   8 23797.2 1286.78  40
   2 -11   9 28849.5 1194.04  36
   2 -11   9 30631.2 1311.73  44
   2 -11   9 30712.2 1335.24  28
   2 -11   9 31290.5 1536.65  40
   2 -11  10 99126.0 2230.90  36
   2 -11  10 101775. 2311.91  44
   2 -11  10 105101. 2766.65  40
   2 -11  11 23167.0 1073.52  36
   2 -11  11 23081.0 1062.44  44
   2 -11  12 3686.62 437.194  36
   2 -11  12 21438.2 1303.20  40
   2 -11  13 21169.6 901.163  36
   2 -11  13 41962.5 1555.33  40
   2 -11  14 3287.04 311.909  36
   2 -10  -5 7275.02 391.808  32
   2 -10  -4 24012.2 851.273  32
   2 -10  -4 24862.8 933.889  45
   2 -10  -3 47534.6 1336.37  32
   2 -10  -3 47943.5 1490.42  45
   2 -10  -2 2479.79 355.505  32
   2 -10  -2 2252.22 392.936  45
   2 -10  -2 2617.74 744.860  22
   2 -10  -1 24388.7 1062.16  32
   2 -10  -1 24992.4 1222.49  45
   2 -10  -1 23688.1 2257.64  22
   2 -10   0 69735.6 1779.81  32
   2 -10   0 70368.4 2074.17  45
   2 -10   0 69201.5 3981.93  22
   2 -10   1 3057.82 457.877  45
   2 -10   1 3204.11 908.539  22
   2 -10   2 29680.8 1337.60  45
   2 -10   2 28416.5 2623.99  22
   2 -10   3 33627.1 1235.30  28
   2 -10   3 35728.5 1489.85  44
   2 -10   3 34758.7 2881.11  22
   2 -10   4 4024.06 460.200  28
   2 -10   4 4510.74 544.229  44
   2 -10   4 3844.13 1011.99  22
   2 -10   5 118811. 2496.42  28
   2 -10   5 125186. 2729.62  44
   2 -10   5 117593. 2453.84  40
   2 -10   5 127435. 5341.58  22
   2 -10   6 46820.0 1463.14  36
   2 -10   6 47561.7 1613.07  28
   2 -10   6 51185.5 1719.87  44
   2 -10   6 46586.5 1673.28  40
   2 -10   6 51252.9 3328.64  22
   2 -10   7 90.6802 126.367  36
   2 -10   7 158.731 175.892  28
   2 -10   7 141.180 184.735  44
   2 -10   8 46114.4 1569.75  36
   2 -10   8 47908.4 1635.75  28
   2 -10   8 46911.9 1623.84  44
   2 -10   8 46825.0 1895.72  40
   2 -10   9 19794.3 1073.85  36
   2 -10   9 19705.4 1050.52  44
   2 -10   9 18128.7 1258.00  40
   2 -10  10 28324.1 1307.49  36
   2 -10  10 30490.0 1287.25  44
   2 -10  11 125268. 2739.69  36
   2 -10  11 131026. 2589.98  44
   2 -10  12 30804.1 1323.80  36
   2 -10  12 40448.4 1843.02  40
   2 -10  13 14496.2 855.399  36
   2 -10  13 32445.9 1429.83  40
   2 -10  14 53546.5 1409.32  36
   2 -10  15 3852.69 316.650  36
   2  -9  -6 5148.10 373.811  32
   2  -9  -6 5231.25 365.245  45
   2  -9  -5 59426.3 1469.76  32
   2  -9  -5 57309.7 1457.80  45
   2  -9  -4 7076.01 586.900  32
   2  -9  -4 6793.07 605.595  45
   2  -9  -3 36349.5 1456.82  45
   2  -9  -3 35818.0 2659.39  22
   2  -9  -2 85087.7 2297.56  45
   2  -9  -2 83051.0 4273.37  22
   2  -9  -1 11043.8 852.779  45
   2  -9  -1 11737.1 1694.09  22
   2  -9   0 54472.9 1638.39  32
   2  -9   0 54836.6 1854.90  45
   2  -9   0 55502.8 3633.73  22
   2  -9   1 51109.5 1507.90  32
   2  -9   1 52345.6 1774.97  45
   2  -9   1 56603.0 3645.70  22
   2  -9   2 17022.3 992.179  45
   2  -9   2 19835.9 2155.96  22
   2  -9   3 152240. 2918.68  44
   2  -9   3 158782. 5926.66  22
   2  -9   4 82632.5 1920.75  28
   2  -9   4 83731.7 2125.57  44
   2  -9   4 76394.6 1883.79  40
   2  -9   4 84121.7 4220.18  22
   2  -9   5 27240.4 1126.14  28
   2  -9   5 26587.5 1177.92  44
   2  -9   5 23748.5 1134.04  40
   2  -9   5 27094.4 2356.99  22
   2  -9   6 82035.6 1968.85  36
   2  -9   6 83269.7 2010.68  28
   2  -9   6 85708.7 2110.22  44
   2  -9   6 82058.0 2264.27  40
   2  -9   6 90498.0 4340.07   9
   2  -9   6 89184.0 4200.01  22
   2  -9   7 56802.8 1716.85  36
   2  -9   7 60658.8 1743.53  28
   2  -9   7 60329.0 1771.88  44
   2  -9   7 62379.5 3625.86   9
   2  -9   7 57661.1 2035.20  40
   2  -9   8 1046.96 283.540  36
   2  -9   8 1018.08 270.355  28
   2  -9   8 481.414 190.786  44
   2  -9   8 413.507 412.844   9
   2  -9   9 30018.1 1363.19  36
   2  -9   9 31703.5 1292.11  44
   2  -9  10 3623.52 510.813  36
   2  -9  10 3682.55 455.840  44
   2  -9  10 3783.07 735.746  40
   2  -9  11 66749.1 2098.69  36
   2  -9  11 69240.6 1898.76  44
   2  -9  11 71386.1 2383.06  40
   2  -9  12 102622. 2544.64  36
   2  -9  12 113015. 2819.32  40
   2  -9  13 8675.58 711.770  36
   2  -9  13 19574.5 1229.67  40
   2  -9  14 36995.9 1266.22  36
   2  -9  15 31252.6 943.523  36
   2  -8  -7 31450.6 858.383  45
   2  -8  -7 31702.3 878.537  47
   2  -8  -6 27392.8 1015.84  45
   2  -8  -5 16939.2 929.260  45
   2  -8  -4 81675.6 2177.43  45
   2  -8  -4 72486.4 3819.03  22
   2  -8  -3 8809.92 758.415  45
   2  -8  -3 8227.27 1371.30  22
   2  -8  -2 55195.8 1868.97  45
   2  -8  -2 53127.3 3478.59  22
   2  -8  -1 121003. 2729.32  45
   2  -8  -1 124217. 5340.87  22
   2  -8   0 90.2401 163.318  45
   2  -8   0 645.628 559.835  22
   2  -8   1 116510. 2204.75  32
   2  -8   1 125204. 2589.73  45
   2  -8   1 126182. 5191.94  22
   2  -8   2 73752.9 1908.06  45
   2  -8   2 76265.8 3958.60  22
   2  -8   3 7031.12 1189.44  22
   2  -8   4 196155. 5982.94  22
   2  -8   5 128602. 4750.71  22
   2  -8   6 2634.48 340.754  28
   2  -8   6 2570.87 345.477  44
   2  -8   6 2606.88 779.449   9
   2  -8   6 2456.40 430.977  40
   2  -8   7 98239.9 2230.04  36
   2  -8   7 101312. 2111.63  28
   2  -8   7 102253. 2147.78  44
   2  -8   7 108223. 4542.13   9
   2  -8   7 100714. 2659.92  40
   2  -8   8 69743.4 1981.22  36
   2  -8   8 71999.5 1856.70  28
   2  -8   8 73494.2 1873.17  44
   2  -8   8 78626.4 3951.85   9
   2  -8   8 72000.8 2345.72  40
   2  -8   9 10595.0 826.308  36
   2  -8   9 10876.0 744.496  44
   2  -8   9 10473.7 1519.56   9
   2  -8   9 9581.69 863.476  40
   2  -8  10 79969.8 2292.68  36
   2  -8  10 81327.7 2052.32  44
   2  -8  10 75837.3 2481.11  40
   2  -8  11 466.976 258.529  36
   2  -8  11 725.709 243.319  44
   2  -8  12 46356.8 1765.02  36
   2  -8  12 49665.5 1862.53  40
   2  -8  13 57103.0 1838.14  36
   2  -8  13 63137.6 1863.11  40
   2  -8  14-65.2769 230.949  36
   2  -8  15 16711.0 736.774  36
   2  -7  -8 4665.14 384.367  32
   2  -7  -8 3707.59 280.235  45
   2  -7  -7 16044.1 769.734  45
   2  -7  -6 93763.5 2119.88  45
   2  -7  -5 16716.6 983.620  45
   2  -7  -5 16660.1 1764.41  24
   2  -7  -5 15919.5 1808.27  22
   2  -7  -4 48271.9 1577.98  48
   2  -7  -4 46054.5 1703.25  45
   2  -7  -4 44931.6 2945.23  24
   2  -7  -4 44084.1 3112.20  22
   2  -7  -3 125201. 2592.49  48
   2  -7  -3 125897. 2804.60  45
   2  -7  -3 127081. 4838.06  24
   2  -7  -3 129326. 5335.51  22
   2  -7  -2 16113.0 922.264  48
   2  -7  -2 16550.9 1006.82  45
   2  -7  -2 16885.1 1683.51  24
   2  -7  -2 17192.8 1957.66  22
   2  -7  -1 83554.3 2151.79  45
   2  -7  -1 80742.9 4102.33  22
   2  -7   0 62388.6 3514.68  22
   2  -7   1 39322.2 2697.61  22
   2  -7   2 203229. 5840.53  22
   2  -7   3 115040. 4249.59  22
   2  -7   4 21946.4 1825.38  22
   2  -7   5 127394. 4438.22   9
   2  -7   5 127223. 4348.44  22
   2  -7   6 105211. 4081.74   9
   2  -7   7 24246.5 2035.57   9
   2  -7   8 179698. 3096.18  36
   2  -7   8 178427. 2766.72  44
   2  -7   8 184590. 5839.14   9
   2  -7   8 170773. 3520.25  40
   2  -7   9 44445.6 1649.77  36
   2  -7   9 40906.8 1394.26  44
   2  -7   9 43726.4 2943.37   9
   2  -7   9 42956.9 1814.53  40
   2  -7  10 115946. 2425.06  44
   2  -7  10 112760. 2902.66  40
   2  -7  11 184600. 3564.62  36
   2  -7  11 179407. 3557.32  40
   2  -7  12 31777.2 1463.94  36
   2  -7  12 36206.3 1517.22  40
   2  -7  13 28197.0 1313.13  36
   2  -7  13 38368.9 1330.77  40
   2  -7  14 26247.0 1113.21  36
   2  -7  15 3746.59 427.764  36
   2  -6  -9 9817.06 536.604  32
   2  -6  -8 59683.1 1363.00  45
   2  -6  -7 17836.2 906.433  45
   2  -6  -7 19550.9 1899.37  24
   2  -6  -6 42524.5 1400.22  14
   2  -6  -6 44473.3 1564.74  45
   2  -6  -6 43201.7 3032.54  24
   2  -6  -6 42521.3 2805.21  22
   2  -6  -5 83738.6 1983.29  14
   2  -6  -5 85204.3 2254.45  45
   2  -6  -5 79561.4 4193.60  24
   2  -6  -5 86422.7 4263.28  22
   2  -6  -4 10204.0 1446.83   2
   2  -6  -4 11090.9 709.741  14
   2  -6  -4 9147.60 675.064  48
   2  -6  -4 8808.97 748.561  45
   2  -6  -4 10169.1 1495.95  24
   2  -6  -3 46162.7 2861.76   2
   2  -6  -3 46617.4 1355.21  14
   2  -6  -3 44474.0 1450.31  48
   2  -6  -3 45427.8 1615.23  45
   2  -6  -3 44281.7 2938.58  24
   2  -6  -3 43155.7 2985.09  22
   2  -6  -2 162719. 2326.99  14
   2  -6  -2 159656. 5174.97  24
   2  -6  -2 158789. 5519.74  22
   2  -6  -1 33825.3 2262.63   5
   2  -6  -1 33691.1 2183.97  24
   2  -6  -1 33077.3 2445.85  22
   2  -6   0 82700.1 3549.43   5
   2  -6   0 81724.6 3075.24  24
   2  -6   0 84522.5 3706.10  22
   2  -6   1 97734.3 3784.42  22
   2  -6   2 122.616 279.095  22
   2  -6   3 198334. 5026.78  22
   2  -6   4 30683.5 1951.82  22
   2  -6   5 40858.4 2299.45   9
   2  -6   5 40297.3 2260.75  22
   2  -6   6 123429. 4117.55   9
   2  -6   7 10493.1 1274.87   9
   2  -6   8 39638.1 1415.74  36
   2  -6   8 37398.3 1221.54  44
   2  -6   8 38533.3 2557.97   9
   2  -6   8 38045.3 1592.94  40
   2  -6   9 111822. 2550.19  36
   2  -6   9 106470. 2200.44  44
   2  -6   9 107378. 4506.98   9
   2  -6   9 108374. 2685.86  40
   2  -6  10 29900.6 1390.62  36
   2  -6  10 29631.8 2477.28   9
   2  -6  10 26496.0 1331.71  40
   2  -6  11 9315.25 819.283  36
   2  -6  11 11683.4 892.987  40
   2  -6  12 75591.0 2257.36  36
   2  -6  13 5245.56 583.721  36
   2  -6  14 31943.3 1197.86  36
   2  -6  15 43907.2 1103.05  36
   2  -5 -10 61252.2 1215.86  32
   2  -5  -8 19770.7 886.640  45
   2  -5  -8 18927.8 1920.39  24
   2  -5  -7 113561. 2396.07  14
   2  -5  -7 111319. 2369.94  45
   2  -5  -7 110120. 5029.89  24
   2  -5  -6 7336.51 629.154  14
   2  -5  -6 4554.35 518.902  45
   2  -5  -6 6233.73 1288.88  24
   2  -5  -5 43745.6 3083.46   2
   2  -5  -5 43916.5 1475.45  14
   2  -5  -5 45813.2 1633.86  45
   2  -5  -5 44797.4 3264.42  24
   2  -5  -4 52923.9 3190.48   2
   2  -5  -4 54017.4 1702.49  45
   2  -5  -4 51872.4 3331.09  24
   2  -5  -3 12277.8 1433.48   2
   2  -5  -3 11913.7 1293.41   5
   2  -5  -3 11787.8 1510.25  24
   2  -5  -2 328699. 6747.52   2
   2  -5  -2 321132. 6610.63   5
   2  -5  -1 445247. 7034.80   2
   2  -5  -1 443996. 7698.42   5
   2  -5  -1 424528. 7423.40  24
   2  -5  -1 433159. 7947.98  22
   2  -5   0 23376.1 1789.63   5
   2  -5   0 23133.1 1559.33  24
   2  -5   0 23523.1 1750.22  22
   2  -5   1 196974. 5142.97   5
   2  -5   1 189550. 4020.22  24
   2  -5   1 196894. 4749.17  22
   2  -5   2 264330. 5996.81   5
   2  -5   2 265390. 5290.89  22
   2  -5   3 49301.0 2264.81  22
   2  -5   4 423834. 6668.08  22
   2  -5   5 89961.1 3150.76   9
   2  -5   6 112608. 3695.89   9
   2  -5   7 199670. 5254.45   9
   2  -5   8 30265.1 2196.26   9
   2  -5   9 32396.3 1356.55  36
   2  -5   9 30889.8 1176.84  44
   2  -5   9 31659.2 2417.27   9
   2  -5   9 29504.8 1306.22  40
   2  -5  10 49588.8 1773.18  36
   2  -5  10 48278.6 3126.41   9
   2  -5  10 47850.6 1633.06  40
   2  -5  11 19065.1 1141.53  36
   2  -5  12 15144.1 995.592  36
   2  -5  13 60738.0 1822.18  36
   2  -5  14 6161.02 572.009  36
   2  -5  15 50888.5 1116.17  36
   2  -4 -11 22787.2 619.105  32
   2  -4  -9 54558.4 3314.89  24
   2  -4  -8 30137.8 1265.74  14
   2  -4  -8 30321.7 2695.45  24
   2  -4  -7 29945.8 1288.17  14
   2  -4  -7 31851.6 1264.53  45
   2  -4  -7 31496.6 2847.60  24
   2  -4  -6 99815.1 4765.80   2
   2  -4  -6 89817.3 2169.45  45
   2  -4  -6 93773.2 4868.39  24
   2  -4  -5 21169.2 2261.28  24
   2  -4  -5 22969.6 2165.52   2
   2  -4  -4 42944.2 2308.01   5
   2  -4  -4 43955.9 2979.44  24
   2  -4  -4 41930.1 2692.42   2
   2  -4  -3 87965.9 3281.77   5
   2  -4  -3 88978.4 3866.62  24
   2  -4  -3 90544.3 3600.13   2
   2  -4  -2 5662.72 836.926   5
   2  -4  -2 7192.79 1032.45  24
   2  -4  -2 5624.85 819.662   2
   2  -4  -1 455648. 7187.40   5
   2  -4  -1 435370. 6991.98  24
   2  -4  -1 450482. 6364.12   2
   2  -4  -1 441173. 6973.49  22
   2  -4   0 246424. 5268.84   5
   2  -4   0 236673. 4659.88  24
   2  -4   0 249861. 4020.62   2
   2  -4   0 243032. 4865.54  22
   2  -4   1 283.927 356.391   5
   2  -4   1 358.347 215.365  24
   2  -4   1 764.136 297.589  22
   2  -4   2 338477. 6312.25   5
   2  -4   2 332293. 5291.92  22
   2  -4   3 64113.0 2118.59  21
   2  -4   3 63281.2 2775.06   5
   2  -4   3 64539.3 2342.52  22
   2  -4   4 8322.71 829.701  21
   2  -4   4 8227.83 869.154   9
   2  -4   5 220850. 4626.72   9
   2  -4   5 220066. 4639.22  21
   2  -4   6 11345.0 1138.12   9
   2  -4   6 11447.1 1181.01  21
   2  -4   7 92488.7 3481.85   9
   2  -4   8 201794. 5559.99   9
   2  -4   9 1560.42 277.066  37
   2  -4   9 1779.07 334.753  36
   2  -4   9 1316.72 574.462   9
   2  -4  10 68472.2 1836.69  37
   2  -4  10 70746.7 2084.83  36
   2  -4  10 71265.5 3774.50   9
   2  -4  11 110936. 2395.70  37
   2  -4  11 116958. 2710.58  36
   2  -4  12 6051.82 557.606  37
   2  -4  12 6293.06 631.752  36
   2  -4  13 28603.1 1101.25  37
   2  -4  13 29416.5 1203.49  36
   2  -4  14 38450.9 1171.23  36
   2  -4  14 31343.8 949.724  37
   2  -3 -11 47266.9 1104.47  32
   2  -3  -9 25390.1 1171.73  14
   2  -3  -9 27197.8 2562.59  24
   2  -3  -8 152572. 6293.73  24
   2  -3  -7 33994.7 3017.10  24
   2  -3  -7 35400.7 2907.53   2
   2  -3  -6 43030.2 3291.55  24
   2  -3  -6 39337.6 2876.76   2
   2  -3  -5 240821. 5276.98   5
   2  -3  -5 244337. 7293.58  24
   2  -3  -5 246757. 6657.81   2
   2  -3  -4 18897.3 1470.16   5
   2  -3  -4 17457.0 1819.15  24
   2  -3  -3 199422. 4650.24   5
   2  -3  -3 191410. 5309.57  24
   2  -3  -2 352143. 5989.15   5
   2  -3  -2 330414. 6275.13  24
   2  -3  -1 24469.8 1569.57   5
   2  -3  -1 24454.1 1539.64  24
   2  -3  -1 24017.7 1408.22  22
   2  -3   0 277578. 5175.44   5
   2  -3   0 271339. 4633.66  24
   2  -3   0 266115. 4345.84  22
   2  -3   1 244341. 4826.84   5
   2  -3   1 241170. 4074.15  24
   2  -3   1 232880. 3955.68  22
   2  -3   2 18939.8 1386.45   5
   2  -3   2 17762.8 1101.84  22
   2  -3   3 252983. 4290.73  21
   2  -3   3 250881. 5047.91   5
   2  -3   3 248145. 4040.25   9
   2  -3   4 145980. 3639.68  21
   2  -3   4 141972. 3236.86   9
   2  -3   5 49134.9 2089.22   9
   2  -3   5 51184.2 1917.14   7
   2  -3   5 50375.6 2386.77  21
   2  -3   6 152581. 4017.58   9
   2  -3   6 147295. 4524.43  21
   2  -3   6 154476. 3775.82   7
   2  -3   7 54100.3 2653.88   9
   2  -3   7 55176.0 2544.94   7
   2  -3   8 125888. 4431.11   9
   2  -3   8 126361. 4275.30   7
   2  -3   9 151308. 2768.19  37
   2  -3   9 158538. 2903.06  36
   2  -3   9 149187. 5191.58   9
   2  -3   9 156714. 5182.58   7
   2  -3  10 9624.98 744.163  37
   2  -3  10 8998.46 735.933  36
   2  -3  10 9892.61 1371.29   7
   2  -3  11 81705.4 2146.72  37
   2  -3  11 83351.1 2220.40  36
   2  -3  12 70718.0 1912.95  37
   2  -3  12 69611.7 1931.40  36
   2  -3  13 260.381 176.572  37
   2  -3  13 4952.09 555.573  36
   2  -3  14 57658.0 1236.03  36
   2  -3  14 47863.4 1168.07  37
   2  -2 -10 79349.8 4276.69  24
   2  -2  -9 43333.6 3357.00  24
   2  -2  -8 44091.3 3448.09  24
   2  -2  -7 217058. 7442.12  24
   2  -2  -7 213308. 6883.92   2
   2  -2  -6 37744.4 1239.39  15
   2  -2  -6 36593.5 2915.01  24
   2  -2  -5 143785. 2297.07  15
   2  -2  -5 144126. 4017.41   5
   2  -2  -5 152121. 5435.60  24
   2  -2  -4 182774. 2438.94  15
   2  -2  -4 185565. 4423.21   5
   2  -2  -4 180949. 5296.11  24
   2  -2  -3 36046.1 1020.46  15
   2  -2  -3 37099.0 1918.49   5
   2  -2  -3 37963.9 2175.55  24
   2  -2  -2 340646. 2932.96  15
   2  -2  -2 339965. 5640.62   5
   2  -2  -2 345773. 5870.20  24
   2  -2  -2 336033. 4674.98  22
   2  -2  -1 77957.4 1314.01  15
   2  -2  -1 80718.0 2652.75   5
   2  -2  -1 77498.4 2521.99  24
   2  -2  -1 75927.6 2046.70  22
   2  -2   0 7667.84 839.191   5
   2  -2   0 8103.50 764.290  24
   2  -2   0 8314.13 658.746  22
   2  -2   1 96624.9 2808.04   5
   2  -2   1 93989.2 2200.92  22
   2  -2   2 67735.1 2333.45   5
   2  -2   3 32222.8 1604.07  21
   2  -2   3 34446.2 1700.53   5
   2  -2   3 30403.9 1306.21   9
   2  -2   4 514686. 7246.22  21
   2  -2   4 507785. 5901.78   9
   2  -2   4 508940. 5222.20   7
   2  -2   5 199798. 3872.92   7
   2  -2   5 197108. 4102.15   9
   2  -2   5 199284. 5030.28  21
   2  -2   6 13867.3 1190.04   7
   2  -2   6 12823.2 1195.54   9
   2  -2   7 187901. 4873.91   7
   2  -2   7 183174. 4985.97   9
   2  -2   8 2621.69 665.037   7
   2  -2   8 2314.35 706.970   9
   2  -2   9 53233.9 1713.96  37
   2  -2   9 54718.2 1698.05  36
   2  -2   9 52779.3 3123.65   9
   2  -2   9 52031.1 3106.33   7
   2  -2  10 84447.3 2226.22  37
   2  -2  10 86266.4 2196.88  36
   2  -2  11 2796.14 422.826  37
   2  -2  11 2481.38 384.196  36
   2  -2  12 31394.6 1273.03  37
   2  -2  12 31654.1 1228.54  36
   2  -2  13 22941.3 961.704  37
   2  -2  13 31326.3 1063.53  36
   2  -2  14 3588.98 314.391  37
   2  -1 -11 12405.1 1631.31  24
   2  -1 -10 21710.6 2356.69  24
   2  -1  -9 204456. 7364.59  24
   2  -1  -8 72915.7 1806.77  15
   2  -1  -8 73107.0 4351.00  24
   2  -1  -8 73262.0 4093.18   2
   2  -1  -7 63604.9 1641.86  15
   2  -1  -7 63771.5 3889.62  24
   2  -1  -6 323919. 3492.43  15
   2  -1  -6 315587. 6032.43   5
   2  -1  -6 325104. 8048.47  24
   2  -1  -5 1972.05 284.184  15
   2  -1  -5 2416.19 541.617   5
   2  -1  -4 338408. 3108.06  15
   2  -1  -4 326100. 5698.97   5
   2  -1  -4 341317. 6585.18  24
   2  -1  -3 209466. 2314.79  15
   2  -1  -3 218668. 4448.96   5
   2  -1  -3 215378. 4761.30  24
   2  -1  -2 216333. 2162.47  15
   2  -1  -2 221661. 4321.78   5
   2  -1  -2 221774. 4355.73  24
   2  -1  -1 457356. 2886.64  15
   2  -1  -1 469259. 6053.73   5
   2  -1  -1 467132. 5757.65  24
   2  -1   0 181278. 1658.19  15
   2  -1   0 184339. 3652.30   5
   2  -1   0 182335. 3430.39  24
   2  -1   1 6947.27 705.387   5
   2  -1   2 197071. 3623.82   5
   2  -1   2 189853. 2704.62   9
   2  -1   2 196972. 1919.20   7
   2  -1   3 145829. 3612.28  21
   2  -1   3 146605. 2399.28   7
   2  -1   3 145770. 3007.04   5
   2  -1   3 144660. 2713.27   9
   2  -1   4 123168. 2734.25   7
   2  -1   4 119794. 2868.51   9
   2  -1   4 129142. 3824.07  21
   2  -1   5 383348. 5687.21   7
   2  -1   5 375403. 5795.55   9
   2  -1   5 383937. 7373.41  21
   2  -1   6 94462.5 3259.79   7
   2  -1   6 91686.0 3222.89   9
   2  -1   7 65248.0 3053.85   7
   2  -1   7 65090.3 3023.36   9
   2  -1   8 182586. 5609.58   7
   2  -1   8 183382. 3083.40  37
   2  -1   8 174671. 2776.12  36
   2  -1   9 6031.60 605.267  37
   2  -1   9 5756.13 542.982  36
   2  -1   9 4487.42 972.347   7
   2  -1  10 58935.3 1875.57  37
   2  -1  10 54334.8 1677.10  36
   2  -1  11 100268. 2366.38  37
   2  -1  11 90188.4 2034.54  36
   2  -1  12 1016.99 293.174  37
   2  -1  12 11994.8 741.014  36
   2  -1  13 29740.5 1025.54  37
   2  -1  14 16712.0 568.830  37
   2   0 -11 59074.2 3667.91  24
   2   0 -10 39676.9 1318.91  15
   2   0 -10 41363.4 3223.13  24
   2   0  -9 32168.2 1223.74  15
   2   0  -9 33823.6 2944.26  24
   2   0  -9 29964.0 2676.73   2
   2   0  -8 107916. 2181.13  15
   2   0  -8 109721. 5009.28  24
   2   0  -7 24122.3 994.319  15
   2   0  -7 21971.9 1623.42   5
   2   0  -7 22878.4 2144.78  24
   2   0  -6 192533. 2604.58  15
   2   0  -6 187232. 4637.92   5
   2   0  -6 198462. 5749.30  24
   2   0  -5 196485. 2460.00  15
   2   0  -5 201641. 4605.69   5
   2   0  -5 205820. 5202.84  24
   2   0  -4 2421.90 273.320  13
   2   0  -4 2459.05 529.585   5
   2   0  -4 2902.80 616.130  24
   2   0  -3 621301. 7377.47   5
   2   0  -3 602887. 7286.66  24
   2   0  -2 624476. 3392.93  15
   2   0  -2 622738. 6732.08  24
   2   0  -1 89226.2 1153.10  15
   2   0  -1 87312.4 2518.64   5
   2   0  -1 87857.2 2370.38  24
   2   0   0 235297. 3946.06   5
   2   0   1 11851.1 357.004   7
   2   0   1 11656.8 857.485   5
   2   0   1 11725.2 503.232   9
   2   0   2 281051. 4737.69  21
   2   0   2 280502. 2963.79   7
   2   0   2 278460. 3828.34   5
   2   0   2 271632. 3105.28   9
   2   0   3 337190. 5877.47  21
   2   0   3 328588. 4171.10   7
   2   0   3 333545. 3652.00   5
   2   0   3 326056. 4175.86   9
   2   0   4 5807.76 680.937   7
   2   0   4 5108.23 625.709   9
   2   0   4 5347.68 837.906  21
   2   0   5 90140.8 3073.86   7
   2   0   5 87555.5 2936.58   9
   2   0   6 141264. 4347.35   7
   2   0   6 143828. 4253.49   9
   2   0   7 4222.72 875.800   7
   2   0   8 24292.8 2163.31   7
   2   0   8 25415.2 1048.11  36
   2   0   8 26840.1 1025.40  30
   2   0   9 63059.8 1918.86  37
   2   0   9 59211.6 1579.17  30
   2   0  10 524.426 232.554  37
   2   0  10 1080.92 339.965  36
   2   0  11 123673. 2558.60  37
   2   0  11 104657. 1942.02  36
   2   0  12 84484.1 1890.15  37
   2   0  13 542.819 171.366  37
   2   1 -11 11563.8 698.443  15
   2   1 -11 12984.7 1735.89  24
   2   1 -10 103893. 2195.92  15
   2   1 -10 108948. 5050.90  24
   2   1  -9 8235.88 628.071  15
   2   1  -9 6436.12 1220.56  24
   2   1  -8 79526.7 1857.85  15
   2   1  -8 74682.8 1658.99  13
   2   1  -8 74150.3 3062.85   5
   2   1  -8 81490.0 3998.10  24
   2   1  -7 163570. 2444.46  13
   2   1  -7 159696. 4443.52   5
   2   1  -7 167659. 5277.96  24
   2   1  -6 5686.32 834.988   5
   2   1  -6 5859.03 464.205  13
   2   1  -6 6118.43 953.321  24
   2   1  -5 293865. 5628.88   5
   2   1  -5 282842. 2981.20  13
   2   1  -5 288198. 5731.45  24
   2   1  -4 676140. 8147.24   5
   2   1  -4 660923. 7756.41  24
   2   1  -3 76666.8 2628.54   5
   2   1  -3 71780.1 1355.07  13
   2   1  -3 73402.7 2353.63  24
   2   1  -2 228339. 4265.89   5
   2   1  -2 218897. 2232.86  13
   2   1  -2 228018. 3865.36  24
   2   1  -1 692281. 7005.31   5
   2   1   0 5614.42 613.691   5
   2   1   1 643353. 6810.05  21
   2   1   1 625109. 5806.11   5
   2   1   2 160797. 3861.95  21
   2   1   2 166673. 2581.41   5
   2   1   2 161050. 2542.52   9
   2   1   3 511507. 6270.45   7
   2   1   3 518027. 5631.48   9
   2   1   3 521296. 7829.68  21
   2   1   4 299532. 5527.64   7
   2   1   4 315572. 6668.49  21
   2   1   5 101007. 3590.33   7
   2   1   6 22593.0 1892.42   7
   2   1   7 48934.9 1589.62  37
   2   1   7 42660.0 2805.96   7
   2   1   7 45259.5 1357.69  30
   2   1   8 10536.2 785.508  37
   2   1   8 8775.97 1334.23   7
   2   1   8 9449.45 662.167  30
   2   1   9 36374.0 1455.87  37
   2   1   9 34248.5 1261.21  30
   2   1  10 91563.7 2232.19  37
   2   1  11 409.768 239.036  37
   2   1  12 56511.8 1386.82  37
   2   1  13 20990.6 637.806  37
   2   2 -11 22994.2 1035.98  15
   2   2 -11 23359.3 2235.43  24
   2   2 -10 42508.6 1438.68  15
   2   2 -10 42452.0 3014.49  24
   2   2  -9 146064. 2609.64  15
   2   2  -9 146700. 2495.03  13
   2   2  -9 148651. 5350.83  24
   2   2  -8 19688.0 927.093  13
   2   2  -8 20931.5 1706.99   5
   2   2  -8 20058.7 1870.20  24
   2   2  -7 110242. 1940.86  19
   2   2  -7 103803. 3713.30   5
   2   2  -7 105982. 2100.61  13
   2   2  -7 112697. 3976.57  24
   2   2  -6 99654.0 1828.50  19
   2   2  -6 102258. 3560.39   5
   2   2  -6 102244. 1976.21  13
   2   2  -6 98528.9 3411.76  24
   2   2  -5 1185.69 227.676  19
   2   2  -5 1046.13 253.414  13
   2   2  -5 912.871 428.603   5
   2   2  -5 1792.97 456.800  24
   2   2  -4 257784. 2764.73  19
   2   2  -4 279739. 5479.29   5
   2   2  -4 265808. 2868.34  13
   2   2  -4 271663. 4596.41  24
   2   2  -3 111056. 3265.18   5
   2   2  -3 105356. 1694.30  13
   2   2  -3 106404. 2667.40  24
   2   2  -2 42859.6 1928.30   5
   2   2  -2 44383.7 1027.94  13
   2   2  -1 268038. 4472.61   5
   2   2   0 68067.5 2160.05  21
   2   2   0 65866.3 2047.31   5
   2   2   1 302075. 5074.92  21
   2   2   1 288712. 3774.31   5
   2   2   2 558574. 7743.99  21
   2   2   3 41567.6 1620.96   8
   2   2   3 42552.3 2366.53  21
   2   2   4 70300.1 2993.51   7
   2   2   5 204211. 5590.31   7
   2   2   6 22368.2 2009.97   7
   2   2   6 29993.6 1212.38  38
   2   2   7 63541.8 1837.69  37
   2   2   7 60249.9 3466.33   7
   2   2   7 60411.1 1681.47  30
   2   2   8 98950.8 2330.42  37
   2   2   8 91874.3 2123.30  30
   2   2   9 2958.59 427.816  37
   2   2   9 2844.57 384.082  30
   2   2  10 81008.3 1972.07  37
   2   2  11 45713.6 1314.39  37
   2   2  12 1283.64 203.616  37
   2   3 -12 5943.41 506.979  15
   2   3 -11 122259. 2440.69  15
   2   3 -10 30713.4 1207.88  13
   2   3 -10 31959.3 2388.03  24
   2   3  -9 93103.4 2148.54  13
   2   3  -9 88150.7 3653.11   5
   2   3  -9 95835.1 3924.45  24
   2   3  -8 368285. 3942.19  19
   2   3  -8 363190. 7352.50   5
   2   3  -8 368058. 4197.91  13
   2   3  -8 374782. 7242.97  24
   2   3  -7 18978.6 920.657  19
   2   3  -7 19959.7 1700.52   5
   2   3  -7 19417.3 959.286  13
   2   3  -7 18211.5 1469.02  24
   2   3  -6 149982. 2481.30  19
   2   3  -6 159593. 4643.22   5
   2   3  -6 152752. 2570.57  13
   2   3  -6 152270. 3847.73  24
   2   3  -5 271429. 3201.11  19
   2   3  -5 273215. 3247.13  13
   2   3  -5 264369. 4606.95  24
   2   3  -4 127.064 165.186  19
   2   3  -4 627.533 212.065  13
   2   3  -4 179.024 289.995   5
   2   3  -4 746.547 272.354  24
   2   3  -3 351533. 3318.76  19
   2   3  -3 351823. 3180.04  13
   2   3  -2 181691. 4153.76   5
   2   3  -2 179755. 2094.50  13
   2   3  -1 10314.0 829.906  21
   2   3  -1 10682.0 948.446   5
   2   3  -1 10210.3 461.086  13
   2   3   0 244257. 4459.94  21
   2   3   0 246220. 4085.14   5
   2   3   0 257928. 5289.83   3
   2   3   1 39847.7 1360.38   5
   2   3   1 40976.2 2340.46   3
   2   3   1 41164.1 2028.97  21
   2   3   2 126731. 4376.14   3
   2   3   2 124118. 3202.02   8
   2   3   2 127450. 3986.02  21
   2   3   3 174978. 5406.55   3
   2   3   4 64972.4 3430.42   3
   2   3   5 12989.7 1521.83   7
   2   3   6 81427.2 2002.02  37
   2   3   6 76821.7 3888.17   7
   2   3   6 79965.7 1943.58  30
   2   3   7 237.161 183.401  37
   2   3   7-189.019 333.893   7
   2   3   7 207.780 164.496  30
   2   3   8 81594.0 2071.07  37
   2   3   8 80539.5 2011.37  30
   2   3   9 92461.2 2093.74  37
   2   3   9 89736.9 2012.32  30
   2   3  10 447.987 193.137  37
   2   3  11 36644.3 989.661  37
   2   4 -12 26936.0 1119.42  15
   2   4 -11 34977.1 1317.92  13
   2   4 -10 163372. 2990.47  13
   2   4  -9 11195.3 761.863  19
   2   4  -9 13118.9 1511.13   5
   2   4  -9 11645.3 816.535  13
   2   4  -8 333100. 4169.27  19
   2   4  -8 343815. 7543.00   5
   2   4  -8 348513. 4322.48  13
   2   4  -7 246471. 3563.13  19
   2   4  -7 263158. 6497.72   5
   2   4  -7 256958. 3623.17  13
   2   4  -7 251980. 4873.09  24
   2   4  -6 320.218 251.475  13
   2   4  -6 491.109 373.367   5
   2   4  -6 467.152 221.042  24
   2   4  -5 271790. 3403.52  19
   2   4  -5 269543. 3326.21  13
   2   4  -4 78148.3 1707.13  19
   2   4  -4 79293.5 3290.98   5
   2   4  -4 74941.9 1641.55  13
   2   4  -3 43978.1 1229.20  19
   2   4  -3 43546.6 2315.29   5
   2   4  -3 43733.2 1152.92  13
   2   4  -3 39828.0 1615.66   1
   2   4  -2 493116. 5599.70  21
   2   4  -2 498573. 7306.36   5
   2   4  -2 513028. 5111.98   1
   2   4  -2 505872. 3535.55  13
   2   4  -1 374337. 5350.66  21
   2   4  -1 368596. 5818.06   5
   2   4  -1 386823. 2744.80  13
   2   4  -1 387099. 6681.94   3
   2   4   0 6095.83 661.764   5
   2   4   0 4323.34 818.335   3
   2   4   0 4711.68 701.051  21
   2   4   1 308754. 7075.15   3
   2   4   1 302457. 5551.15   8
   2   4   1 298056. 5948.56  21
   2   4   2 21506.6 1985.54   3
   2   4   2 17053.7 1298.74   8
   2   4   3 56735.7 3330.78   3
   2   4   4 168252. 5862.83   3
   2   4   5 1429.71 275.231  37
   2   4   5 794.206 383.277   7
   2   4   5 1171.44 234.320  54
   2   4   5 1136.92 260.832  30
   2   4   5 962.842 516.318   3
   2   4   6 154274. 2735.59  37
   2   4   6 151001. 5537.19   7
   2   4   6 153495. 2784.66  30
   2   4   7 86297.8 2056.31  37
   2   4   7 85867.1 2088.27  30
   2   4   8 1842.94 319.542  37
   2   4   8 1839.51 322.900  30
   2   4   9 52846.7 1415.75  37
   2   4   9 52008.8 1441.59  30
   2   4  10 18969.6 722.777  37
   2   5 -12 75947.9 1929.76  15
   2   5 -12 70937.6 1837.24  13
   2   5 -11 24488.6 1186.09  13
   2   5 -10 77625.7 2081.14  19
   2   5 -10 76082.2 4145.54   1
   2   5 -10 74211.7 3677.24   5
   2   5 -10 77841.9 2181.91  13
   2   5  -9 319808. 4372.40  19
   2   5  -9 326723. 4471.45  13
   2   5  -8 7740.62 703.193  19
   2   5  -8 8529.42 1279.68   5
   2   5  -8 8615.51 744.502  13
   2   5  -8 7933.79 1158.42   8
   2   5  -7 89943.5 2267.33  19
   2   5  -7 90773.8 4059.69   5
   2   5  -7 88103.9 2211.34  13
   2   5  -7 91412.2 3894.80   8
   2   5  -6 134260. 2602.66  19
   2   5  -6 135353. 4845.48   5
   2   5  -5 15471.0 853.507  19
   2   5  -5 14450.3 1571.75   5
   2   5  -5 12493.2 1159.78   1
   2   5  -4 179850. 4006.11   1
   2   5  -4 203151. 2857.78  19
   2   5  -4 197154. 5515.20   5
   2   5  -4 187502. 2631.23  13
   2   5  -3 109075. 1993.58  19
   2   5  -3 106162. 3833.46   5
   2   5  -3 105099. 1798.66  13
   2   5  -2 14278.7 1022.39  21
   2   5  -2 15283.7 610.166  13
   2   5  -2 13172.1 1273.94   3
   2   5  -2 14795.1 1348.40   5
   2   5  -1 345885. 5861.62   5
   2   5  -1 358698. 7234.21   3
   2   5  -1 350342. 6719.42   8
   2   5  -1 352376. 5562.28  21
   2   5   0 175216. 5477.57   3
   2   5   0 172626. 4646.21   8
   2   5   0 173539. 4332.36  21
   2   5   1 31559.7 2472.81   3
   2   5   1 32450.4 1980.85   8
   2   5   2 140914. 5370.77   3
   2   5   3 40768.2 1310.75  30
   2   5   3 38715.2 2891.48   3
   2   5   4 95318.2 1957.45  37
   2   5   4 102112. 2196.94  30
   2   5   4 99732.7 2082.72  54
   2   5   4 96579.7 4645.95   3
   2   5   5 202019. 2964.60  37
   2   5   5 212698. 6515.40   7
   2   5   5 208117. 3103.12  54
   2   5   5 210008. 3268.52  30
   2   5   6 291.586 177.499  37
   2   5   6 499.993 213.137  30
   2   5   7 78352.1 1819.59  37
   2   5   7 81062.6 1814.90  51
   2   5   7 84434.9 2034.91  30
   2   5   8 78566.8 1682.24  37
   2   5   8 81976.1 1854.55  30
   2   5   9 499.396 143.114  37
   2   6 -12 26085.0 1197.66  13
   2   6 -11 117906. 2614.03  19
   2   6 -11 118570. 2733.73  13
   2   6 -10 8754.58 777.670  19
   2   6 -10 8499.52 1351.77   5
   2   6 -10 8545.58 778.572  13
   2   6 -10 10838.6 1574.01   1
   2   6  -9 122815. 2857.67  19
   2   6  -9 122588. 5079.03   5
   2   6  -9 123256. 2853.13  13
   2   6  -9 121503. 4917.63   1
   2   6  -8 132764. 2897.42  19
   2   6  -8 136843. 5366.34   5
   2   6  -8 133182. 2890.64  13
   2   6  -8 129543. 4773.61   1
   2   6  -8 141199. 5074.94   8
   2   6  -7 10946.6 828.369  19
   2   6  -7 11455.3 1552.41   5
   2   6  -7 9921.10 1251.28   1
   2   6  -7 10125.4 1411.87   8
   2   6  -6 104129. 3712.45   1
   2   6  -6 116305. 2485.73  19
   2   6  -6 115593. 4738.37   5
   2   6  -6 117362. 4554.40   8
   2   6  -5 187210. 2964.50  19
   2   6  -5 180401. 5739.44   5
   2   6  -5 180229. 4506.36   1
   2   6  -5 186240. 5640.52   8
   2   6  -4 19212.3 916.243  19
   2   6  -4 16866.5 1700.62   5
   2   6  -4 17038.8 799.227  13
   2   6  -4 15675.8 1636.33   8
   2   6  -3 238288. 3020.81  19
   2   6  -3 244513. 6080.93   5
   2   6  -3 248783. 2722.30  13
   2   6  -3 250219. 6307.22   8
   2   6  -2 90332.5 3401.38   5
   2   6  -2 91081.5 3711.79   3
   2   6  -2 90697.2 3742.16   8
   2   6  -1 142962. 3834.70   5
   2   6  -1 139275. 4934.36   3
   2   6  -1 135015. 4486.05   8
   2   6   0 253381. 7080.92   3
   2   6   0 252576. 5941.28   8
   2   6   1 3534.54 927.210   3
   2   6   1 4253.33 764.886   8
   2   6   2 33739.9 1198.85  54
   2   6   2 30024.6 2601.81   3
   2   6   2 33199.1 1173.41  41
   2   6   3 135671. 2494.72  54
   2   6   3 135433. 2539.17  30
   2   6   3 134629. 5581.56   3
   2   6   4 39563.4 1394.69  54
   2   6   4 40620.9 1431.80  30
   2   6   4 42681.6 3125.94   3
   2   6   5 23388.9 956.802  37
   2   6   5 24633.7 1087.92  54
   2   6   5 25061.3 1135.43  30
   2   6   6 39600.8 1206.94  37
   2   6   6 40936.8 1424.09  30
   2   6   7 976.970 200.864  37
   2   6   7 664.073 193.707  51
   2   6   7 1323.55 297.923  30
   2   6   8 97329.9 1786.45  30
   2   7 -12 5081.26 539.888  19
   2   7 -12 4922.03 555.033  13
   2   7 -11 75200.1 2208.89  19
   2   7 -11 77579.0 2280.70  13
   2   7 -10 131769. 3020.05  19
   2   7 -10 134145. 5499.12   5
   2   7 -10 135342. 3048.01  13
   2   7  -9 499.992 289.884  19
   2   7  -9 193.961 390.050   1
   2   7  -9 408.894 299.452  13
   2   7  -9 1332.01 632.132   5
   2   7  -8 62669.0 2022.22  19
   2   7  -8 57951.8 3682.23   5
   2   7  -8 56159.3 3206.31   1
   2   7  -8 60158.4 3504.44   8
   2   7  -7 151830. 3034.12  19
   2   7  -7 142608. 5639.69   5
   2   7  -7 138464. 4706.13   1
   2   7  -7 150959. 5547.39   8
   2   7  -6 12896.2 857.005  19
   2   7  -6 12735.6 1664.59   5
   2   7  -6 12946.1 1365.30   1
   2   7  -6 13505.0 1684.93   8
   2   7  -5 249979. 3477.26  19
   2   7  -5 232941. 6755.33   5
   2   7  -5 237495. 3174.02  13
   2   7  -5 246445. 6840.29   8
   2   7  -4 178524. 2827.71  19
   2   7  -4 179012. 5686.43   5
   2   7  -4 186382. 2548.53  13
   2   7  -4 187023. 5862.18   8
   2   7  -3 33627.5 2309.11   5
   2   7  -3 33266.5 2262.17   3
   2   7  -3 33508.4 2474.54   8
   2   7  -2 433888. 7545.77   5
   2   7  -2 425952. 8731.08   3
   2   7  -2 435178. 8642.60   8
   2   7  -1 69460.7 3729.77   3
   2   7  -1 72412.9 3429.82   8
   2   7   0 74127.0 1804.66  54
   2   7   0 70247.2 3897.51   3
   2   7   0 74617.7 1801.65  41
   2   7   0 68096.8 3190.64   8
   2   7   1 63318.1 1717.93  54
   2   7   1 58596.3 3665.91   3
   2   7   1 61494.6 1668.31  41
   2   7   2 5937.98 551.455  54
   2   7   2 5816.38 546.062  30
   2   7   2 6054.40 1207.88   3
   2   7   3 24004.1 1100.75  54
   2   7   3 23357.9 1075.39  30
   2   7   4 92074.6 2131.31  54
   2   7   4 89628.9 2117.12  30
   2   7   5 8245.74 646.223  30
   2   7   6 7443.89 541.871  51
   2   7   6 7054.87 574.382  30
   2   7   7 30955.9 1010.37  30
   2   7   7 28670.5 855.690  51
   2   8 -12 46982.9 1653.61  19
   2   8 -12 51598.7 1782.74  13
   2   8 -11 229.679 182.328  19
   2   8 -10 121935. 2905.27  19
   2   8  -9 116882. 2819.42  19
   2   8  -9 115793. 5394.29   5
   2   8  -9 114731. 2773.20  13
   2   8  -9 109458. 4706.65   1
   2   8  -8 15330.1 1017.98  19
   2   8  -8 16635.3 2047.76   5
   2   8  -8 13593.5 938.382  13
   2   8  -8 14300.3 1751.23   8
   2   8  -7 83274.2 2259.48  19
   2   8  -7 78368.4 4322.76   5
   2   8  -7 78071.8 2081.58  13
   2   8  -7 78253.6 4136.27   8
   2   8  -6 162545. 2987.34  19
   2   8  -6 155077. 2737.67  13
   2   8  -6 159582. 5807.13   8
   2   8  -5 30064.5 1248.94  19
   2   8  -5 25248.0 2284.72   5
   2   8  -5 27252.0 1054.87  13
   2   8  -5 29480.5 1134.86  41
   2   8  -5 27681.7 2420.78   8
   2   8  -4 238456. 3265.04  54
   2   8  -4 238015. 3234.23  41
   2   8  -4 248520. 7054.63   8
   2   8  -3 99138.9 2134.48  54
   2   8  -3 107066. 4088.71   5
   2   8  -3 107894. 4345.36   3
   2   8  -3 104969. 2181.92  41
   2   8  -3 106543. 4547.02   8
   2   8  -2 92263.3 2090.87  54
   2   8  -2 82111.8 4041.40   3
   2   8  -2 87340.0 2028.64  41
   2   8  -2 89710.1 4052.32   8
   2   8  -1 159591. 5860.30   3
   2   8  -1 168133. 2873.66  54
   2   8  -1 164434. 2815.86  41
   2   8   0 4882.51 513.987  54
   2   8   0 4448.29 484.508  41
   2   8   1 56636.0 1701.10  54
   2   8   1 58084.6 1658.36  30
   2   8   1 57396.4 3660.50   3
   2   8   2 100796. 2276.77  54
   2   8   2 101563. 2225.09  30
   2   8   3 9165.21 688.844  54
   2   8   3 9805.19 699.760  30
   2   8   4 99947.8 2134.43  54
   2   8   4 102537. 2162.87  30
   2   8   5 67455.9 1632.60  30
   2   8   6 3825.81 333.025  51
   2   8   6 3916.15 366.770  30
   2   9 -11 81812.8 2299.30  19
   2   9 -10 817.409 309.821  19
   2   9 -10 607.881 260.277  13
   2   9  -9 56547.2 1943.84  19
   2   9  -9 55275.1 1865.09  13
   2   9  -8 152294. 3121.42  19
   2   9  -8 147574. 6084.49   5
   2   9  -8 140603. 2869.61  13
   2   9  -8 139760. 2600.85  41
   2   9  -8 148698. 5688.65   8
   2   9  -7 19132.9 1108.23  19
   2   9  -7 19522.5 1019.32  13
   2   9  -7 16836.5 912.663  41
   2   9  -7 19789.8 2115.51   8
   2   9  -7 18507.5 2108.31   5
   2   9  -6 123004. 2609.89  19
   2   9  -6 118222. 5123.35   5
   2   9  -6 123971. 2356.37  13
   2   9  -6 122555. 2465.67  41
   2   9  -6 126658. 5286.92   8
   2   9  -5 82106.8 2059.44  54
   2   9  -5 79314.6 3990.46   5
   2   9  -5 82861.3 2034.16  41
   2   9  -5 88892.5 4410.25   8
   2   9  -4 4156.91 853.524   5
   2   9  -4 5951.43 562.747  41
   2   9  -4 4338.58 1016.75   8
   2   9  -3 139036. 2720.65  54
   2   9  -3 136192. 2377.89  53
   2   9  -3 135259. 5011.52   3
   2   9  -3 139590. 2678.77  41
   2   9  -3 140518. 5296.51   8
   2   9  -2 26293.6 1189.75  54
   2   9  -2 24606.4 992.788  53
   2   9  -2 25910.9 2305.54   3
   2   9  -2 26322.0 1168.72  41
   2   9  -1 27563.9 1217.19  54
   2   9  -1 24784.6 2317.20   3
   2   9  -1 26557.3 1180.43  41
   2   9   0 54089.3 1697.55  54
   2   9   0 52394.5 1563.39  30
   2   9   1 9984.18 739.615  54
   2   9   1 10242.3 701.529  30
   2   9   2 41112.1 1437.81  54
   2   9   2 38215.5 1309.59  30
   2   9   3 108967. 2220.14  54
   2   9   3 112757. 2162.31  30
   2   9   4 300.383 169.990  30
   2   9   5 36641.8 1000.19  51
   2   9   5 38962.9 1041.40  30
   2  10 -11 70934.1 2081.25  19
   2  10 -11 70340.8 2011.76  13
   2  10 -10 50248.9 1724.53  13
   2  10 -10 55265.1 1563.16  41
   2  10  -9 535.855 231.681  13
   2  10  -9 99.7901 125.774  41
   2  10  -8 53304.5 1853.11  19
   2  10  -8 49445.8 1613.68  13
   2  10  -8 52281.2 1621.38  41
   2  10  -7 40738.7 1509.51  54
   2  10  -7 41717.7 1391.77  13
   2  10  -7 40414.4 1459.94  41
   2  10  -6 51116.0 1688.61  54
   2  10  -6 48085.2 1600.22  41
   2  10  -5 200685. 3338.62  54
   2  10  -5 190137. 3205.03  41
   2  10  -4 138017. 2773.22  54
   2  10  -4 133344. 2498.69  53
   2  10  -4 139568. 2725.93  41
   2  10  -3 2865.54 415.165  54
   2  10  -3 3129.90 407.070  53
   2  10  -3 2369.14 374.959  41
   2  10  -2 104811. 2412.99  54
   2  10  -2 104494. 2341.49  41
   2  10  -2 104762. 2080.78  53
   2  10  -1 28771.7 1254.71  54
   2  10  -1 29556.1 1130.65  30
   2  10   0 10592.0 752.386  54
   2  10   0 9509.53 642.787  30
   2  10   1 76270.4 1944.47  54
   2  10   1 76884.1 1753.88  30
   2  10   2 4696.80 478.851  54
   2  10   2 4816.59 437.683  30
   2  10   3 76696.1 1643.30  54
   2  10   3 78320.0 1539.76  30
   2  10   4 44533.6 1069.61  51
   2  10   4 45344.0 1019.94  30
   2  11 -13 24155.6 871.186  54
   2  11 -12 66001.5 1634.21  54
   2  11 -11 558.574 252.363  54
   2  11 -10 41872.2 1553.32  19
   2  11 -10 39783.4 1423.83  54
   2  11  -9 33449.9 1342.03  54
   2  11  -9 29956.8 1193.40  13
   2  11  -9 33746.8 1234.92  41
   2  11  -8 2821.47 423.924  54
   2  11  -8 2382.08 362.740  41
   2  11  -7 101692. 2269.21  41
   2  11  -7 103974. 2417.06  54
   2  11  -6 9958.62 760.689  54
   2  11  -6 9951.80 722.732  41
   2  11  -5 26459.9 1239.42  54
   2  11  -5 27123.0 1180.83  53
   2  11  -5 25863.0 1161.42  41
   2  11  -4 132012. 2707.24  54
   2  11  -4 124433. 2398.95  53
   2  11  -4 128782. 2576.61  41
   2  11  -3 43446.9 1560.28  54
   2  11  -3 42154.9 1348.77  53
   2  11  -3 43484.2 1493.07  41
   2  11  -2 4733.67 529.486  54
   2  11  -2 5314.51 454.594  53
   2  11  -2 4059.33 392.138  30
   2  11  -1 39359.3 1400.87  54
   2  11  -1 37296.3 1152.12  30
   2  11   0 12367.7 769.021  54
   2  11   0 12331.4 648.881  30
   2  11   1 30632.9 1111.33  54
   2  11   1 30230.0 938.256  30
   2  11   2 75009.8 1533.52  54
   2  11   2 75869.4 1334.16  30
   2  11   3 176.489 110.789  51
   2  11   3 185.000 89.8106  30
   2  12 -13 3464.84 291.720  54
   2  12 -12 32034.9 1017.40  54
   2  12 -11 36552.7 1209.81  54
   2  12 -10 379.356 216.149  54
   2  12  -9 69794.5 1832.14  54
   2  12  -9 69968.8 1625.40  41
   2  12  -8 146945. 2734.03  54
   2  12  -8 144451. 2471.77  41
   2  12  -7 899.192 267.034  54
   2  12  -7 766.236 218.420  41
   2  12  -6 50916.6 1636.99  54
   2  12  -6 50167.4 1538.98  53
   2  12  -6 48865.7 1496.81  41
   2  12  -5 19359.6 1018.35  54
   2  12  -5 18750.1 918.909  53
   2  12  -5 20231.8 972.772  41
   2  12  -4 38083.9 1393.25  54
   2  12  -4 36614.9 1220.99  53
   2  12  -4 38189.7 1321.29  41
   2  12  -3 62554.9 1494.76  53
   2  12  -3 64243.0 1752.15  54
   2  12  -2 4622.42 490.911  54
   2  12  -1 17700.5 853.837  54
   2  12   0 47147.9 1262.11  54
   2  12   1 8200.20 470.309  54
   2  12   2 28568.2 701.936  51
   2  13 -13 26526.4 814.341  53
   2  13 -12 73.5836 95.9062  54
   2  13 -12 1963.60 344.393  53
   2  13 -11 20455.5 781.461  54
   2  13 -11 24612.0 975.444  53
   2  13 -10 45045.1 1255.31  54
   2  13 -10 50743.8 1445.41  53
   2  13  -9 5047.34 464.340  54
   2  13  -9 9388.19 677.986  53
   2  13  -8 76282.3 1773.33  54
   2  13  -8 79723.9 1827.01  53
   2  13  -8 74840.0 1551.04  41
   2  13  -7 45392.0 1393.22  54
   2  13  -7 44488.1 1352.86  53
   2  13  -7 43983.3 1254.14  41
   2  13  -6 1275.08 255.804  53
   2  13  -6 1886.90 330.808  54
   2  13  -5 63215.0 1621.08  54
   2  13  -5 59756.1 1433.44  53
   2  13  -4 6402.57 523.637  54
   2  13  -4 6567.57 452.866  53
   2  13  -3 26229.1 988.469  54
   2  13  -2 39385.1 1113.31  54
   2  13  -1 3055.42 304.335  54
   2  14 -12 12487.4 518.057  53
   2  14 -11 371.540 189.782  53
   2  14 -10 32909.6 856.119  54
   2  14 -10 35011.2 998.649  53
   2  14  -9 55318.9 1207.35  54
   2  14  -9 57505.3 1309.88  53
   2  14  -8 3048.28 316.778  54
   2  14  -8 2107.61 281.005  53
   2  14  -7 34457.1 1016.15  54
   2  14  -7 32806.6 973.010  53
   2  14  -6 11775.3 598.178  54
   2  14  -6 11116.5 543.942  53
   2  14  -5 13887.9 635.572  54
   2  14  -5 13030.3 523.627  53
   2  14  -4 41025.8 1023.45  54
   2  14  -3 5080.48 347.575  54
   2  14  -2 8110.36 376.854  54
   3 -14   4 7151.72 401.772  44
   3 -14   5 7232.91 440.571  44
   3 -14   6 22140.1 795.062  44
   3 -14   7 6538.65 452.412  44
   3 -14   8 7355.87 470.347  44
   3 -14   9 35662.1 982.205  44
   3 -14  10 11068.3 508.580  44
   3 -13   1 24026.6 656.821  44
   3 -13   2 28157.5 859.886  44
   3 -13   3 14705.6 689.692  44
   3 -13   4 42203.0 1251.41  44
   3 -13   5 8144.08 592.127  44
   3 -13   6 3023.06 398.136  44
   3 -13   7 19088.2 916.617  44
   3 -13   8 3427.11 410.396  44
   3 -13   9 21779.4 933.520  44
   3 -13  10 62135.0 1478.99  44
   3 -13  11 19990.8 774.663  44
   3 -12   0 19034.0 695.187  44
   3 -12   1 256.088 163.335  44
   3 -12   2 98353.2 1996.50  44
   3 -12   3 41659.6 1391.38  44
   3 -12   4 4129.69 502.468  44
   3 -12   5 47373.4 1591.66  44
   3 -12   6 17745.2 997.948  44
   3 -12   7 11262.5 649.499  36
   3 -12   7 11523.2 810.836  44
   3 -12   8 31682.6 1107.62  36
   3 -12   8 33167.3 1326.86  44
   3 -12   9 1677.22 279.740  36
   3 -12   9 1443.52 335.725  44
   3 -12  10 58001.3 1469.52  36
   3 -12  10 60336.5 1658.50  44
   3 -12  11 93418.9 1766.87  36
   3 -12  11 97368.5 1950.41  44
   3 -12  12 330.479 141.650  36
   3 -11  -2 17035.4 616.757  32
   3 -11  -1 283.760 132.791  32
   3 -11  -1 234.871 135.212  44
   3 -11   0 27132.6 934.458  32
   3 -11   0 26327.1 1023.61  44
   3 -11   1 72132.7 1835.58  44
   3 -11   2 314.115 186.227  44
   3 -11   2 745.450 506.014  22
   3 -11   3 45865.6 1612.06  44
   3 -11   3 44663.4 3123.31  22
   3 -11   4 29981.4 1340.39  44
   3 -11   4 29324.5 2576.42  22
   3 -11   5 8860.89 744.252  44
   3 -11   6 97439.9 2159.63  36
   3 -11   6 103598. 2497.35  44
   3 -11   7 20664.4 1022.35  36
   3 -11   7 20425.4 1108.48  44
   3 -11   8 40010.4 1443.36  36
   3 -11   8 42377.8 1574.94  44
   3 -11   9 48556.1 1597.67  36
   3 -11   9 52237.9 1712.67  44
   3 -11  10 527.130 252.030  36
   3 -11  10 548.061 256.727  44
   3 -11  11 55686.3 1618.75  36
   3 -11  11 60436.8 1676.93  44
   3 -11  12 11963.4 709.234  36
   3 -11  13 1289.93 238.872  36
   3 -10  -4 22637.4 728.809  32
   3 -10  -3 216.456 143.823  32
   3 -10  -2 33660.6 1148.17  32
   3 -10  -2 31837.4 1019.88  44
   3 -10  -1 31700.9 1187.08  32
   3 -10  -1 29897.6 1137.36  44
   3 -10   0 814.308 229.631  32
   3 -10   0 951.461 257.953  44
   3 -10   0 1166.92 533.476  22
   3 -10   1 77310.2 1891.66  32
   3 -10   1 79205.0 2090.52  44
   3 -10   1 77998.9 4163.38  22
   3 -10   2 21559.0 981.001  32
   3 -10   2 21172.6 1119.25  44
   3 -10   2 22838.7 2315.33  22
   3 -10   3 16918.7 1017.62  44
   3 -10   3 17917.9 2081.79  22
   3 -10   4 95265.3 2406.27  44
   3 -10   4 96149.8 4784.41  22
   3 -10   5 42949.0 1421.38  28
   3 -10   5 44620.4 1642.39  44
   3 -10   6 31126.1 1320.72  36
   3 -10   6 32673.0 1401.33  44
   3 -10   7 151354. 2963.24  36
   3 -10   7 156932. 3058.85  44
   3 -10   8 24081.6 1209.25  36
   3 -10   8 25558.1 1233.24  44
   3 -10   9 29383.7 1351.52  36
   3 -10   9 30225.7 1324.00  44
   3 -10  10 98160.3 2426.18  36
   3 -10  10 103543. 2396.65  44
   3 -10  11-1.52462 231.538  36
   3 -10  11 220.026 198.054  44
   3 -10  12 27457.8 1186.89  36
   3 -10  13 20732.7 923.346  36
   3 -10  14-37.7828 152.810  36
   3  -9  -6 20217.0 591.843  32
   3  -9  -5 2610.66 295.807  32
   3  -9  -5 1960.34 217.025  47
   3  -9  -4 21949.6 937.464  32
   3  -9  -4 19822.4 794.226  47
   3  -9  -3 57094.9 1648.81  32
   3  -9  -3 53221.6 1441.13  47
   3  -9  -2 1612.74 328.067  32
   3  -9  -2 1194.19 243.262  47
   3  -9  -2 1206.53 263.538  44
   3  -9  -2 2181.63 698.099  22
   3  -9  -1 29913.0 1282.56  32
   3  -9  -1 31099.3 1190.07  47
   3  -9  -1 29991.8 1234.56  44
   3  -9  -1 28139.4 2473.34  22
   3  -9   0 52336.4 1699.80  32
   3  -9   0 53241.7 1711.97  44
   3  -9   0 53971.9 3517.25  22
   3  -9   1 31973.9 1304.27  32
   3  -9   1 32570.2 1365.80  44
   3  -9   1 30660.8 2698.73  22
   3  -9   2 97705.1 2187.67  32
   3  -9   2 97842.3 2381.65  44
   3  -9   2 104308. 4978.78  22
   3  -9   3 10691.7 801.663  44
   3  -9   3 10552.5 1604.34  22
   3  -9   4 29863.6 1311.40  44
   3  -9   4 30167.3 2659.10  22
   3  -9   5 114187. 2283.41  28
   3  -9   5 118616. 2599.75  44
   3  -9   6 18080.8 1023.18  44
   3  -9   7 43896.7 1649.10  36
   3  -9   7 46545.7 1622.55  44
   3  -9   8 79171.0 2248.29  36
   3  -9   8 82578.6 2177.15  44
   3  -9   8 82414.7 2669.37  40
   3  -9   9 6354.89 670.148  36
   3  -9   9 6637.72 635.099  44
   3  -9  10 80162.2 2296.98  36
   3  -9  10 79201.8 2112.49  44
   3  -9  11 48077.1 1741.20  36
   3  -9  12 585.778 284.119  36
   3  -9  13 34966.9 1279.84  36
   3  -9  14 28254.7 973.066  36
   3  -8  -7 2965.32 253.005  32
   3  -8  -6 6165.09 463.884  32
   3  -8  -6 6407.12 442.946  47
   3  -8  -5 33417.8 1228.46  32
   3  -8  -5 30681.6 1109.51  47
   3  -8  -4 396.404 233.748  32
   3  -8  -4 395.867 219.198  47
   3  -8  -4 305.531 215.792  45
   3  -8  -3 117811. 2633.65  32
   3  -8  -3 117601. 2493.32  47
   3  -8  -3 122510. 2685.26  45
   3  -8  -3 116371. 4688.37  22
   3  -8  -2 138744. 2896.60  32
   3  -8  -2 132715. 2710.11  47
   3  -8  -2 141100. 3000.35  45
   3  -8  -2 134238. 5368.72  22
   3  -8  -1 6625.67 644.887  32
   3  -8  -1 6259.17 592.119  47
   3  -8  -1 6397.02 670.861  45
   3  -8  -1 6561.73 592.812  44
   3  -8  -1 7232.75 1333.89  22
   3  -8   0 131096. 2723.12  32
   3  -8   0 128098. 2556.03  47
   3  -8   0 133153. 2661.58  44
   3  -8   0 137238. 5581.19  22
   3  -8   1 38251.6 1435.07  32
   3  -8   1 39530.3 1456.02  44
   3  -8   1 40432.7 3030.65  22
   3  -8   2 21441.2 1024.20  32
   3  -8   2 22111.5 1084.09  44
   3  -8   2 21819.0 2214.86  22
   3  -8   3 90919.1 1989.22  32
   3  -8   3 94468.3 2187.85  44
   3  -8   3 96539.9 4534.65  22
   3  -8   4 60881.4 1756.68  44
   3  -8   4 69753.5 3794.32  22
   3  -8   5 25330.9 1032.32  28
   3  -8   5 25948.9 1150.67  44
   3  -8   5 25979.7 2268.48   9
   3  -8   6 179921. 3048.94  44
   3  -8   6 184738. 6008.07   9
   3  -8   7 32036.9 1406.80  36
   3  -8   7 32198.9 1312.02  44
   3  -8   7 33212.2 2564.03   9
   3  -8   7 32351.1 1670.87  40
   3  -8   8 49686.7 1775.52  36
   3  -8   8 48747.3 1628.30  44
   3  -8   8 53960.8 2181.73  40
   3  -8   9 120256. 2823.10  36
   3  -8   9 121300. 2602.73  44
   3  -8   9 122629. 3215.34  40
   3  -8  10 4657.79 587.960  36
   3  -8  10 4220.26 512.775  44
   3  -8  11 82791.5 2324.77  36
   3  -8  12 36529.7 1480.54  36
   3  -8  13 832.336 283.488  36
   3  -8  14 43665.9 1239.49  36
   3  -7  -8 7007.10 377.978  32
   3  -7  -8 7165.45 377.496  47
   3  -7  -7 19733.0 820.627  32
   3  -7  -7 18567.2 792.735  47
   3  -7  -6 6515.03 578.044  32
   3  -7  -6 6107.88 554.536  47
   3  -7  -5 20594.6 1102.78  32
   3  -7  -5 18223.9 961.298  45
   3  -7  -4 63769.6 2002.73  32
   3  -7  -4 62871.0 1909.36  45
   3  -7  -4 59440.5 3334.33  24
   3  -7  -3 7494.62 711.114  32
   3  -7  -3 8137.10 727.174  45
   3  -7  -3 5005.45 1001.26  24
   3  -7  -3 6102.66 1147.05  22
   3  -7  -2 147055. 3038.97  32
   3  -7  -2 149427. 3073.84  45
   3  -7  -2 151201. 5733.05  22
   3  -7  -1 160631. 3081.72  32
   3  -7  -1 152511. 2947.88  47
   3  -7  -1 163416. 3190.03  45
   3  -7  -1 161302. 5856.27  22
   3  -7   0 21499.1 1082.26  32
   3  -7   0 20980.9 1043.96  47
   3  -7   0 21382.7 1121.84  45
   3  -7   0 21168.4 998.041  44
   3  -7   0 20715.4 2113.50  22
   3  -7   1 93254.6 2124.40  32
   3  -7   1 91819.2 2063.03  47
   3  -7   1 90516.0 2014.30  44
   3  -7   1 97837.3 4393.34  22
   3  -7   2 12865.9 756.193  32
   3  -7   2 12906.1 749.127  44
   3  -7   2 13856.0 1643.62  22
   3  -7   3 10806.1 679.259  44
   3  -7   3 10493.5 1392.49  22
   3  -7   4 140074. 2440.76  44
   3  -7   4 140491. 5018.88  22
   3  -7   5 47813.8 1440.38  44
   3  -7   5 44648.8 2768.51   9
   3  -7   6 83807.2 1961.43  44
   3  -7   6 86430.7 3862.41   9
   3  -7   6 79247.8 2400.11  40
   3  -7   7 208343. 3454.45  36
   3  -7   7 205566. 3194.92  44
   3  -7   7 210463. 6149.83   9
   3  -7   8 14372.2 948.197  36
   3  -7   8 14152.8 866.919  44
   3  -7   8 13927.9 1639.84   9
   3  -7   9 202607. 3626.44  36
   3  -7   9 195866. 3264.23  44
   3  -7   9 203576. 3977.78  40
   3  -7  10 146409. 3138.45  36
   3  -7  10 150468. 3308.29  40
   3  -7  11 274.385 256.909  36
   3  -7  12 56220.5 1837.03  36
   3  -7  13 33208.6 1274.43  36
   3  -7  14 8100.17 546.314  36
   3  -6  -9 31582.6 737.827  32
   3  -6  -9 33396.0 827.658  47
   3  -6  -8 4020.69 383.656  32
   3  -6  -8 3832.71 395.827  47
   3  -6  -7 12098.2 767.856  32
   3  -6  -6 57608.2 1837.67  32
   3  -6  -6 52656.6 1540.57  45
   3  -6  -6 54696.4 3270.87  24
   3  -6  -5 8977.31 790.580  32
   3  -6  -5 8252.28 682.038  45
   3  -6  -5 7608.98 1324.28  24
   3  -6  -4 61370.1 2024.63  32
   3  -6  -4 58908.5 1898.11  45
   3  -6  -4 59705.1 3692.62  24
   3  -6  -3 65455.4 2066.49  32
   3  -6  -3 60713.7 1926.46  45
   3  -6  -3 61973.9 3311.11   5
   3  -6  -3 64076.9 3739.37  24
   3  -6  -3 65211.9 3590.31  22
   3  -6  -2 778.292 265.809  32
   3  -6  -2 950.646 275.582  45
   3  -6  -2 195.589 290.338   5
   3  -6  -2 653.240 505.607  24
   3  -6  -2 754.204 460.008  22
   3  -6  -1 202593. 3288.03  32
   3  -6  -1 205006. 3330.73  47
   3  -6  -1 205006. 3302.83  45
   3  -6  -1 199423. 6244.09   5
   3  -6  -1 196621. 5941.82  24
   3  -6  -1 201913. 6139.68  22
   3  -6   0 78697.0 1923.99  32
   3  -6   0 81818.2 4013.65   5
   3  -6   0 80821.2 3580.55  24
   3  -6   0 82257.4 3767.34  22
   3  -6   1 15196.5 1739.08   5
   3  -6   1 16303.8 1635.76  22
   3  -6   2 107045. 4603.75   5
   3  -6   2 114442. 4220.93  22
   3  -6   3 83229.1 3561.71  22
   3  -6   4 62119.0 3007.22   9
   3  -6   5 198137. 5380.28   9
   3  -6   6 8864.34 607.829  44
   3  -6   6 7888.87 1121.16   9
   3  -6   6 10795.8 931.773  40
   3  -6   7 93926.4 2245.61  36
   3  -6   7 92205.1 2046.41  44
   3  -6   7 93086.7 3907.81   9
   3  -6   7 91400.6 2568.26  40
   3  -6   8 164683. 3082.12  36
   3  -6   8 157220. 2798.64  44
   3  -6   8 152468. 5164.58   9
   3  -6   8 154065. 3381.44  40
   3  -6   9 2293.19 411.393  36
   3  -6   9 1547.02 322.842  44
   3  -6  10 79057.0 2265.91  36
   3  -6  11 73318.2 2155.75  36
   3  -6  12 488.774 265.921  36
   3  -6  13 90063.3 2041.97  36
   3  -6  14 32922.3 1029.38  36
   3  -5 -10 6772.80 366.453  47
   3  -5  -9 15422.0 678.039  32
   3  -5  -9 16751.5 775.488  47
   3  -5  -8 30766.6 1163.00  32
   3  -5  -7 2078.56 383.914  32
   3  -5  -7 2272.08 804.694  24
   3  -5  -6 48343.6 1526.96  45
   3  -5  -6 44789.8 3320.48  24
   3  -5  -5 62988.0 1850.14  45
   3  -5  -5 63235.5 3987.87  24
   3  -5  -4 5442.19 562.766  45
   3  -5  -4 4759.06 1152.36  24
   3  -5  -3 104667. 2355.17  45
   3  -5  -3 101232. 4263.40   5
   3  -5  -3 102889. 4768.78  24
   3  -5  -3 107662. 4345.73  22
   3  -5  -2 153551. 2824.67  32
   3  -5  -2 149179. 2687.06  45
   3  -5  -2 151988. 5230.72   5
   3  -5  -2 151288. 5489.02  24
   3  -5  -2 159481. 5127.28  22
   3  -5  -1 992.708 503.942   5
   3  -5  -1 1558.90 604.180  24
   3  -5  -1 1820.26 589.579  22
   3  -5   0 130060. 4780.59   5
   3  -5   0 124464. 4362.68  24
   3  -5   0 123646. 4165.18  22
   3  -5   1 43384.7 2793.64   5
   3  -5   1 41809.8 2351.44  22
   3  -5   2 79062.4 3769.96   5
   3  -5   2 80899.6 3235.34  22
   3  -5   3 581095. 8336.67  21
   3  -5   3 565023. 10135.2   5
   3  -5   4 114887. 3825.16  21
   3  -5   4 110067. 3656.25   9
   3  -5   5 105769. 3678.69   9
   3  -5   6 127415. 4169.63   9
   3  -5   7 2140.83 336.057  36
   3  -5   7 1626.61 298.532  47
   3  -5   7 1783.78 301.427  44
   3  -5   7 2796.70 673.759   9
   3  -5   8 82254.9 2142.71  36
   3  -5   8 81632.8 2109.15  47
   3  -5   8 80075.9 1970.59  44
   3  -5   8 78708.6 3604.46   9
   3  -5   8 84300.8 2299.74  40
   3  -5   9 26812.4 1273.99  36
   3  -5   9 26241.8 1242.14  47
   3  -5   9 23232.1 2036.32   9
   3  -5  10 4937.88 576.995  36
   3  -5  11 54707.0 1829.95  36
   3  -5  12 74095.5 2014.14  36
   3  -5  13 2565.99 362.858  36
   3  -5  14 66668.5 1323.03  36
   3  -4 -10 28024.5 790.994  32
   3  -4 -10 30460.5 990.916  47
   3  -4  -9 812.769 215.804  32
   3  -4  -8 25515.6 1160.75  32
   3  -4  -8 26636.8 2422.51  24
   3  -4  -7 62038.9 3980.04  24
   3  -4  -6 2929.09 964.037  24
   3  -4  -5 98027.5 5054.46  24
   3  -4  -5 97644.5 4392.53   2
   3  -4  -4 104925. 2205.81  45
   3  -4  -4 110167. 4317.79   5
   3  -4  -4 109262. 5098.12  24
   3  -4  -4 115169. 4491.06   2
   3  -4  -3 4468.24 890.147   5
   3  -4  -3 4099.60 991.237  24
   3  -4  -3 3783.74 761.722   2
   3  -4  -3 4160.32 785.386  22
   3  -4  -2 167774. 5235.13   5
   3  -4  -2 164862. 5469.34  24
   3  -4  -2 163475. 4606.68  22
   3  -4  -1 99372.2 3995.84   5
   3  -4  -1 98227.9 3959.60  24
   3  -4  -1 100171. 3446.56  22
   3  -4   0 22901.3 1912.25   5
   3  -4   0 24096.3 1840.41  24
   3  -4   0 24557.4 1657.63  22
   3  -4   1 270631. 6532.57   5
   3  -4   1 266336. 5335.78  22
   3  -4   2 203963. 5724.19   5
   3  -4   2 202589. 4676.66  22
   3  -4   3 138205. 4103.31  21
   3  -4   3 142392. 4791.39   5
   3  -4   3 141744. 3684.66   9
   3  -4   4 518761. 8325.46  21
   3  -4   4 530936. 7311.98   9
   3  -4   5 48255.3 2697.95  21
   3  -4   5 47858.8 2315.04   9
   3  -4   6 76750.5 3101.79   9
   3  -4   6 79450.4 3694.22  21
   3  -4   7 102009. 2170.71  36
   3  -4   7 105220. 2289.34  47
   3  -4   7 101852. 2065.95  44
   3  -4   7 100439. 3763.34   9
   3  -4   7 98436.8 2267.81  40
   3  -4   8 6519.29 594.629  36
   3  -4   8 5869.66 599.670  47
   3  -4   8 7228.63 1104.06   9
   3  -4   9 140813. 2661.67  37
   3  -4   9 149149. 2925.34  36
   3  -4   9 144375. 3004.43  47
   3  -4  10 97453.5 2236.76  37
   3  -4  10 104534. 2478.48  36
   3  -4  11 5112.36 508.977  37
   3  -4  11 5323.41 569.809  36
   3  -4  12 46779.5 1383.09  37
   3  -4  12 45952.3 1501.02  36
   3  -4  13 18243.3 736.656  37
   3  -4  13 18833.3 832.411  36
   3  -4  14 9878.15 480.602  36
   3  -3 -11 277.517 136.090  47
   3  -3 -10 25057.0 876.639  32
   3  -3  -9 29136.5 1150.33  32
   3  -3  -8 1213.63 294.479  32
   3  -3  -8 1353.72 696.898  24
   3  -3  -7 66379.8 4299.61  24
   3  -3  -6 150003. 6438.42  24
   3  -3  -6 145488. 5526.23   2
   3  -3  -5 3108.33 723.621   5
   3  -3  -5 3422.49 1034.37  24
   3  -3  -5 3397.68 815.236   2
   3  -3  -4 81011.1 3614.90   5
   3  -3  -4 85182.1 4335.06  24
   3  -3  -3 156935. 4946.26   5
   3  -3  -3 155594. 5423.89  24
   3  -3  -2 4102.07 822.582   5
   3  -3  -2 6463.29 1054.24  24
   3  -3  -2 4381.99 663.458  22
   3  -3  -1 181116. 5160.80   5
   3  -3  -1 180903. 5067.54  24
   3  -3  -1 176326. 3971.98  22
   3  -3   0 37786.2 2332.32   5
   3  -3   0 36879.5 2186.98  24
   3  -3   0 37963.8 1820.54  22
   3  -3   1 65965.5 3073.43   5
   3  -3   1 65780.6 2402.62  22
   3  -3   2 440017. 7872.13   5
   3  -3   3 52189.9 2532.03  21
   3  -3   3 53290.2 2744.64   5
   3  -3   3 52017.6 2011.36   9
   3  -3   4 167102. 4784.56  21
   3  -3   4 166065. 3790.43   9
   3  -3   5 233233. 4831.10   9
   3  -3   5 238846. 6184.63  21
   3  -3   6 1243.07 553.480  21
   3  -3   6 829.582 360.511   9
   3  -3   7 195818. 2917.58  36
   3  -3   7 195716. 3220.29  47
   3  -3   7 198056. 5161.55   9
   3  -3   8 155990. 2806.64  36
   3  -3   8 157915. 3099.31  47
   3  -3   9 6073.10 596.629  37
   3  -3   9 6568.92 616.377  36
   3  -3   9 7060.68 686.451  47
   3  -3  10 166882. 3087.26  37
   3  -3  10 174025. 3115.90  36
   3  -3  11 131813. 2615.96  37
   3  -3  11 137192. 2663.26  36
   3  -3  12 3694.98 415.920  37
   3  -3  12 3288.00 403.783  36
   3  -3  13 45731.1 1179.36  37
   3  -3  13 47009.1 1117.91  36
   3  -2 -10 318.368 146.514  32
   3  -2  -9 27468.1 1150.67  32
   3  -2  -9 28642.0 2683.86  24
   3  -2  -8 104634. 2408.01  32
   3  -2  -8 106572. 5405.18  24
   3  -2  -7 6802.57 1449.04  24
   3  -2  -7 8837.83 1427.99   2
   3  -2  -6 144666. 4800.82   5
   3  -2  -6 156008. 6426.02  24
   3  -2  -5 168566. 2859.08  15
   3  -2  -5 162036. 5102.65   5
   3  -2  -5 168653. 6235.81  24
   3  -2  -4 717.354 272.202  15
   3  -2  -4 544.899 396.924   5
   3  -2  -4 397.714 456.248  24
   3  -2  -3 178770. 2664.43  15
   3  -2  -3 172905. 5051.36   5
   3  -2  -3 178403. 5406.02  24
   3  -2  -2 83646.1 3451.21   5
   3  -2  -2 81835.4 3402.99  24
   3  -2  -1 28203.3 1979.76   5
   3  -2  -1 29112.4 1936.38  24
   3  -2  -1 27382.8 1347.97  22
   3  -2   0 148456. 4429.16   5
   3  -2   0 137210. 3060.25  22
   3  -2   1 207858. 5165.05   5
   3  -2   2 47891.3 2430.11   5
   3  -2   2 46825.2 1632.55   9
   3  -2   3 349603. 6632.82  21
   3  -2   3 344817. 6430.21   5
   3  -2   3 343264. 4692.56   9
   3  -2   4 114792. 4074.69  21
   3  -2   4 109520. 3451.19   5
   3  -2   4 106536. 2854.43   9
   3  -2   5 55270.8 2259.01   9
   3  -2   5 57006.1 3107.29  21
   3  -2   6 142448. 5327.64  21
   3  -2   7 155.133 125.637  36
   3  -2   7 651.851 210.493  38
   3  -2   8 149949. 2682.31  36
   3  -2   8 156930. 3128.24  47
   3  -2   8 152336. 2737.03  38
   3  -2   9 88634.0 2291.12  37
   3  -2   9 87114.0 2130.77  36
   3  -2  10 2504.09 406.972  37
   3  -2  10 1805.43 315.776  36
   3  -2  11 93567.9 2192.04  37
   3  -2  11 89024.7 1987.85  36
   3  -2  12 19878.4 905.336  37
   3  -2  12 20745.2 821.455  36
   3  -2  13 11575.5 573.111  37
   3  -1 -12 1298.89 206.274  47
   3  -1 -10 50515.4 3386.21  24
   3  -1  -9 22805.5 2475.42  24
   3  -1  -8 49568.2 1544.58  32
   3  -1  -8 50225.6 3704.62  24
   3  -1  -7 130885. 2450.10  32
   3  -1  -7 143396. 2746.61  15
   3  -1  -7 131086. 4555.61   5
   3  -1  -7 142381. 6060.77  24
   3  -1  -6 6376.51 518.305  32
   3  -1  -6 6565.73 599.550  15
   3  -1  -6 5441.47 976.998   5
   3  -1  -6 5811.16 1232.24  24
   3  -1  -5 207983. 3080.85  15
   3  -1  -5 207001. 5712.47   5
   3  -1  -5 209410. 6473.18  24
   3  -1  -4 50670.9 1439.52  15
   3  -1  -4 52154.1 2789.14   5
   3  -1  -4 53445.6 3039.47  24
   3  -1  -3 193045. 2633.67  15
   3  -1  -3 193868. 5262.33   5
   3  -1  -3 200895. 5397.75  24
   3  -1  -2 467783. 3849.29  15
   3  -1  -2 477749. 8044.81   5
   3  -1  -2 474311. 7782.36  24
   3  -1  -1 73976.0 1438.89  15
   3  -1  -1 76406.6 3152.48   5
   3  -1  -1 76964.6 3001.26  24
   3  -1   0 23678.0 1716.59   5
   3  -1   1 390343. 6696.89   5
   3  -1   2 114737. 3669.14  21
   3  -1   2 111450. 3471.58   5
   3  -1   3 85417.6 3358.33  21
   3  -1   3 81668.5 2824.94   5
   3  -1   4 305149. 6870.28  21
   3  -1   5 22920.2 2055.91  21
   3  -1   6 208619. 6621.85  21
   3  -1   7 274224. 3298.77  36
   3  -1   7 287956. 4117.92  47
   3  -1   7 281273. 3778.76  38
   3  -1   8 36.5484 122.285  36
   3  -1   8 363.992 227.584  47
   3  -1   9 104042. 2489.77  37
   3  -1   9 96930.4 2118.60  36
   3  -1  10 62214.5 1875.16  37
   3  -1  10 55597.5 1534.45  36
   3  -1  11 17161.9 926.564  37
   3  -1  12 52211.8 1385.69  37
   3  -1  13 11910.5 529.166  37
   3   0 -12 33833.1 1011.57  47
   3   0 -10 22728.8 2354.80  24
   3   0  -9 124972. 2563.57  15
   3   0  -9 123826. 5601.26  24
   3   0  -8 24321.8 1144.76  15
   3   0  -8 22921.9 2395.70  24
   3   0  -7 56366.3 1718.96  15
   3   0  -7 50105.7 2907.92   5
   3   0  -7 57698.9 3623.50  24
   3   0  -6 74087.4 1887.44  15
   3   0  -6 70013.0 3401.15   5
   3   0  -6 72938.3 3829.25  24
   3   0  -5 11044.4 708.063  15
   3   0  -5 12699.8 1417.64   5
   3   0  -5 12467.3 1482.48  24
   3   0  -4 298161. 3350.65  15
   3   0  -4 303709. 6703.24   5
   3   0  -4 306471. 6698.76  24
   3   0  -3 230156. 2739.70  15
   3   0  -3 241003. 5780.97   5
   3   0  -3 234486. 5507.01  24
   3   0  -2 5624.25 420.255  15
   3   0  -2 6247.07 947.981   5
   3   0  -2 6630.69 901.952  24
   3   0  -1 138464. 1812.03  15
   3   0  -1 140529. 4145.58   5
   3   0   0 88728.4 3171.36   5
   3   0   1 119718. 3660.29  21
   3   0   1 119851. 3557.40   5
   3   0   2 235951. 5395.44  21
   3   0   2 241019. 4718.60   5
   3   0   3 323.620 327.408  21
   3   0   4 214528. 6044.20  21
   3   0   5 165243. 5698.99  21
   3   0   6 6498.32 605.464  47
   3   0   6 9818.13 712.093  38
   3   0   7 142965. 2962.26  47
   3   0   7 147217. 2842.77  38
   3   0   8 105034. 2520.79  37
   3   0   9 2251.98 403.795  37
   3   0  10 119350. 2541.36  37
   3   0  11 30162.4 1160.54  37
   3   0  12 12301.8 624.421  37
   3   1 -11 42175.1 2909.67  24
   3   1 -10 677.693 211.070  15
   3   1 -10 790.598 520.387  24
   3   1  -9 102444. 2359.92  15
   3   1  -9 98935.7 4788.08  24
   3   1  -8 121711. 2556.80  15
   3   1  -8 113109. 4388.70   5
   3   1  -8 118167. 5132.48  24
   3   1  -7-36.2990 213.538  15
   3   1  -7 651.735 458.703   5
   3   1  -7 148.877 389.323  24
   3   1  -6 99657.3 2146.21  15
   3   1  -6 95026.6 3996.88   5
   3   1  -6 98225.4 4137.36  24
   3   1  -5 140047. 2396.02  15
   3   1  -5 142779. 4770.02   5
   3   1  -5 138807. 4588.26  24
   3   1  -4 1321.52 249.423  15
   3   1  -4 713.726 430.691   5
   3   1  -4 799.252 428.166  24
   3   1  -3 376942. 3388.38  15
   3   1  -3 386330. 7312.77   5
   3   1  -3 386458. 6737.27  24
   3   1  -2 345212. 2976.11  15
   3   1  -2 369392. 6903.64   5
   3   1  -1 1026.66 160.753  15
   3   1  -1 1113.53 435.369   5
   3   1   0 416420. 6705.87   5
   3   1   1 14987.3 1345.56  21
   3   1   1 15874.6 1240.49   5
   3   1   2 336472. 6721.99  21
   3   1   3 397276. 7907.04  21
   3   1   4 1977.88 687.303  21
   3   1   6 130158. 2252.63  30
   3   1   6 136501. 2772.37  47
   3   1   6 136662. 2735.38  38
   3   1   7 131.073 121.925  30
   3   1   7 109.705 158.624  38
   3   1   8 78713.5 2156.30  37
   3   1   8 72702.2 1743.90  30
   3   1   9 81517.7 2132.49  37
   3   1  10 6097.67 576.873  37
   3   1  11 65327.9 1544.32  37
   3   1  12 20366.4 688.691  37
   3   2 -11 49584.3 1538.20  15
   3   2 -11 45666.9 2924.22  24
   3   2 -10 89917.2 2214.37  15
   3   2 -10 86327.5 4243.72  24
   3   2  -9 1168.41 310.367  15
   3   2  -9 1656.16 532.761   5
   3   2  -9 1073.70 628.715  24
   3   2  -8 60494.2 1807.16  15
   3   2  -8 54258.7 3149.40   5
   3   2  -8 57953.9 3341.97  24
   3   2  -7 43583.4 1482.46  15
   3   2  -7 41858.2 2752.91   5
   3   2  -7 42233.7 2741.69  24
   3   2  -6 1968.85 660.463   5
   3   2  -6 1590.35 518.473  24
   3   2  -5 80011.7 3644.86   5
   3   2  -5 80225.8 3278.18  24
   3   2  -4 101209. 3941.76   5
   3   2  -4 101091. 3458.90  24
   3   2  -3 50830.4 2685.55   5
   3   2  -2 418169. 7346.58   5
   3   2  -1 263909. 5550.96   5
   3   2   0 60358.6 2647.75  21
   3   2   0 60976.2 2534.30   5
   3   2   1 225011. 5352.22  21
   3   2   1 227767. 4352.40   5
   3   2   2 9364.31 1201.00  21
   3   2   3 194473. 5797.23  21
   3   2   4 206230. 6425.56  21
   3   2   5 10415.7 661.529  30
   3   2   5 10751.2 753.685  47
   3   2   5 11738.2 796.096  38
   3   2   6 122035. 2341.53  30
   3   2   6 128491. 2694.50  38
   3   2   7 107575. 2480.04  37
   3   2   7 100486. 2156.35  30
   3   2   8 473.905 211.228  37
   3   2   8 171.586 144.313  30
   3   2   9 75469.2 1946.04  37
   3   2   9 70264.9 1625.47  30
   3   2  10 26613.4 1037.44  37
   3   2  11 6743.97 443.541  37
   3   3 -11 3733.68 458.031  15
   3   3 -10 71143.1 2000.16  15
   3   3 -10 71226.5 3592.06  24
   3   3  -9 95992.9 2331.18  15
   3   3  -9 86731.3 4040.09   5
   3   3  -9 90399.4 4024.82  24
   3   3  -8 259.014 210.000  13
   3   3  -8 738.361 457.865   5
   3   3  -8 276.298 310.794  24
   3   3  -7 91277.9 4188.11   5
   3   3  -7 90894.2 2321.33  13
   3   3  -7 90845.0 3717.87  24
   3   3  -6 81222.0 3871.47   5
   3   3  -6 79957.8 2109.82  13
   3   3  -6 80405.8 3306.97  24
   3   3  -5 19535.9 1865.81   5
   3   3  -5 19787.9 1020.75  13
   3   3  -5 19476.9 1557.04  24
   3   3  -4 321035. 7230.61   5
   3   3  -4 324574. 3874.24  13
   3   3  -3 92361.8 3693.42   5
   3   3  -2 64618.8 2939.94   5
   3   3  -1 384214. 6491.88  21
   3   3  -1 378438. 6710.57   5
   3   3   0 28851.4 1899.06  21
   3   3   0 30393.2 1735.07   5
   3   3   1 120665. 4149.72  21
   3   3   2 235086. 6185.51  21
   3   3   3 14047.2 1652.92  21
   3   3   4 52430.8 1579.19  47
   3   3   4 54538.9 1677.20  38
   3   3   5 104735. 2212.40  30
   3   3   5 107712. 2454.46  38
   3   3   6 12896.5 801.997  30
   3   3   6 11863.3 831.641  38
   3   3   7 180725. 3117.28  37
   3   3   7 174755. 2881.47  30
   3   3   8 97190.9 2189.07  37
   3   3   8 94053.9 1997.83  30
   3   3   9 4947.63 476.481  37
   3   3   9 4625.97 414.038  30
   3   3  10 76389.0 1496.95  37
   3   3  11 31802.7 727.114  37
   3   4 -11 90978.6 2216.82  15
   3   4  -9 87886.6 4258.66   5
   3   4  -9 85877.2 2340.64  13
   3   4  -8 107884. 4749.15   5
   3   4  -8 103856. 2594.10  13
   3   4  -7 6035.15 1144.66   5
   3   4  -7 6218.37 652.701  13
   3   4  -7 7797.41 1022.14  24
   3   4  -6 144739. 5370.09   5
   3   4  -6 142804. 2912.65  13
   3   4  -5 117682. 4691.59   5
   3   4  -5 117138. 2483.15  13
   3   4  -4 47392.5 2879.85   5
   3   4  -4 46199.2 1478.83  13
   3   4  -4 42982.6 1930.70   1
   3   4  -3 200243. 4549.13  21
   3   4  -3 196365. 5538.89   5
   3   4  -2 124729. 3695.83  21
   3   4  -2 129688. 4249.51   5
   3   4  -1 24641.7 1736.96  21
   3   4  -1 26484.6 1766.96   5
   3   4   0 142104. 4417.14  21
   3   4   1 20071.5 1782.95  21
   3   4   2 149116. 5127.42  21
   3   4   3 163748. 2637.03  47
   3   4   3 174783. 2944.27  38
   3   4   4 7275.98 600.741  30
   3   4   4 7668.28 657.169  38
   3   4   5 95201.9 2181.04  30
   3   4   5 98113.4 2339.42  38
   3   4   6 30562.3 1259.86  37
   3   4   6 29819.7 1222.08  30
   3   4   7 24468.4 1081.07  37
   3   4   7 24660.1 1071.09  30
   3   4   8 92059.9 1917.61  37
   3   4   8 90753.1 1861.86  30
   3   4   9 20853.3 791.641  37
   3   4  10 4177.08 282.772  37
   3   5 -10 102060. 2574.83  13
   3   5  -9 1200.74 347.279  13
   3   5  -9 2005.24 723.545   5
   3   5  -8 120395. 5203.82   5
   3   5  -8 120621. 2884.43  13
   3   5  -8 111505. 4466.54   1
   3   5  -7 46164.0 2684.72   1
   3   5  -7 48670.6 3295.08   5
   3   5  -7 47212.4 1776.42  13
   3   5  -6 34000.7 2112.24   1
   3   5  -6 35841.9 2792.49   5
   3   5  -6 39437.3 1540.23  13
   3   5  -5 287532. 7663.16   5
   3   5  -5 284659. 3876.91  13
   3   5  -4 71527.6 3637.57   5
   3   5  -4 73200.8 1829.17  13
   3   5  -3 10254.5 1045.11  21
   3   5  -3 8660.65 1216.70   5
   3   5  -2 146137. 4111.44  21
   3   5  -2 147965. 4586.29   5
   3   5  -1 31437.9 2036.96  21
   3   5   0 54625.4 2901.51   8
   3   5   0 59704.4 2971.52  21
   3   5   1 321699. 6753.87   8
   3   5   1 340742. 7549.94  21
   3   5   2 16772.0 811.109  41
   3   5   2 16977.3 904.507  38
   3   5   3 189603. 3133.42  38
   3   5   4 358243. 4271.81  30
   3   5   4 345481. 4311.36  38
   3   5   5 4781.42 496.467  37
   3   5   5 4916.93 517.100  30
   3   5   6 56468.6 1579.99  37
   3   5   6 58118.6 1664.82  30
   3   5   7 16710.9 800.969  37
   3   5   7 16875.6 837.289  30
   3   5   8 19292.0 746.280  37
   3   5   8 20444.4 801.454  30
   3   5   9 37242.3 792.035  37
   3   6 -11 1285.76 330.943  13
   3   6 -10 62673.0 2075.95  13
   3   6  -9 62492.7 2110.84  13
   3   6  -8 4421.28 598.300  13
   3   6  -8 4157.14 1000.06   5
   3   6  -8 3570.33 818.036   1
   3   6  -8 4044.09 984.819   8
   3   6  -7 94571.4 3771.45   1
   3   6  -7 100833. 4898.63   5
   3   6  -7 95938.6 2526.64  13
   3   6  -7 97903.3 1986.67  42
   3   6  -7 100462. 4673.05   8
   3   6  -6 88607.9 4516.36   5
   3   6  -6 90469.7 2319.90  13
   3   6  -6 84874.2 1823.90  42
   3   6  -5 8648.76 1395.74   5
   3   6  -5 10948.6 771.625  13
   3   6  -4 68740.7 3658.47   5
   3   6  -4 75056.4 1822.59  13
   3   6  -3 9916.17 1311.28   5
   3   6  -3 9623.42 1374.40   8
   3   6  -2 70744.8 3610.88   8
   3   6  -1 86152.3 1929.73  41
   3   6  -1 79738.8 3747.02   8
   3   6   0 5237.64 473.129  54
   3   6   0 5368.03 492.934  41
   3   6   0 5896.15 1025.73   8
   3   6   0 4697.32 452.462  38
   3   6   1 139311. 2476.06  41
   3   6   1 135001. 2470.31  38
   3   6   2 170260. 2691.66  54
   3   6   2 164768. 2694.22  41
   3   6   2 165529. 2834.62  38
   3   6   3 16063.7 831.996  54
   3   6   3 18682.2 990.626  30
   3   6   3 17782.1 954.889  38
   3   6   4 74716.3 1769.94  37
   3   6   4 76383.6 1980.90  30
   3   6   5 65981.3 1602.99  37
   3   6   5 69771.3 1844.32  30
   3   6   6 6868.87 487.842  37
   3   6   6 6612.48 554.384  30
   3   6   7 70970.5 1309.87  37
   3   6   7 75384.1 1564.68  30
   3   7 -11 24567.4 1257.25  13
   3   7  -9 122969. 2950.20  13
   3   7  -8 77672.3 4441.39   5
   3   7  -8 74834.4 2278.14  13
   3   7  -8 70427.5 1720.35  42
   3   7  -8 78096.0 4171.44   8
   3   7  -7 3340.25 511.204  13
   3   7  -7 3334.48 925.897   5
   3   7  -7 4007.79 417.977  42
   3   7  -7 3695.10 1030.03   8
   3   7  -6 207533. 7022.03   5
   3   7  -6 224368. 3526.19  13
   3   7  -6 218039. 3118.28  27
   3   7  -6 217910. 3037.21  42
   3   7  -6 219739. 7083.62   8
   3   7  -5 131537. 5397.87   5
   3   7  -5 140785. 2597.88  13
   3   7  -5 134512. 2436.54  27
   3   7  -5 129155. 2358.19  42
   3   7  -5 134859. 5497.58   8
   3   7  -4 8097.27 1272.85   5
   3   7  -4 14709.4 795.003  13
   3   7  -4 11120.9 716.246  27
   3   7  -4 11423.9 720.851  42
   3   7  -4 11596.3 745.299  41
   3   7  -4 8909.31 1410.06   8
   3   7  -3 169214. 2812.69  54
   3   7  -3 171702. 5282.27   5
   3   7  -3 170281. 2820.41  27
   3   7  -3 169902. 2851.61  41
   3   7  -3 168234. 5941.73   8
   3   7  -2 21966.4 1025.06  54
   3   7  -2 23687.2 1081.12  41
   3   7  -2 24888.5 2248.47   8
   3   7  -1 61805.7 1712.22  54
   3   7  -1 60708.4 1732.63  41
   3   7  -1 56029.8 3233.70   8
   3   7   0 124398. 2433.70  54
   3   7   0 124373. 2475.26  41
   3   7   0 120750. 2235.13  38
   3   7   1 696.900 211.254  54
   3   7   1 545.536 196.494  41
   3   7   2 54578.2 1590.62  54
   3   7   2 52332.4 1650.98  30
   3   7   2 50496.2 1525.59  38
   3   7   3 60279.3 1622.75  54
   3   7   3 61459.9 1771.68  30
   3   7   4 160.676 120.309  54
   3   7   4 205.261 202.600  30
   3   7   5 44306.7 1363.06  30
   3   7   6 28692.5 976.613  30
   3   7   7 1606.88 213.781  30
   3   8 -11 38634.6 1549.57  13
   3   8  -9 3166.06 529.093  13
   3   8  -9 3125.55 409.915  27
   3   8  -8 62928.4 1993.42  13
   3   8  -8 63306.1 1752.80  27
   3   8  -7 41794.0 3239.35   5
   3   8  -7 47427.3 1667.40  13
   3   8  -7 45004.2 1476.73  27
   3   8  -6 56812.4 1715.43  13
   3   8  -6 51776.1 1593.66  27
   3   8  -6 55728.2 1592.23  42
   3   8  -6 52657.0 3534.75   8
   3   8  -5 198592. 6515.23   5
   3   8  -5 224315. 3116.21  13
   3   8  -5 206745. 3206.60  27
   3   8  -5 219859. 3415.30  41
   3   8  -5 219139. 7083.24   8
   3   8  -4 51516.6 1653.59  54
   3   8  -4 54659.6 1663.11  27
   3   8  -4 52834.8 1682.80  41
   3   8  -4 57928.3 3604.00   8
   3   8  -3 56402.5 1729.90  54
   3   8  -3 52201.2 1676.71  41
   3   8  -3 48693.8 3240.38   8
   3   8  -2 116823. 2479.43  54
   3   8  -2 117382. 2506.40  41
   3   8  -2 113378. 4727.12   8
   3   8  -1 10532.4 743.970  54
   3   8  -1 11197.1 777.101  41
   3   8   0 92586.6 2153.19  54
   3   8   0 92434.2 2163.69  41
   3   8   1 68433.3 1824.22  54
   3   8   2 162.373 126.226  54
   3   8   2 277.824 197.198  30
   3   8   3 67967.9 1650.48  54
   3   8   3 69894.6 1795.36  30
   3   8   4 37306.2 1222.98  30
   3   8   5 4345.71 386.611  30
   3   8   6 41043.4 947.823  30
   3   9 -12 25034.3 973.198  41
   3   9 -11 294.798 153.695  27
   3   9 -10 78156.9 2149.10  13
   3   9 -10 76882.5 1796.96  27
   3   9  -9 83542.1 2237.64  13
   3   9  -9 84826.2 1961.90  27
   3   9  -8 8388.43 638.579  27
   3   9  -8 7725.01 670.175  41
   3   9  -7 46099.9 1546.47  13
   3   9  -7 41634.9 1426.82  27
   3   9  -7 44237.5 1580.87  41
   3   9  -6 3664.77 490.450  54
   3   9  -6 4264.46 479.173  27
   3   9  -6 4173.75 507.590  41
   3   9  -5 73027.9 2032.28  54
   3   9  -5 73052.0 2029.73  41
   3   9  -4 161461. 3005.68  54
   3   9  -4 159750. 3016.98  41
   3   9  -3 19396.3 1048.69  54
   3   9  -3 19965.4 1062.76  41
   3   9  -2 39257.5 1467.27  54
   3   9  -2 39466.8 1463.50  41
   3   9  -1 133468. 2633.15  54
   3   9  -1 134829. 2647.55  41
   3   9   0 4916.18 508.378  54
   3   9   0 5677.82 539.315  30
   3   9   0 4730.72 500.420  41
   3   9   1 39255.5 1332.89  54
   3   9   1 38682.9 1339.06  30
   3   9   2 48373.6 1390.14  54
   3   9   2 49745.6 1450.95  30
   3   9   3 1804.18 261.062  54
   3   9   3 1606.26 287.974  30
   3   9   4 66226.7 1364.92  30
   3   9   5 26792.4 718.701  30
   3  10 -14 26404.0 759.635  54
   3  10 -12 46329.3 1211.62  41
   3  10 -11 53576.0 1490.82  41
   3  10 -10 3090.15 407.729  41
   3  10  -9 50693.4 1591.59  13
   3  10  -9 51434.0 1442.06  27
   3  10  -9 54204.8 1668.82  41
   3  10  -8 24296.1 1195.69  54
   3  10  -8 23804.1 1022.00  27
   3  10  -8 23515.2 1134.14  41
   3  10  -7 14941.0 955.760  54
   3  10  -7 16149.6 958.392  41
   3  10  -6 53011.6 1772.90  54
   3  10  -6 52905.0 1737.58  41
   3  10  -5 4982.94 558.095  54
   3  10  -5 5581.50 587.645  41
   3  10  -4 33796.3 1373.65  41
   3  10  -4 35077.6 1411.44  54
   3  10  -3 99935.4 2341.45  54
   3  10  -3 100413. 2339.00  41
   3  10  -2 32625.3 1307.69  54
   3  10  -2 34015.1 1333.55  41
   3  10  -1 40555.0 1398.04  54
   3  10  -1 38772.8 1303.35  30
   3  10   0 57796.3 1592.89  54
   3  10   0 57857.8 1538.01  30
   3  10   1 552.794 196.794  54
   3  10   1 91.0082 150.478  30
   3  10   2 48794.2 1211.45  54
   3  10   2 50860.9 1251.64  30
   3  10   3 33944.2 893.582  30
   3  10   4 1964.08 184.051  30
   3  11 -13 22755.8 782.944  54
   3  11 -12 1692.76 291.204  54
   3  11 -11 78979.5 1837.68  54
   3  11 -11 76505.5 1599.49  41
   3  11 -10 24058.2 1097.77  54
   3  11 -10 23013.9 985.353  41
   3  11  -9 23094.1 1108.57  54
   3  11  -9 20302.9 971.043  41
   3  11  -8 75807.2 2025.03  54
   3  11  -8 72186.1 1886.41  41
   3  11  -7 9079.46 731.185  54
   3  11  -7 9427.37 717.024  41
   3  11  -6 21583.5 1095.21  54
   3  11  -6 22724.8 993.429  53
   3  11  -6 20603.4 1044.51  41
   3  11  -5 49810.2 1635.80  54
   3  11  -5 46595.3 1320.21  53
   3  11  -5 47813.5 1572.10  41
   3  11  -4 17549.7 966.065  54
   3  11  -4 18804.3 982.785  41
   3  11  -3 8879.73 675.973  54
   3  11  -3 8455.26 659.967  41
   3  11  -2 73331.9 1818.53  54
   3  11  -2 74414.7 1639.18  30
   3  11  -1 2327.32 342.979  54
   3  11  -1 3069.03 341.307  30
   3  11   0 47209.8 1260.94  54
   3  11   0 46933.9 1177.86  30
   3  11   1 47987.5 1124.18  54
   3  11   1 51530.0 1104.97  30
   3  11   2 99.4044 88.4864  30
   3  12 -12 26376.6 849.027  54
   3  12 -11 11460.1 635.269  54
   3  12 -11 10170.7 489.055  41
   3  12 -10 75223.1 1720.49  54
   3  12 -10 72380.3 1498.29  41
   3  12  -9 30129.2 1151.99  54
   3  12  -9 29861.4 1051.76  41
   3  12  -8 7151.79 598.046  54
   3  12  -8 6593.96 527.726  41
   3  12  -7 40119.3 1381.53  54
   3  12  -7 39010.3 1189.79  53
   3  12  -7 38889.3 1281.70  41
   3  12  -6 1606.76 332.559  54
   3  12  -6 1703.99 282.923  53
   3  12  -6 1897.53 324.436  41
   3  12  -5 22445.0 1017.68  54
   3  12  -5 21432.2 958.385  41
   3  12  -4 44630.3 1373.74  54
   3  12  -4 41704.4 1067.64  30
   3  12  -4 43322.8 1332.54  41
   3  12  -3 4269.21 433.665  54
   3  12  -3 4426.62 348.829  30
   3  12  -2 33831.1 1072.60  54
   3  12  -2 32670.1 876.153  30
   3  12  -1 29113.1 900.919  54
   3  12  -1 28777.7 753.581  30
   3  12   0 1552.93 201.709  54
   3  12   0 1369.79 153.568  30
   3  13 -12 33830.6 784.049  53
   3  13 -11 15851.6 614.407  54
   3  13 -11 17420.1 639.238  53
   3  13 -10 2710.92 298.397  54
   3  13 -10 2256.58 215.314  41
   3  13  -9 39150.4 1120.39  54
   3  13  -9 37277.1 1008.25  53
   3  13  -9 35399.8 937.072  41
   3  13  -8 19185.0 815.527  54
   3  13  -8 17303.1 686.755  53
   3  13  -8 18879.3 732.941  41
   3  13  -7 10284.2 613.719  54
   3  13  -7 9085.25 476.982  53
   3  13  -7 9221.03 536.510  41
   3  13  -6 46502.1 1262.63  54
   3  13  -5 10564.2 594.641  54
   3  13  -4 16290.0 700.203  54
   3  13  -3 42243.1 1035.47  54
   3  13  -2 175.572 103.491  54
   3  14  -9 8312.39 405.257  54
   3  14  -8 32883.2 838.391  54
   3  14  -7 1781.60 218.978  54
   3  14  -6 21646.3 680.285  54
   3  14  -5 47349.6 947.375  54
   4 -13   4 2651.58 230.471  44
   4 -13   5 9773.68 481.565  44
   4 -13   6 25284.4 812.966  44
   4 -13   7 10415.5 536.751  44
   4 -13   8 8562.57 487.757  44
   4 -13   9 18912.5 682.361  44
   4 -12   2 6133.89 358.660  44
   4 -12   3 12779.3 601.917  44
   4 -12   4 37246.0 983.129  36
   4 -12   4 36659.2 1101.99  44
   4 -12   5 3564.85 333.374  36
   4 -12   5 3394.83 377.878  44
   4 -12   6 17650.2 753.564  36
   4 -12   6 18110.3 847.954  44
   4 -12   7 37680.6 1114.39  36
   4 -12   7 39520.9 1251.46  44
   4 -12   8 521.496 180.465  36
   4 -12   8 588.284 211.480  44
   4 -12   9 47443.0 1214.02  36
   4 -12   9 49453.2 1335.39  44
   4 -12  10 19362.4 735.199  36
   4 -12  11 796.836 155.723  36
   4 -11  -1 16984.8 542.237  31
   4 -11   0 3593.92 293.318  31
   4 -11   1 942.422 182.464  31
   4 -11   2 23524.1 899.894  44
   4 -11   3 10239.9 655.711  44
   4 -11   4 17054.5 884.092  44
   4 -11   5 66568.1 1717.31  36
   4 -11   5 66182.2 1775.87  44
   4 -11   6 6638.07 572.044  36
   4 -11   6 6481.58 591.044  44
   4 -11   7 54339.9 1589.94  36
   4 -11   7 55163.0 1648.12  44
   4 -11   8 43155.4 1413.76  36
   4 -11   8 43411.4 1446.98  44
   4 -11   9 7289.94 591.245  36
   4 -11   9 7113.63 592.986  44
   4 -11  10 20143.5 911.499  36
   4 -11  10 21049.0 932.469  44
   4 -11  11 23203.1 901.274  36
   4 -11  12 1722.59 238.259  36
   4 -10  -3 43617.2 926.469  31
   4 -10   1 4090.04 428.392  31
   4 -10   1 3915.46 401.051  44
   4 -10   2 17065.4 850.028  31
   4 -10   2 16197.1 858.437  44
   4 -10   3 70903.2 1699.15  31
   4 -10   3 71640.6 1877.33  44
   4 -10   4 15115.3 894.281  44
   4 -10   5 41179.0 1492.49  44
   4 -10   6 103475. 2410.66  36
   4 -10   6 99346.3 2323.67  44
   4 -10   7 292.979 215.382  36
   4 -10   7 179.707 190.206  44
   4 -10   8 73045.3 2027.99  36
   4 -10   8 74415.2 1988.39  44
   4 -10   9 23504.2 1140.18  36
   4 -10   9 23645.0 1108.38  44
   4 -10  10 1269.97 324.667  36
   4 -10  10 1165.64 299.665  44
   4 -10  11 42698.3 1379.03  36
   4 -10  12 25706.7 957.840  36
   4 -10  13 711.814 160.838  36
   4  -9  -4 11858.3 574.920  32
   4  -9  -4 9266.12 426.671  47
   4  -9  -3 8027.64 552.844  32
   4  -9  -3 7793.34 484.316  47
   4  -9  -2 45610.2 1416.90  32
   4  -9  -2 43611.9 1263.37  47
   4  -9  -1 1786.00 340.678  32
   4  -9  -1 1632.76 289.554  47
   4  -9   0 9088.83 701.199  32
   4  -9   0 9457.94 655.753  47
   4  -9   0 9418.92 1325.22  22
   4  -9   1 65873.3 1727.43  47
   4  -9   1 69562.2 1774.81  44
   4  -9   1 69554.8 3726.66  22
   4  -9   2 19039.1 1009.78  31
   4  -9   2 19527.3 990.007  44
   4  -9   3 22951.6 1075.23  31
   4  -9   3 23325.1 1112.30  44
   4  -9   4 63683.8 1737.72  31
   4  -9   4 66229.1 1893.68  44
   4  -9   5 1997.49 363.652  44
   4  -9   6 62739.5 1986.82  36
   4  -9   6 63955.2 1881.79  44
   4  -9   7 43917.8 1668.04  36
   4  -9   7 44394.6 1574.41  44
   4  -9   8 9245.18 782.439  36
   4  -9   8 8415.83 703.744  44
   4  -9   9 32858.6 1424.38  36
   4  -9   9 33063.0 1340.60  44
   4  -9  10 76491.3 2088.85  36
   4  -9  11 123.297 219.165  36
   4  -9  12 42320.1 1314.67  36
   4  -9  13 19357.9 754.620  36
   4  -8  -6 17892.6 577.750  32
   4  -8  -5 360.441 159.526  32
   4  -8  -5 330.842 141.149  47
   4  -8  -4 43875.2 1371.14  32
   4  -8  -4 39991.8 1225.06  47
   4  -8  -3 17301.8 959.445  32
   4  -8  -3 15787.7 858.409  47
   4  -8  -2 31557.6 1353.48  32
   4  -8  -2 29609.5 1240.99  47
   4  -8  -1 48023.3 1698.23  32
   4  -8  -1 44784.7 1559.14  47
   4  -8   0 19816.2 1102.26  32
   4  -8   0 17875.6 1002.14  47
   4  -8   0 20154.2 2020.91  22
   4  -8   1 37370.3 1484.23  32
   4  -8   1 36034.9 1411.49  47
   4  -8   1 35835.3 2747.76  22
   4  -8   2 120193. 2536.73  47
   4  -8   2 124984. 2461.23  44
   4  -8   2 124296. 5150.55  22
   4  -8   3 24830.9 1166.17  31
   4  -8   3 23699.9 1115.07  47
   4  -8   3 25370.3 1130.27  44
   4  -8   4 23983.8 1108.77  31
   4  -8   4 25161.4 1145.88  44
   4  -8   5 51267.3 1579.23  31
   4  -8   5 56067.5 1725.70  44
   4  -8   6 3222.42 484.589  36
   4  -8   6 3175.30 434.850  44
   4  -8   7 98771.2 2533.37  36
   4  -8   7 100305. 2345.47  44
   4  -8   8 23212.1 1239.60  36
   4  -8   8 22658.7 1135.89  44
   4  -8   9 228.943 232.398  36
   4  -8   9 737.977 264.173  44
   4  -8  10 112388. 2591.31  36
   4  -8  11 49486.1 1619.09  36
   4  -8  12 9982.25 674.065  36
   4  -8  13 55681.8 1313.99  36
   4  -7  -7 293.317 105.133  32
   4  -7  -7 152.966 94.5660  47
   4  -7  -6 22734.0 862.366  32
   4  -7  -6 22688.8 859.927  47
   4  -7  -5 30889.3 1189.50  32
   4  -7  -5 28484.1 1126.22  47
   4  -7  -4 6104.70 626.515  32
   4  -7  -4 6413.27 611.486  47
   4  -7  -3 83127.0 2282.61  32
   4  -7  -3 78091.1 2169.71  47
   4  -7  -2 2878.28 477.776  32
   4  -7  -2 2540.47 426.860  47
   4  -7  -1 14862.4 995.158  32
   4  -7  -1 15564.2 991.707  47
   4  -7   0 92078.3 2390.45  32
   4  -7   0 88038.5 2320.21  47
   4  -7   0 94597.6 4283.83  22
   4  -7   1 14863.4 945.077  32
   4  -7   1 13555.6 907.590  47
   4  -7   1 14580.5 1706.29  22
   4  -7   2 31660.2 1345.50  47
   4  -7   2 33010.6 1212.35  44
   4  -7   3 77359.8 2039.60  31
   4  -7   3 78637.1 2071.38  47
   4  -7   3 82385.3 1934.44  44
   4  -7   4 10649.5 748.056  31
   4  -7   4 10312.0 750.712  47
   4  -7   4 10683.0 719.985  44
   4  -7   5 41547.8 1429.39  31
   4  -7   5 42044.2 1498.43  47
   4  -7   5 42642.2 1462.77  44
   4  -7   6 75821.1 2180.09  36
   4  -7   6 74281.5 2006.71  47
   4  -7   6 75366.0 1974.43  44
   4  -7   7 4087.77 531.357  36
   4  -7   7 3480.56 454.782  47
   4  -7   7 3969.55 481.294  44
   4  -7   8 79932.4 2258.49  36
   4  -7   8 76880.7 2061.34  44
   4  -7   9 176297. 3311.95  36
   4  -7  10 528.805 261.298  36
   4  -7  11 60922.9 1802.00  36
   4  -7  12 5204.71 500.193  36
   4  -7  13 29243.3 943.543  36
   4  -6  -8 23574.5 696.473  47
   4  -6  -7 30034.3 979.470  32
   4  -6  -7 28744.5 1004.02  47
   4  -6  -6 249.154 195.315  32
   4  -6  -6 533.802 255.249  47
   4  -6  -5 47616.5 1661.78  32
   4  -6  -5 47424.6 1682.44  47
   4  -6  -4 14849.4 1002.85  32
   4  -6  -4 13350.0 953.984  47
   4  -6  -4 13851.0 1726.35  24
   4  -6  -3 58073.8 1996.68  32
   4  -6  -3 57522.5 1992.21  47
   4  -6  -3 52265.6 3393.70  24
   4  -6  -2 62755.9 2044.94  32
   4  -6  -2 61028.1 2033.07  47
   4  -6  -1 30586.1 1398.30  32
   4  -6  -1 30273.3 1407.90  47
   4  -6   0 33193.4 1407.74  32
   4  -6   0 32192.1 1429.92  47
   4  -6   0 34365.5 2855.37   5
   4  -6   0 32998.3 2399.54  22
   4  -6   1 91464.1 2244.84  32
   4  -6   1 82260.2 2214.00  47
   4  -6   1 89868.0 4655.46   5
   4  -6   1 90570.2 3978.56  22
   4  -6   2 618.708 223.074  31
   4  -6   2 641.681 215.191  47
   4  -6   2 1266.11 615.144   5
   4  -6   3 94954.8 2186.83  31
   4  -6   3 95943.7 2273.15  47
   4  -6   3 96021.9 1959.88  44
   4  -6   4 109584. 2324.97  31
   4  -6   4 111427. 2437.44  47
   4  -6   4 109647. 2170.49  44
   4  -6   5 145.568 138.550  31
   4  -6   5 264.034 175.065  47
   4  -6   5 108.120 137.212  44
   4  -6   6 123455. 2697.20  36
   4  -6   6 119910. 2598.47  47
   4  -6   6 117272. 2412.05  44
   4  -6   7 79894.3 2192.71  36
   4  -6   7 78285.6 2155.04  47
   4  -6   7 79106.5 2043.31  44
   4  -6   8 18779.0 1080.21  36
   4  -6   8 17419.4 1031.39  47
   4  -6   8 18409.5 1006.93  44
   4  -6   9 113821. 2634.85  36
   4  -6   9 108179. 2520.51  47
   4  -6  10 96261.2 2358.15  36
   4  -6  11 5322.31 554.429  36
   4  -6  12 73515.7 1737.33  36
   4  -6  13 8259.99 484.012  36
   4  -5  -9 22560.2 657.343  47
   4  -5  -8 829.052 186.774  32
   4  -5  -8 1070.70 241.579  47
   4  -5  -7 44374.9 1381.39  32
   4  -5  -7 44799.2 1496.49  47
   4  -5  -6 19752.4 1060.25  32
   4  -5  -6 20124.6 1157.44  47
   4  -5  -5 22987.5 1230.38  32
   4  -5  -5 23586.4 1300.03  47
   4  -5  -5 19893.1 2210.42  24
   4  -5  -4 107639. 2698.60  32
   4  -5  -4 102664. 2727.77  47
   4  -5  -4 99557.5 4991.84  24
   4  -5  -3 7542.89 723.541  32
   4  -5  -3 6623.57 703.250  47
   4  -5  -3 8223.90 1472.69  24
   4  -5  -2 1198.38 303.763  32
   4  -5  -2 1312.80 336.180  47
   4  -5  -2 1270.79 637.686  24
   4  -5  -2 713.250 498.634   5
   4  -5  -1 75674.9 2110.45  32
   4  -5  -1 75003.5 2190.94  47
   4  -5  -1 78109.7 4220.55   5
   4  -5   0 18824.8 1011.50  32
   4  -5   0 17785.4 1035.31  47
   4  -5   0 21860.2 2251.45   5
   4  -5   0 19842.7 1713.51  22
   4  -5   1 74115.8 1926.42  32
   4  -5   1 73995.7 2012.57  47
   4  -5   1 71819.3 4073.31   5
   4  -5   2 140953. 2580.83  31
   4  -5   2 144526. 2745.93  47
   4  -5   2 140190. 5701.32   5
   4  -5   3 213.224 302.137  21
   4  -5   3 471.694 179.156  31
   4  -5   3 256.001 139.050  47
   4  -5   3 2.10710 201.934   5
   4  -5   4 125541. 4799.75  21
   4  -5   4 125740. 2410.11  31
   4  -5   4 128214. 2584.50  47
   4  -5   4 125544. 2209.41  44
   4  -5   5 79918.7 3903.98  21
   4  -5   5 73231.7 1880.19  31
   4  -5   5 74158.6 2010.68  47
   4  -5   5 73419.2 1776.61  44
   4  -5   6 10245.3 757.600  36
   4  -5   6 11268.0 816.973  47
   4  -5   6 11617.3 751.322  44
   4  -5   7 15387.2 942.137  36
   4  -5   7 15785.3 996.372  47
   4  -5   7 14843.4 880.610  44
   4  -5   8 34010.7 1399.28  36
   4  -5   8 34097.9 1488.43  47
   4  -5   9 16636.0 990.979  36
   4  -5   9 14549.8 964.551  47
   4  -5  10 107057. 2430.56  36
   4  -5  11 34697.3 1292.38  36
   4  -5  12 8523.58 572.155  36
   4  -5  13 65072.6 1165.53  36
   4  -4  -9 29822.8 798.601  32
   4  -4  -9 33174.7 1030.86  47
   4  -4  -8 17377.3 816.181  32
   4  -4  -8 17929.8 935.614  47
   4  -4  -7 18865.3 991.626  32
   4  -4  -7 20039.9 1141.89  47
   4  -4  -6 93512.8 2380.10  32
   4  -4  -6 96049.5 2627.88  47
   4  -4  -6 89040.1 4784.84  24
   4  -4  -5 22734.0 1240.67  32
   4  -4  -5 22083.7 1300.34  47
   4  -4  -5 24635.5 2609.50  24
   4  -4  -4 54961.1 1884.34  32
   4  -4  -4 55762.7 2019.23  47
   4  -4  -4 49231.0 3644.54  24
   4  -4  -3 70527.3 2072.66  32
   4  -4  -3 70589.0 2192.63  47
   4  -4  -3 69496.7 3851.22   5
   4  -4  -3 71449.8 4254.78  24
   4  -4  -2 90969.4 2261.07  32
   4  -4  -2 90285.6 2383.65  47
   4  -4  -2 99165.0 4643.35   5
   4  -4  -2 88937.7 4540.63  24
   4  -4  -1 19362.1 1000.82  32
   4  -4  -1 19954.9 1076.58  47
   4  -4  -1 16520.9 1889.80   5
   4  -4   0 209939. 3153.34  32
   4  -4   0 217794. 3374.65  47
   4  -4   0 216970. 6833.27   5
   4  -4   1 14108.5 840.470  47
   4  -4   1 15942.2 1870.12   5
   4  -4   2 150745. 2548.46  31
   4  -4   2 160286. 2763.13  47
   4  -4   2 149255. 5656.32   5
   4  -4   3 215046. 6287.14  21
   4  -4   3 214861. 3051.95  31
   4  -4   3 218174. 3244.49  47
   4  -4   3 202793. 6550.13   5
   4  -4   4 496.979 405.297  21
   4  -4   4 451.457 182.636  31
   4  -4   4 392.381 178.059  47
   4  -4   4 297.404 135.958  44
   4  -4   5 119290. 4939.49  21
   4  -4   5 124557. 2587.83  47
   4  -4   5 120450. 2226.10  44
   4  -4   6 38464.4 1386.66  36
   4  -4   6 37811.6 1495.75  47
   4  -4   6 37302.6 1315.97  44
   4  -4   6 38258.6 2897.46  21
   4  -4   7 1040.62 255.590  36
   4  -4   7 754.237 274.852  47
   4  -4   8 96643.3 2301.34  36
   4  -4   8 93661.4 2488.92  47
   4  -4   9 37663.8 1379.61  37
   4  -4   9 39839.3 1475.40  36
   4  -4   9 40145.7 1612.92  47
   4  -4  10 14979.1 823.350  37
   4  -4  10 15923.7 907.550  36
   4  -4  11 63042.4 1509.96  37
   4  -4  11 63105.6 1642.20  36
   4  -4  12 19198.3 759.762  36
   4  -3 -10 29156.2 874.367  47
   4  -3  -9 945.860 199.067  32
   4  -3  -9 1142.52 283.464  47
   4  -3  -8 39458.6 1309.89  32
   4  -3  -8 39994.3 1528.97  47
   4  -3  -7 10289.1 761.335  32
   4  -3  -7 9187.37 815.453  47
   4  -3  -7 11417.4 1751.81  24
   4  -3  -6 22162.0 1155.65  32
   4  -3  -6 25077.6 1378.54  47
   4  -3  -6 21470.3 2492.03  24
   4  -3  -5 103298. 2503.71  32
   4  -3  -5 103098. 2751.90  47
   4  -3  -5 101787. 5346.98  24
   4  -3  -4 7671.84 679.442  32
   4  -3  -4 7200.78 718.380  47
   4  -3  -4 8176.98 1347.47   5
   4  -3  -4 8469.70 1537.03  24
   4  -3  -3 1845.85 339.123  32
   4  -3  -3 1549.04 325.357  47
   4  -3  -3 1060.92 584.119   5
   4  -3  -3 1099.68 694.502  24
   4  -3  -2 114374. 2350.14  32
   4  -3  -2 116123. 2554.23  47
   4  -3  -2 110145. 4827.49   5
   4  -3  -2 116132. 5040.49  24
   4  -3  -1 25132.9 1063.61  32
   4  -3  -1 23666.4 1092.39  47
   4  -3  -1 24818.8 2274.24   5
   4  -3   0 120840. 4939.88   5
   4  -3   1 153981. 5542.39   5
   4  -3   2 4263.86 918.428  21
   4  -3   2 4025.78 917.016   5
   4  -3   3 201128. 6101.69  21
   4  -3   3 196254. 2838.09  31
   4  -3   3 205872. 3084.44  47
   4  -3   4 141919. 5299.98  21
   4  -3   4 136849. 2457.89  31
   4  -3   4 142735. 2651.68  47
   4  -3   5 6119.59 511.508  36
   4  -3   5 5775.57 571.430  47
   4  -3   5 6056.34 1174.40  21
   4  -3   6 56200.9 1597.21  36
   4  -3   6 58804.4 1882.82  47
   4  -3   6 56791.0 3626.61  21
   4  -3   7 118848. 2422.35  36
   4  -3   7 122538. 2814.65  47
   4  -3   8 7875.36 644.728  36
   4  -3   8 8161.25 755.996  47
   4  -3   9 134987. 2733.83  37
   4  -3   9 140006. 2644.99  36
   4  -3   9 143850. 3068.41  47
   4  -3  10 32550.7 1263.11  37
   4  -3  10 32919.0 1214.34  36
   4  -3  11 17630.5 830.786  37
   4  -3  11 17215.6 768.693  36
   4  -3  12 54232.9 1189.88  37
   4  -2 -10 51698.5 1347.91  47
   4  -2  -9 38548.6 1402.86  47
   4  -2  -8 4556.04 464.361  32
   4  -2  -8 5988.74 641.854  47
   4  -2  -8 5315.65 1210.12  24
   4  -2  -7 72995.6 1953.27  32
   4  -2  -7 74389.4 2287.60  47
   4  -2  -7 72293.6 4498.95  24
   4  -2  -6 30663.4 1293.00  32
   4  -2  -6 28762.8 1437.43  47
   4  -2  -5 50205.0 1644.53  32
   4  -2  -5 55976.8 1917.24  47
   4  -2  -5 48912.4 3171.19   5
   4  -2  -5 49023.6 3644.66  24
   4  -2  -4 68942.0 1841.59  32
   4  -2  -4 71608.0 2083.69  47
   4  -2  -4 71214.5 3874.25   5
   4  -2  -4 71965.6 4206.99  24
   4  -2  -3 75294.2 1841.31  32
   4  -2  -3 74960.4 2015.65  47
   4  -2  -3 77175.1 4017.10   5
   4  -2  -3 80174.0 4214.80  24
   4  -2  -2 23051.0 986.122  32
   4  -2  -2 26064.8 1127.28  47
   4  -2  -2 22136.6 2122.93   5
   4  -2  -1 114035. 4747.45   5
   4  -2   0 1134.90 542.003   5
   4  -2   1 156967. 5375.67   5
   4  -2   2 184358. 5742.84  21
   4  -2   2 179429. 5623.51   5
   4  -2   3 13464.4 1627.48  21
   4  -2   3 15058.2 1566.31   5
   4  -2   4 73865.6 3915.16  21
   4  -2   4 78083.2 1953.28  47
   4  -2   5 54234.2 1429.01  36
   4  -2   5 58058.2 1786.04  47
   4  -2   5 56134.3 1696.12  38
   4  -2   5 57978.3 3615.02  21
   4  -2   6 3192.18 983.327  21
   4  -2   6 2074.99 301.906  36
   4  -2   6 2209.91 390.236  47
   4  -2   6 2154.11 354.122  38
   4  -2   7 136694. 2454.52  36
   4  -2   7 145344. 3089.71  47
   4  -2   7 139029. 2738.78  38
   4  -2   8 73265.9 1822.03  36
   4  -2   8 74494.7 2246.96  47
   4  -2   8 74937.4 1979.83  38
   4  -2   9 26337.5 1227.66  37
   4  -2  10 78788.3 1960.91  37
   4  -2  11 14903.4 753.733  37
   4  -2  12 19844.3 705.373  37
   4  -1 -11 32429.8 871.817  47
   4  -1 -10 1163.03 262.422  47
   4  -1  -9 61576.8 1840.10  47
   4  -1  -9 59475.2 3661.54  24
   4  -1  -8 26735.3 1303.93  47
   4  -1  -8 28466.2 2728.81  24
   4  -1  -7 23983.9 1056.90  32
   4  -1  -7 26396.2 1321.32  47
   4  -1  -7 24179.7 2580.80  24
   4  -1  -6 144947. 2590.98  32
   4  -1  -6 150003. 3070.97  47
   4  -1  -5 1174.38 257.120  32
   4  -1  -5 743.105 240.200  47
   4  -1  -5 2111.46 671.554   5
   4  -1  -5 894.069 673.220  24
   4  -1  -4 84374.0 1872.56  32
   4  -1  -4 88192.0 2141.54  47
   4  -1  -4 87124.5 4288.37   5
   4  -1  -4 91400.2 4528.36  24
   4  -1  -3 288773. 3665.62  47
   4  -1  -3 291273. 7719.11  24
   4  -1  -2 34743.2 2621.81   5
   4  -1  -1 88524.9 4095.64   5
   4  -1   0 38281.2 2635.29   5
   4  -1   1 1233.66 539.550  21
   4  -1   1 1891.24 618.468   5
   4  -1   2 82740.8 3868.05  21
   4  -1   2 81540.8 3540.77   5
   4  -1   3 131148. 5094.63  21
   4  -1   4 1294.36 654.725  21
   4  -1   4 1665.97 306.724  47
   4  -1   4 831.360 225.395  38
   4  -1   5 82074.5 2155.47  47
   4  -1   5 78694.1 2082.98  38
   4  -1   5 83066.2 4443.39  21
   4  -1   6 149594. 3069.52  47
   4  -1   6 147763. 2938.73  38
   4  -1   6 153156. 6182.63  21
   4  -1   7 6203.04 666.587  47
   4  -1   7 7028.53 648.648  38
   4  -1   8 139960. 3049.58  47
   4  -1   8 138678. 2775.94  38
   4  -1   9 13442.6 870.782  37
   4  -1  10 24453.1 1071.15  37
   4  -1  11 42020.7 1196.83  37
   4  -1  12 2763.28 251.554  37
   4   0 -10 31253.6 1155.71  47
   4   0  -9 8378.59 672.565  47
   4   0  -9 6227.19 1263.28  24
   4   0  -8 90108.5 2264.95  47
   4   0  -8 87871.9 4664.19  24
   4   0  -7 40138.9 1558.60  15
   4   0  -7 34148.1 1401.77  47
   4   0  -7 39532.2 3151.62  24
   4   0  -6 76866.3 2131.15  15
   4   0  -6 80268.6 2073.68  47
   4   0  -6 76158.3 4045.63   5
   4   0  -6 75480.9 4243.10  24
   4   0  -5 143094. 2805.70  15
   4   0  -5 137815. 2590.78  47
   4   0  -5 148297. 5661.96   5
   4   0  -5 143439. 5636.40  24
   4   0  -4 68966.6 1868.16  15
   4   0  -4 63800.1 1683.56  47
   4   0  -4 69780.8 3831.22   5
   4   0  -4 68963.4 3756.83  24
   4   0  -3 73888.0 1818.32  15
   4   0  -3 69990.5 3778.94   5
   4   0  -2 207777. 6309.83   5
   4   0  -1 1072.06 507.612   5
   4   0   0 116522. 4459.64   5
   4   0   1 86210.3 3892.90  21
   4   0   1 84696.8 3605.33   5
   4   0   2 7.96676 343.902  21
   4   0   3 98200.1 4517.15  21
   4   0   3 101675. 2156.47  47
   4   0   3 101867. 2224.55  38
   4   0   4 72599.8 1951.19  47
   4   0   4 75604.9 2024.69  38
   4   0   4 72424.9 4064.00  21
   4   0   5 869.890 619.538  21
   4   0   5 167.777 165.504  47
   4   0   5 399.853 215.716  38
   4   0   6 206979. 3656.23  47
   4   0   6 204707. 3507.85  38
   4   0   7 98237.3 2549.59  47
   4   0   7 100691. 2422.75  38
   4   0   8 25464.7 1235.40  37
   4   0   9 101370. 2294.58  37
   4   0  10 31610.6 1151.83  37
   4   0  11 7953.71 487.228  37
   4   1  -9 26267.8 1217.07  15
   4   1  -9 22160.3 1016.71  47
   4   1  -9 24213.7 2334.71  24
   4   1  -8 21488.3 1030.31  47
   4   1  -8 17633.1 2043.04  24
   4   1  -7 138942. 2888.61  15
   4   1  -7 137277. 2559.62  47
   4   1  -7 140220. 5669.01  24
   4   1  -6 22972.0 1165.60  15
   4   1  -6 17976.4 900.019  47
   4   1  -6 23123.3 2286.18   5
   4   1  -6 20580.2 2127.45  24
   4   1  -5 1559.96 347.051  15
   4   1  -5 2210.12 311.067  47
   4   1  -5 1048.42 621.605  24
   4   1  -4 104985. 2231.86  15
   4   1  -4 105620. 4715.68   5
   4   1  -3 15756.3 823.129  15
   4   1  -3 16002.1 1798.12   5
   4   1  -2 172232. 2425.29  15
   4   1  -2 169143. 5619.07   5
   4   1  -1 148171. 5087.79   5
   4   1   0 1799.61 600.118  21
   4   1   0 2046.84 626.542   5
   4   1   1 208337. 6153.36  21
   4   1   2 173273. 5851.42  21
   4   1   3 486.186 570.448  21
   4   1   3 321.624 166.604  47
   4   1   3 216.979 170.466  38
   4   1   4 36072.9 1399.71  47
   4   1   4 34942.3 1427.62  38
   4   1   4 32708.8 2821.37  21
   4   1   5 15744.1 989.168  47
   4   1   5 15462.3 973.012  38
   4   1   6 62851.3 2002.51  47
   4   1   6 64290.2 1980.95  38
   4   1   7 205793. 3475.13  38
   4   1   8 41508.8 1519.55  37
   4   1   9 8899.36 666.641  37
   4   1  10 69240.7 1543.74  37
   4   1  11 11851.4 511.500  37
   4   2 -10 17920.1 1812.26  24
   4   2  -9 75118.7 3925.73  24
   4   2  -8 30401.8 1363.41  15
   4   2  -8 27649.9 2433.31  24
   4   2  -7 26860.4 1269.80  15
   4   2  -7 25687.0 2412.97   5
   4   2  -7 24781.4 2278.55  24
   4   2  -6 50238.0 1686.18  15
   4   2  -6 50638.0 3430.60   5
   4   2  -5 35830.4 1360.23  15
   4   2  -5 38372.4 2930.33   5
   4   2  -4 56546.1 1604.34  15
   4   2  -4 55752.4 3448.33   5
   4   2  -4 61349.7 1666.07  39
   4   2  -3 242561. 3047.03  15
   4   2  -3 238245. 6913.23   5
   4   2  -2 2257.94 654.928   5
   4   2  -1 143993. 4844.25  21
   4   2  -1 131129. 4695.65   5
   4   2   0 215641. 6129.04  21
   4   2   0 216015. 5595.39   5
   4   2   1 5355.98 1049.04  21
   4   2   2 126175. 2347.24  47
   4   2   2 132310. 2605.13  38
   4   2   2 128129. 5125.59  21
   4   2   3 107797. 2318.67  47
   4   2   3 109983. 2506.95  38
   4   2   3 110481. 4975.91  21
   4   2   4 5801.63 1217.92  21
   4   2   4 7177.56 644.853  47
   4   2   4 6846.65 655.526  38
   4   2   5 42343.8 1359.77  30
   4   2   5 43097.6 1615.69  47
   4   2   5 43031.3 1627.79  38
   4   2   6 19053.7 894.823  30
   4   2   6 19685.1 1094.99  38
   4   2   7 35505.0 1419.05  37
   4   2   8 66820.2 1801.03  37
   4   2   9 23833.6 961.812  37
   4   2  10 10943.3 539.097  37
   4   3 -12 20378.7 837.134  39
   4   3 -10 28107.8 1239.07  15
   4   3  -9 10945.2 829.393  15
   4   3  -8 79473.0 2208.98  15
   4   3  -7 6837.17 651.840  15
   4   3  -7 7896.66 1406.15   5
   4   3  -6 19903.2 1059.91  15
   4   3  -6 20396.8 2228.98   5
   4   3  -5 128075. 2532.50  15
   4   3  -5 134218. 5564.58   5
   4   3  -5 132829. 2493.81  39
   4   3  -4 3032.09 371.828  15
   4   3  -4 2859.84 830.914   5
   4   3  -4 2683.66 359.237  39
   4   3  -3 273808. 3470.09  42
   4   3  -3 267966. 3396.73  39
   4   3  -2 147784. 4880.98  21
   4   3  -2 146529. 5164.74   5
   4   3  -1 3652.56 816.332  21
   4   3  -1 3863.91 811.147   5
   4   3   0 143956. 5115.38  21
   4   3   0 146360. 2552.50  27
   4   3   0 148682. 2628.57  42
   4   3   1 98022.1 4373.70  21
   4   3   1 97166.8 2223.33  38
   4   3   2 5550.08 1136.49  21
   4   3   2 6134.77 535.908  47
   4   3   2 5862.69 592.700  38
   4   3   3 94317.3 2200.00  47
   4   3   3 95624.5 2377.54  38
   4   3   3 96934.4 4723.20  21
   4   3   4 60619.8 1838.55  47
   4   3   4 61750.4 1943.71  38
   4   3   5 9998.46 688.629  30
   4   3   5 10712.0 823.368  38
   4   3   6 121048. 2281.91  30
   4   3   6 123193. 2670.51  38
   4   3   7 26284.4 1139.85  37
   4   3   7 25357.8 964.757  30
   4   3   8 6997.65 547.735  37
   4   3   8 6725.53 433.614  30
   4   3   9 61404.4 1307.36  37
   4   4 -12 16694.2 722.709  39
   4   4 -11 18791.2 888.161  39
   4   4 -10 105064. 2402.26  15
   4   4  -9 61821.9 1928.23  15
   4   4  -8 16650.4 1011.26  15
   4   4  -8 18255.0 976.297  39
   4   4  -7 90888.1 2297.01  15
   4   4  -7 87091.5 2092.54  39
   4   4  -6 41017.0 1501.41  15
   4   4  -6 39321.7 1377.00  39
   4   4  -5 50059.4 1545.92  15
   4   4  -5 49193.4 3427.38   5
   4   4  -5 54669.2 1580.40  39
   4   4  -4 189573. 5389.92  21
   4   4  -4 188251. 6411.76   5
   4   4  -4 190871. 3026.63  42
   4   4  -4 190112. 2911.77  39
   4   4  -3 1678.07 576.530  21
   4   4  -3 1493.51 286.136  27
   4   4  -3 2309.70 699.102   5
   4   4  -3 1605.82 302.033  42
   4   4  -3 1376.75 267.720  39
   4   4  -2 51704.7 2911.93  21
   4   4  -2 51111.1 2995.60   5
   4   4  -2 54562.1 1589.79  27
   4   4  -2 53083.0 1601.70  42
   4   4  -1 56636.9 3135.95  21
   4   4  -1 58949.0 1689.65  27
   4   4  -1 57708.4 1701.32  42
   4   4  -1 55678.8 1488.67  41
   4   4   0 1028.80 548.420  21
   4   4   0 1575.24 308.753  38
   4   4   1 80180.0 2102.21  38
   4   4   1 83608.8 4116.38  21
   4   4   2 39302.7 1512.22  38
   4   4   2 37853.2 2862.55  21
   4   4   3 18823.1 964.991  47
   4   4   3 19296.5 1084.22  38
   4   4   4 143650. 2652.16  30
   4   4   4 146274. 2939.84  38
   4   4   5 50574.8 1536.22  30
   4   4   5 52247.7 1727.29  38
   4   4   6 19648.6 968.798  37
   4   4   6 19710.1 899.477  30
   4   4   7 43141.3 1294.42  37
   4   4   7 42835.9 1175.07  30
   4   4   8 14850.9 651.436  37
   4   4   8 14696.5 563.629  30
   4   4   9 5432.97 306.379  37
   4   5 -12 57631.6 1340.40  42
   4   5 -11 29969.2 1128.76  42
   4   5 -10 6410.24 610.185  15
   4   5 -10 8042.37 589.243  39
   4   5  -9 89239.5 2300.83  15
   4   5  -9 92239.4 2040.86  39
   4   5  -8 1639.47 341.996  15
   4   5  -8 2925.93 384.221  39
   4   5  -7 108201. 2414.25  42
   4   5  -7 110145. 2257.29  39
   4   5  -6 246752. 7939.69   5
   4   5  -6 244583. 3581.40  42
   4   5  -6 242377. 3296.19  39
   4   5  -5 27485.6 2576.39   5
   4   5  -5 26055.1 1159.27  42
   4   5  -5 25923.9 1072.72  39
   4   5  -4 93711.8 3686.97  21
   4   5  -4 97178.1 2198.20  27
   4   5  -4 97580.7 2226.72  42
   4   5  -4 93920.2 2037.45  39
   4   5  -3 64386.5 3130.09  21
   4   5  -3 60053.6 3383.85   5
   4   5  -3 64763.8 1799.76  27
   4   5  -3 62770.9 1813.72  42
   4   5  -2 4581.29 894.543  21
   4   5  -2 3823.98 454.447  27
   4   5  -2 4028.12 485.689  42
   4   5  -2 3353.34 406.633  41
   4   5  -1 47727.4 1594.34  27
   4   5  -1 47071.5 1460.09  41
   4   5  -1 46834.8 1515.96  38
   4   5  -1 44303.5 2800.02  21
   4   5   0 69015.1 1748.16  41
   4   5   0 62569.6 3346.53   8
   4   5   0 68745.5 1906.02  38
   4   5   0 67275.0 3578.55  21
   4   5   1 6400.60 613.209  38
   4   5   1 5454.20 1093.08  21
   4   5   2 196935. 3355.69  38
   4   5   3 135082. 2776.80  38
   4   5   4 5326.75 527.230  30
   4   5   4 4943.89 536.671  38
   4   5   5 98373.6 2071.18  37
   4   5   5 99759.3 2075.46  30
   4   5   6 6949.47 513.044  37
   4   5   6 8162.01 551.226  30
   4   5   7 15886.7 653.775  37
   4   5   7 15796.6 640.595  30
   4   5   8 24317.5 605.883  37
   4   6 -11 52177.9 1422.07  42
   4   6 -10 31035.9 1198.29  42
   4   6  -9 13552.4 886.596  15
   4   6  -9 17095.0 942.762  42
   4   6  -8 44384.6 1530.63  42
   4   6  -7 397.542 208.568  42
   4   6  -6 132093. 2684.56  27
   4   6  -6 133444. 2675.60  42
   4   6  -6 129143. 2343.21  39
   4   6  -5 164953. 6235.82   5
   4   6  -5 173161. 3063.64  27
   4   6  -5 170716. 3039.89  42
   4   6  -4 71.3374 153.439  27
   4   6  -4 269.953 176.736  42
   4   6  -3 44470.7 1445.30  54
   4   6  -3 41645.9 1513.26  27
   4   6  -3 43337.6 1565.95  42
   4   6  -3 42920.4 1482.00  41
   4   6  -3 39793.0 2980.45   8
   4   6  -2 60368.8 1648.74  54
   4   6  -2 58508.5 1811.79  27
   4   6  -2 57692.9 1716.62  41
   4   6  -2 55338.6 3426.04   8
   4   6  -2 55848.8 1627.92  38
   4   6  -1 383.274 175.038  41
   4   6  -1 319.662 181.717  38
   4   6   0 69070.2 1811.17  41
   4   6   0 68012.9 1899.71  38
   4   6   1 78838.7 1855.75  41
   4   6   1 76577.0 2033.22  38
   4   6   2 1138.27 298.655  38
   4   6   3 87861.2 2085.78  30
   4   6   3 84932.9 2071.97  38
   4   6   4 46669.1 1347.79  37
   4   6   4 48781.2 1478.82  30
   4   6   5 21217.8 822.670  37
   4   6   5 21973.7 907.848  30
   4   6   6 50601.8 1064.87  37
   4   6   6 54328.3 1227.26  30
   4   6   7 10691.9 432.189  30
   4   7 -13 48518.6 1089.15  27
   4   7 -12 21675.8 885.410  27
   4   7 -10 89383.6 1934.66  42
   4   7  -9 20080.4 1040.04  27
   4   7  -9 18835.8 949.176  42
   4   7  -8 19538.8 1046.82  27
   4   7  -8 21771.2 1057.07  42
   4   7  -7 71116.2 1981.73  27
   4   7  -7 68835.9 1910.39  42
   4   7  -6 847.383 265.955  27
   4   7  -6 996.841 267.742  42
   4   7  -5 152685. 2928.05  27
   4   7  -5 150415. 2907.88  42
   4   7  -4 107310. 2363.92  54
   4   7  -4 113586. 2544.48  27
   4   7  -4 108233. 2455.54  41
   4   7  -3 1985.83 351.091  54
   4   7  -3 2253.11 389.199  27
   4   7  -3 2307.91 384.184  41
   4   7  -2 69563.6 1842.60  54
   4   7  -2 69372.5 1923.83  41
   4   7  -2 67576.6 1762.44  38
   4   7  -1 45075.4 1442.90  54
   4   7  -1 44224.0 1508.88  41
   4   7  -1 44293.4 1455.57  38
   4   7   0 7075.72 547.369  54
   4   7   0 7706.86 620.385  41
   4   7   0 5879.95 546.158  38
   4   7   1 76182.6 1812.84  41
   4   7   1 74226.9 1875.36  38
   4   7   2 22276.0 1058.33  30
   4   7   2 21444.5 990.133  38
   4   7   3 6885.66 582.012  30
   4   7   4 50001.9 1358.12  30
   4   7   5 6320.91 433.056  30
   4   7   6 10639.8 444.759  30
   4   8 -13 7949.89 395.198  27
   4   8 -13 9361.36 460.879  41
   4   8 -12 55403.2 1305.96  27
   4   8 -11 19261.3 880.351  27
   4   8 -10 16707.5 881.071  27
   4   8  -9 74239.0 1916.35  27
   4   8  -9 74204.2 1790.97  42
   4   8  -8 18259.3 990.010  27
   4   8  -8 18088.7 936.064  42
   4   8  -7 31516.7 1322.30  27
   4   8  -7 33738.6 1323.44  42
   4   8  -6 124063. 2632.57  27
   4   8  -6 118526. 2626.65  41
   4   8  -5 949.115 309.025  54
   4   8  -5 948.106 284.002  27
   4   8  -5 731.402 266.429  41
   4   8  -4 62810.2 1831.56  54
   4   8  -4 61272.2 1880.21  41
   4   8  -3 66550.4 1864.05  54
   4   8  -3 68360.3 1958.35  41
   4   8  -2 5734.83 541.352  54
   4   8  -2 4579.94 510.958  41
   4   8  -1 92606.2 2042.30  54
   4   8  -1 91312.5 2116.58  41
   4   8   0 43449.6 1322.90  54
   4   8   0 42814.3 1382.21  41
   4   8   0 43231.0 1302.12  38
   4   8   1 8798.50 658.069  30
   4   8   1 8649.31 577.274  38
   4   8   2 44830.0 1378.36  30
   4   8   3 14934.9 735.117  30
   4   8   4 7182.15 446.877  30
   4   8   5 18143.6 565.341  30
   4   9 -12 10460.2 505.300  27
   4   9 -12 11660.5 596.107  41
   4   9 -11 57829.8 1393.23  27
   4   9 -11 59474.0 1520.96  41
   4   9 -10 22045.5 955.249  27
   4   9 -10 21117.8 994.201  41
   4   9  -9 10209.9 699.697  27
   4   9  -9 11770.6 793.162  41
   4   9  -8 57298.1 1674.21  27
   4   9  -8 57771.6 1781.91  41
   4   9  -7 4652.08 574.623  54
   4   9  -7 5654.89 553.278  27
   4   9  -7 5001.49 568.649  41
   4   9  -6 89460.1 2217.13  54
   4   9  -6 89850.7 2267.55  41
   4   9  -5 73320.8 1987.47  54
   4   9  -5 76196.0 2082.04  41
   4   9  -4 118.908 198.449  54
   4   9  -4 61.1623 189.690  41
   4   9  -3 92538.7 2129.22  54
   4   9  -3 94343.2 2223.81  41
   4   9  -2 41896.0 1385.14  54
   4   9  -2 44426.6 1473.84  41
   4   9  -1 7590.88 567.688  54
   4   9  -1 7293.69 581.073  41
   4   9   0 93828.9 1815.02  54
   4   9   0 97209.3 2049.61  30
   4   9   1 33007.9 1122.34  30
   4   9   2 3975.36 370.684  30
   4   9   3 50900.4 1094.65  30
   4   9   4 11247.6 415.776  30
   4  10 -13 30077.7 778.700  54
   4  10 -12 9116.25 535.668  54
   4  10 -12 9036.47 462.383  41
   4  10 -11 15262.0 768.062  54
   4  10 -11 12762.1 655.018  41
   4  10 -10 50193.0 1481.88  54
   4  10 -10 47897.9 1234.42  27
   4  10 -10 48857.4 1393.46  41
   4  10  -9 5274.71 553.439  54
   4  10  -9 4302.20 468.095  41
   4  10  -8 31008.2 1269.03  54
   4  10  -8 29076.6 1199.61  41
   4  10  -7 70768.9 1889.85  54
   4  10  -7 70883.2 1918.24  41
   4  10  -6 813.236 270.391  54
   4  10  -6 839.091 283.604  41
   4  10  -5 28411.5 1183.17  54
   4  10  -5 28249.7 1217.76  41
   4  10  -4 42754.4 1413.60  54
   4  10  -4 43414.8 1463.95  41
   4  10  -3 532.026 216.704  54
   4  10  -3 738.674 247.640  41
   4  10  -2 36782.7 1185.03  54
   4  10  -2 36994.1 1233.20  41
   4  10  -1 20266.0 823.486  54
   4  10  -1 22386.4 907.373  30
   4  10   0 12747.2 577.207  54
   4  10   0 12087.2 627.541  30
   4  10   1 51062.2 1142.91  30
   4  10   2 20744.8 627.147  30
   4  11 -12 38520.9 932.367  54
   4  11 -11 2038.33 278.243  54
   4  11 -11 2265.48 247.496  41
   4  11 -10 57005.4 1412.36  54
   4  11 -10 55628.0 1314.01  41
   4  11  -9 79517.1 1759.77  54
   4  11  -9 77723.8 1677.94  41
   4  11  -8 3495.60 413.442  54
   4  11  -8 4018.01 427.191  41
   4  11  -7 48513.6 1439.79  54
   4  11  -7 48130.0 1431.00  41
   4  11  -6 41708.2 1326.68  54
   4  11  -6 45420.7 1389.03  41
   4  11  -5 2731.61 358.952  54
   4  11  -5 3062.98 386.620  41
   4  11  -4 24999.2 966.516  54
   4  11  -4 23970.8 974.013  41
   4  11  -3 23394.8 882.867  54
   4  11  -3 25234.7 885.118  30
   4  11  -3 24462.4 928.367  41
   4  11  -2 722.525 187.929  54
   4  11  -2 452.366 153.657  30
   4  11  -1 48456.3 1019.46  54
   4  11  -1 53759.4 1127.72  30
   4  11   0 25117.2 683.423  30
   4  12 -11 44764.0 949.547  54
   4  12 -10 2435.93 272.452  54
   4  12 -10 2816.43 250.879  41
   4  12  -9 21651.2 793.373  54
   4  12  -9 20689.9 730.659  41
   4  12  -8 30325.7 973.233  54
   4  12  -8 30981.0 942.401  41
   4  12  -7 2390.69 298.938  54
   4  12  -7 2092.21 278.240  41
   4  12  -6 35070.4 1038.99  54
   4  12  -6 35324.1 1040.36  41
   4  12  -5 26397.8 870.262  54
   4  12  -5 26674.5 735.317  30
   4  12  -5 28133.0 907.061  41
   4  12  -4 2390.88 264.808  54
   4  12  -4 1967.09 205.701  30
   4  12  -3 30711.6 809.721  54
   4  12  -3 30660.0 722.939  30
   4  13  -8 17529.0 580.968  54
   4  13  -7 20417.7 628.603  54
   4  13  -6 140.214 92.8924  54
   5 -11   2 327.630 118.707  36
   5 -11   3 23156.4 771.110  36
   5 -11   4 25700.6 867.204  36
   5 -11   5 7545.11 496.030  36
   5 -11   5 6517.90 382.062  44
   5 -11   6 40916.1 1142.56  36
   5 -11   6 39067.0 982.735  44
   5 -11   7 23883.8 877.156  36
   5 -11   7 22597.6 769.125  44
   5 -11   8 3812.81 360.978  36
   5 -11   9 35843.1 962.439  36
   5 -10  -1 11220.3 443.324  31
   5 -10   0 242.352 124.175  31
   5 -10   1 27028.6 857.831  31
   5 -10   2 40138.7 1081.75  31
   5 -10   3 642.846 175.448  31
   5 -10   4 51889.8 1483.34  36
   5 -10   5 25477.4 1054.61  36
   5 -10   5 23432.4 882.811  44
   5 -10   6 1274.21 293.816  36
   5 -10   6 1412.54 251.108  44
   5 -10   7 44547.9 1378.68  36
   5 -10   7 40081.3 1195.45  44
   5 -10   8 15845.6 806.747  36
   5 -10   9 13483.4 703.237  36
   5 -10  10 30192.0 959.493  36
   5  -9  -2 2191.11 260.116  31
   5  -9  -2 1527.31 185.699  47
   5  -9  -1 17299.7 757.162  31
   5  -9  -1 16059.0 650.892  47
   5  -9   0 38668.3 1212.50  31
   5  -9   0 35694.0 1063.81  47
   5  -9   1 178.468 180.230  31
   5  -9   1-20.7905 121.682  47
   5  -9   2 64253.5 1660.77  31
   5  -9   2 60771.3 1505.75  47
   5  -9   3 66480.1 1694.18  31
   5  -9   3 61574.0 1530.24  47
   5  -9   4 2082.84 324.534  31
   5  -9   5 38399.0 1437.37  36
   5  -9   5 37528.8 1222.93  44
   5  -9   6 23025.5 1107.74  36
   5  -9   6 21326.5 952.120  44
   5  -9   7 6224.80 591.579  36
   5  -9   7 5901.26 508.128  44
   5  -9   8 64794.4 1750.36  36
   5  -9   9 14670.5 809.153  36
   5  -9  10 6675.66 513.748  36
   5  -9  11 31747.3 933.420  36
   5  -8  -4 6766.75 395.460  31
   5  -8  -4 5668.67 335.414  47
   5  -8  -3 10074.4 582.128  31
   5  -8  -3 9871.48 539.661  47
   5  -8  -2 37243.2 1227.64  31
   5  -8  -2 33409.4 1105.23  47
   5  -8  -1 1528.14 322.694  31
   5  -8  -1 1091.79 257.259  47
   5  -8   0 50098.2 1597.57  31
   5  -8   0 48363.8 1500.97  47
   5  -8   1 62653.1 1822.88  31
   5  -8   1 58893.8 1705.09  47
   5  -8   2 1155.79 300.307  31
   5  -8   2 1632.96 324.787  47
   5  -8   3 85096.1 2113.18  31
   5  -8   3 82370.3 2047.93  47
   5  -8   4 20353.7 1028.27  31
   5  -8   4 19407.6 998.533  47
   5  -8   5 6936.34 662.958  36
   5  -8   5 5684.37 547.233  47
   5  -8   5 6053.79 527.148  44
   5  -8   6 50086.7 1699.55  36
   5  -8   6 45795.8 1469.43  47
   5  -8   6 47399.7 1461.65  44
   5  -8   7 13175.1 869.320  36
   5  -8   8 58244.8 1737.74  36
   5  -8   9 105473. 2210.12  36
   5  -8  10 21013.3 921.048  36
   5  -8  11 18744.6 757.958  36
   5  -7  -5 5255.57 367.903  31
   5  -7  -5 5333.20 375.464  47
   5  -7  -4 44704.5 1264.23  31
   5  -7  -4 42166.4 1220.07  47
   5  -7  -3 14878.4 838.481  31
   5  -7  -3 12242.8 750.429  47
   5  -7  -2 27731.6 1221.92  31
   5  -7  -2 27855.5 1204.77  47
   5  -7  -1 63622.2 1922.07  31
   5  -7  -1 59671.5 1834.14  47
   5  -7   0 556.638 270.344  31
   5  -7   0 208.097 177.436  47
   5  -7   1 78094.8 2155.11  31
   5  -7   1 76274.0 2132.78  47
   5  -7   2 56997.4 1821.93  31
   5  -7   2 54870.9 1810.69  47
   5  -7   3 3571.86 475.986  31
   5  -7   3 3519.51 477.524  47
   5  -7   4 31279.0 1320.99  31
   5  -7   4 31385.7 1359.85  47
   5  -7   5 30769.3 1369.17  36
   5  -7   5 29998.8 1320.91  47
   5  -7   5 31001.9 1177.49  44
   5  -7   6 3898.27 509.803  36
   5  -7   6 4079.58 494.888  47
   5  -7   6 4505.81 469.175  44
   5  -7   7 128280. 2672.37  36
   5  -7   7 114374. 2476.92  47
   5  -7   8 24933.0 1160.21  36
   5  -7   8 22313.9 1052.88  47
   5  -7   9 27981.0 1164.90  36
   5  -7   9 24648.1 995.511  47
   5  -7  10 81767.2 1809.52  36
   5  -7  11 716.381 190.431  36
   5  -6  -6 25683.1 784.670  31
   5  -6  -6 25690.9 847.676  47
   5  -6  -5 7428.13 561.932  47
   5  -6  -4 21198.4 1043.93  47
   5  -6  -3 75533.0 2089.99  47
   5  -6  -2 531.416 258.482  47
   5  -6  -1 81736.6 2260.98  31
   5  -6  -1 80691.9 2302.41  47
   5  -6   0 63565.2 1991.40  31
   5  -6   0 62761.2 2036.33  47
   5  -6   1 11764.7 867.616  31
   5  -6   1 11598.0 878.885  47
   5  -6   2 115452. 2617.88  31
   5  -6   2 112380. 2682.95  47
   5  -6   3 31658.9 1361.30  31
   5  -6   3 31337.2 1413.66  47
   5  -6   4 1718.31 340.961  31
   5  -6   4 1215.77 315.055  47
   5  -6   5 76929.4 2118.52  36
   5  -6   5 72521.8 2122.01  47
   5  -6   5 74620.0 1808.37  44
   5  -6   6 89749.5 2259.19  36
   5  -6   6 84847.4 2288.23  47
   5  -6   7 14929.3 913.737  36
   5  -6   7 15028.5 958.536  47
   5  -6   8 85325.8 2099.79  36
   5  -6   8 79543.9 2108.14  47
   5  -6   9 18369.8 926.107  36
   5  -6   9 17014.4 906.490  47
   5  -6  10 45267.7 1323.20  36
   5  -6  11 50273.2 1172.30  36
   5  -5  -7 3308.95 269.162  31
   5  -5  -7 2721.44 293.948  47
   5  -5  -6 12682.0 672.697  31
   5  -5  -6 13610.8 760.581  47
   5  -5  -6 12263.3 589.070  39
   5  -5  -5 55398.6 1728.18  47
   5  -5  -5 51337.6 1375.95  39
   5  -5  -4 15714.5 1015.25  47
   5  -5  -4 15486.0 829.798  39
   5  -5  -3 37464.9 1598.91  47
   5  -5  -3 34073.4 1267.96  39
   5  -5  -2 52563.2 1916.66  47
   5  -5  -1 2805.30 449.598  31
   5  -5  -1 3351.09 509.999  47
   5  -5   0 148436. 2998.99  31
   5  -5   0 145278. 3114.54  47
   5  -5   1 87390.6 4456.51  21
   5  -5   1 93934.7 2359.31  31
   5  -5   1 90576.2 2427.32  47
   5  -5   2 4144.37 1039.45  21
   5  -5   2 5083.23 569.789  31
   5  -5   2 5933.90 637.228  47
   5  -5   3 55131.2 3483.54  21
   5  -5   3 57152.4 1813.98  31
   5  -5   3 58863.4 1932.27  47
   5  -5   4 31119.6 2618.70  21
   5  -5   4 33366.7 1456.49  47
   5  -5   5 6694.40 613.425  36
   5  -5   5 7665.02 718.175  47
   5  -5   6 120906. 2554.25  36
   5  -5   6 122791. 2821.63  47
   5  -5   7 4641.11 508.269  36
   5  -5   7 3940.54 524.273  47
   5  -5   8 38921.0 1378.78  36
   5  -5   8 38061.8 1515.67  47
   5  -5   9 82100.5 1887.88  36
   5  -5   9 79843.5 2029.10  47
   5  -5  10 3777.61 382.291  36
   5  -5  11 17779.1 623.679  36
   5  -4  -8 16555.6 642.434  47
   5  -4  -8 15736.8 547.633  39
   5  -4  -7 35930.4 1026.82  31
   5  -4  -7 35540.0 1185.21  47
   5  -4  -7 33319.2 1052.97  39
   5  -4  -6 6890.31 631.873  47
   5  -4  -6 7375.53 591.454  39
   5  -4  -5 20624.6 1059.74  32
   5  -4  -5 23566.8 1236.92  47
   5  -4  -5 21099.5 1055.71  39
   5  -4  -4 109480. 2547.04  32
   5  -4  -4 106184. 2701.39  47
   5  -4  -4 103102. 2397.49  39
   5  -4  -3 4753.78 612.348  47
   5  -4  -3 4446.64 519.511  39
   5  -4  -2 63833.9 1952.42  31
   5  -4  -2 65805.1 2135.84  47
   5  -4  -2 62134.7 1876.66  39
   5  -4  -1 98306.3 2403.93  31
   5  -4  -1 97695.4 2544.41  47
   5  -4  -1 91889.1 2248.60  39
   5  -4   0 2358.65 402.196  31
   5  -4   0 2844.96 453.457  47
   5  -4   0 2457.43 372.999  39
   5  -4   1 144833. 5833.53  21
   5  -4   1 152582. 2925.03  31
   5  -4   1 154526. 3104.62  47
   5  -4   2 71201.8 4092.02  21
   5  -4   2 69730.8 1968.62  31
   5  -4   2 68606.4 2066.81  47
   5  -4   3 5878.26 1226.98  21
   5  -4   3 6321.98 609.055  31
   5  -4   3 8489.84 736.450  47
   5  -4   4 108655. 5087.24  21
   5  -4   4 113276. 2667.00  47
   5  -4   5 44184.2 1505.14  36
   5  -4   5 45004.6 1712.74  47
   5  -4   5 44353.4 3236.54  21
   5  -4   6 96998.1 2189.16  36
   5  -4   6 98230.6 2550.76  47
   5  -4   6 92599.6 4581.49  21
   5  -4   7 98539.1 2180.28  36
   5  -4   7 97924.2 2534.26  47
   5  -4   8 7001.02 573.890  36
   5  -4   8 7510.20 703.667  47
   5  -4   9 33021.0 1121.81  36
   5  -4   9 33423.6 1343.26  47
   5  -3  -9 39546.0 872.742  39
   5  -3  -8 4320.44 404.625  47
   5  -3  -8 5091.13 433.807  39
   5  -3  -7 7399.85 520.578  31
   5  -3  -7 8090.61 643.445  47
   5  -3  -7 7512.17 613.975  39
   5  -3  -6 34710.3 1457.47  47
   5  -3  -6 33486.3 1381.10  39
   5  -3  -5 11342.2 896.065  47
   5  -3  -5 11543.9 862.768  39
   5  -3  -4 69154.9 2168.75  47
   5  -3  -4 65187.7 2032.65  39
   5  -3  -3 118908. 2823.39  47
   5  -3  -3 110095. 2631.42  39
   5  -3  -2 7368.19 669.553  31
   5  -3  -2 6202.71 655.568  47
   5  -3  -2 6544.34 643.648  39
   5  -3  -1 95865.8 2296.37  31
   5  -3  -1 102509. 2530.30  47
   5  -3  -1 94916.9 2338.70  39
   5  -3   0 84297.5 2139.76  31
   5  -3   0 87590.7 2312.34  47
   5  -3   0 83385.5 2159.50  39
   5  -3   1 9770.39 1557.54  21
   5  -3   1 11127.1 782.768  31
   5  -3   1 12378.6 876.967  47
   5  -3   1 9506.04 1516.34   5
   5  -3   2 113760. 5220.81  21
   5  -3   2 115638. 2496.17  31
   5  -3   2 120608. 2680.17  47
   5  -3   2 110260. 5016.42   5
   5  -3   3 52482.2 3567.97  21
   5  -3   3 53178.0 1810.87  47
   5  -3   3 52212.7 1687.98  38
   5  -3   4 26683.8 2572.68  21
   5  -3   4 25856.6 1084.90  36
   5  -3   4 27374.0 1314.53  47
   5  -3   4 25383.2 1186.95  38
   5  -3   5 274119. 3498.15  36
   5  -3   5 277996. 4267.46  47
   5  -3   6 25399.1 1068.65  36
   5  -3   6 24985.4 1305.25  47
   5  -3   6 26076.1 2527.58  21
   5  -3   7 26169.6 1331.75  47
   5  -3   8 72660.9 1878.22  37
   5  -3   8 77767.1 2196.63  47
   5  -3   9 4758.09 455.155  37
   5  -3  10 13365.2 626.971  37
   5  -2  -9 11154.9 551.088  47
   5  -2  -9 11300.7 606.512  39
   5  -2  -8 27556.9 1070.86  47
   5  -2  -8 28732.3 1149.04  39
   5  -2  -7 7997.69 554.333  31
   5  -2  -7 7298.76 650.261  47
   5  -2  -6 10521.0 697.998  31
   5  -2  -6 12876.2 901.165  47
   5  -2  -5 96521.9 2481.79  47
   5  -2  -5 92092.3 2474.05  39
   5  -2  -4 416.764 207.845  31
   5  -2  -4 718.329 289.931  47
   5  -2  -4 745.945 303.274  39
   5  -2  -3 118969. 2504.19  31
   5  -2  -3 128064. 2816.18  47
   5  -2  -3 121360. 2771.43  39
   5  -2  -2 143349. 2720.89  31
   5  -2  -2 148418. 2992.36  47
   5  -2  -2 145025. 2966.13  39
   5  -2  -1 872.519 249.799  31
   5  -2  -1 1104.88 295.842  47
   5  -2  -1 543.457 360.596   5
   5  -2  -1 984.004 279.197  39
   5  -2   0 126089. 5466.84  21
   5  -2   0 125971. 2527.03  31
   5  -2   0 132677. 2742.47  47
   5  -2   0 121813. 5388.79   5
   5  -2   0 127533. 2699.99  39
   5  -2   1 65748.0 3967.47  21
   5  -2   1 64235.0 1821.15  31
   5  -2   1 63119.9 1900.66  47
   5  -2   1 58651.3 3627.38   5
   5  -2   2 2839.62 939.605  21
   5  -2   2 3634.67 453.281  31
   5  -2   2 4293.01 522.481  47
   5  -2   3 97356.3 4899.89  21
   5  -2   3 98866.6 2426.72  47
   5  -2   3 92624.7 2333.96  38
   5  -2   4 44453.6 1680.61  47
   5  -2   4 44959.1 1639.52  38
   5  -2   4 46521.4 3439.24  21
   5  -2   5 159910. 3240.33  47
   5  -2   5 153876. 3019.88  38
   5  -2   5 150859. 6224.69  21
   5  -2   6 191787. 3603.14  47
   5  -2   6 188764. 3231.99  38
   5  -2   6 181751. 6755.59  21
   5  -2   7 37712.2 1585.08  47
   5  -2   7 36749.1 1351.75  38
   5  -2   8 31729.9 1261.65  37
   5  -2   8 33355.2 1432.41  47
   5  -2   9 52850.9 1455.61  37
   5  -2  10 1393.06 225.167  37
   5  -1 -10 32833.7 945.115  39
   5  -1  -9 7387.67 488.371  47
   5  -1  -9 8924.85 632.167  39
   5  -1  -8 8599.62 627.615  47
   5  -1  -8 8507.03 717.961  39
   5  -1  -7 49244.7 1609.48  47
   5  -1  -6 13294.8 751.226  31
   5  -1  -6 12917.9 878.065  47
   5  -1  -5 143929. 2558.29  31
   5  -1  -5 153231. 3001.53  47
   5  -1  -5 150018. 3156.70  39
   5  -1  -4 143766. 2602.92  31
   5  -1  -4 144543. 2917.30  47
   5  -1  -4 146154. 3075.68  39
   5  -1  -3 696.423 222.459  31
   5  -1  -3 384.777 223.433  47
   5  -1  -3 592.481 265.341  39
   5  -1  -2 100159. 2185.31  31
   5  -1  -2 107106. 2433.44  47
   5  -1  -2 95872.8 4850.75   5
   5  -1  -2 104429. 2501.01  39
   5  -1  -1 55641.7 1622.05  31
   5  -1  -1 53859.6 1710.35  47
   5  -1  -1 52217.7 3520.67   5
   5  -1  -1 54432.6 1599.23  42
   5  -1  -1 56452.1 1816.52  39
   5  -1   0 7011.02 1314.65  21
   5  -1   0 6392.79 565.872  31
   5  -1   0 8400.34 681.472  47
   5  -1   0 5357.03 1063.98   5
   5  -1   0 7766.32 680.400  39
   5  -1   1 72968.7 4162.30  21
   5  -1   1 69175.4 1869.46  31
   5  -1   1 73696.3 2009.02  47
   5  -1   2 69978.4 4130.60  21
   5  -1   2 67532.2 1952.02  47
   5  -1   3 366.205 483.715  21
   5  -1   3 614.112 243.290  47
   5  -1   3 596.136 252.582  38
   5  -1   4 162542. 3191.95  47
   5  -1   4 154825. 3120.39  38
   5  -1   4 157902. 6354.46  21
   5  -1   5 3399.62 1034.96  21
   5  -1   5 3752.64 534.571  47
   5  -1   5 3455.92 479.776  38
   5  -1   6 59915.8 2002.28  47
   5  -1   6 56087.7 1816.53  38
   5  -1   7 101656. 2544.48  47
   5  -1   7 96382.5 2220.68  38
   5  -1   8 414.587 227.478  37
   5  -1   9 49300.7 1372.45  37
   5  -1  10 33776.0 949.576  37
   5   0 -10 4567.82 419.983  39
   5   0  -9 29939.9 961.597  47
   5   0  -9 32714.0 1266.83  39
   5   0  -8 7474.84 571.800  47
   5   0  -8 8706.84 762.177  39
   5   0  -7 41282.0 1427.13  47
   5   0  -7 41598.1 1651.01  39
   5   0  -6 221856. 3411.87  47
   5   0  -6 227534. 3879.64  39
   5   0  -5 775.162 240.627  47
   5   0  -5 1146.93 335.928  39
   5   0  -4 130409. 2338.94  31
   5   0  -4 131479. 2639.59  47
   5   0  -4 134048. 2901.09  39
   5   0  -3 101263. 2089.26  31
   5   0  -3 101689. 2298.69  47
   5   0  -3 107934. 2555.36  39
   5   0  -2 10037.7 672.681  31
   5   0  -2 10686.1 745.904  47
   5   0  -2 8750.25 1462.45   5
   5   0  -2 10084.9 728.825  42
   5   0  -2 10487.7 792.048  39
   5   0  -1 123944. 5348.11  21
   5   0  -1 118443. 2315.59  31
   5   0  -1 119071. 2463.97  47
   5   0  -1 118282. 2419.58  42
   5   0  -1 123017. 2684.29  39
   5   0   0 36490.1 2926.51  21
   5   0   0 36471.9 1309.19  31
   5   0   0 36731.2 1381.18  47
   5   0   0 34157.1 2656.99   5
   5   0   0 37514.9 1340.89  42
   5   0   1 19238.9 2170.61  21
   5   0   1 22777.6 1104.77  47
   5   0   1 21460.7 1014.89  42
   5   0   2 225656. 7487.08  21
   5   0   2 216385. 3478.80  47
   5   0   2 219769. 3661.99  38
   5   0   3 200830. 3443.27  47
   5   0   3 201291. 3543.83  38
   5   0   3 205181. 7186.56  21
   5   0   4 29721.5 1368.38  47
   5   0   4 28843.4 1366.92  38
   5   0   4 27468.2 2683.99  21
   5   0   5 80979.6 2287.07  47
   5   0   5 78337.4 2210.60  38
   5   0   5 78409.4 4501.69  21
   5   0   6 6744.67 680.812  47
   5   0   6 8172.78 699.002  38
   5   0   7 63036.1 1925.41  47
   5   0   7 60351.8 1741.79  38
   5   0   8 79744.0 1893.95  37
   5   0   9 285.163 166.444  37
   5   0  10 34322.4 861.392  37
   5   1 -11 39790.8 998.353  39
   5   1 -10 12478.8 712.959  39
   5   1  -9 10316.2 743.528  39
   5   1  -8 65373.5 1964.27  39
   5   1  -7 43996.9 1676.10  39
   5   1  -6 72048.4 1812.40  47
   5   1  -6 70644.1 2134.40  39
   5   1  -5 67023.7 1764.09  47
   5   1  -5 70470.5 2101.46  39
   5   1  -4 560.301 196.651  47
   5   1  -4 156.736 191.682  39
   5   1  -3 85535.1 1987.15  47
   5   1  -3 83277.7 2135.40  42
   5   1  -3 88062.0 2290.60  39
   5   1  -2 39551.3 2972.44  21
   5   1  -2 39277.4 1268.71  31
   5   1  -2 39127.1 1350.76  47
   5   1  -2 39961.2 1374.36  27
   5   1  -2 36667.0 2939.58   5
   5   1  -2 38155.6 1435.46  42
   5   1  -2 40694.8 1546.33  39
   5   1  -1 28216.3 2528.20  21
   5   1  -1 30897.8 1212.67  47
   5   1  -1 29487.1 1168.23  27
   5   1  -1 26186.3 2383.68   5
   5   1  -1 30898.2 1276.96  42
   5   1  -1 29917.1 1332.78  39
   5   1   0 165925. 6182.75  21
   5   1   0 165235. 2844.72  47
   5   1   0 167797. 2948.62  42
   5   1   1 91927.3 4692.94  21
   5   1   1 83861.5 2082.47  47
   5   1   2 17961.1 2121.10  21
   5   1   2 18761.3 1023.12  47
   5   1   2 18087.0 1077.69  38
   5   1   3 262442. 3941.15  47
   5   1   3 265814. 4139.42  38
   5   1   3 265450. 8214.74  21
   5   1   4 7397.89 692.529  47
   5   1   4 7919.59 730.148  38
   5   1   4 7835.26 1451.08  21
   5   1   5 44594.8 1657.44  47
   5   1   5 44377.2 1658.07  38
   5   1   6 72855.8 2062.17  47
   5   1   6 75289.4 2042.62  38
   5   1   7 2402.06 389.606  37
   5   1   8 39607.7 1245.11  37
   5   1   9 42310.3 1075.72  37
   5   2 -11 14162.3 659.684  42
   5   2 -11 13747.3 630.858  39
   5   2 -10 41318.5 1295.49  39
   5   2  -9 5086.68 539.737  39
   5   2  -8 33484.4 1390.33  39
   5   2  -7 190947. 3399.49  39
   5   2  -6 10122.4 777.533  15
   5   2  -6 4663.95 568.523  39
   5   2  -5 50785.3 1770.93  39
   5   2  -4 85593.6 2231.49  42
   5   2  -4 91640.1 2341.30  39
   5   2  -3 150.621 377.824  21
   5   2  -3 200.346 166.491  27
   5   2  -3 175.551 169.462  42
   5   2  -3 107.340 172.891  39
   5   2  -2 102980. 4694.60  21
   5   2  -2 103951. 2088.55  47
   5   2  -2 95326.0 4586.37   5
   5   2  -2 102532. 2284.57  27
   5   2  -2 104515. 2399.89  42
   5   2  -2 106752. 2507.73  39
   5   2  -1 82597.0 4280.58  21
   5   2  -1 77602.1 1848.98  47
   5   2  -1 82985.1 2056.04  27
   5   2  -1 78103.5 2082.85  42
   5   2   0 14156.2 1827.63  21
   5   2   0 15885.4 861.515  47
   5   2   0 16864.6 974.733  42
   5   2   1 207320. 6981.55  21
   5   2   1 203534. 3208.84  47
   5   2   1 212555. 3621.34  38
   5   2   2 131137. 2677.86  47
   5   2   2 137334. 2970.20  38
   5   2   2 141633. 5868.20  21
   5   2   3 54649.0 1772.25  47
   5   2   3 56341.5 1923.89  38
   5   2   3 54282.5 3669.42  21
   5   2   4 58628.1 1845.13  47
   5   2   4 59508.9 1946.54  38
   5   2   5 1525.65 340.514  47
   5   2   5 1993.72 381.790  38
   5   2   6 41497.3 1457.75  38
   5   2   7 58672.7 1575.50  37
   5   2   8 1975.19 279.535  37
   5   2   9 27891.6 732.257  37
   5   3 -12 26494.4 732.488  27
   5   3 -11 3407.23 347.944  42
   5   3 -11 3714.53 343.443  39
   5   3 -10 13026.0 763.763  42
   5   3 -10 12481.2 714.437  39
   5   3  -9 29145.6 1199.00  39
   5   3  -8 4038.51 494.741  39
   5   3  -7 151716. 2947.34  39
   5   3  -6 120034. 2695.74  42
   5   3  -6 120556. 2652.84  39
   5   3  -5 4553.90 976.089  21
   5   3  -5 2950.40 445.491  42
   5   3  -5 3417.01 470.023  39
   5   3  -4 71286.2 3790.75  21
   5   3  -4 75336.4 2039.83  27
   5   3  -4 77581.4 2129.22  42
   5   3  -4 76808.8 2109.77  39
   5   3  -3 82116.0 4107.47  21
   5   3  -3 85833.1 2168.52  27
   5   3  -3 83760.6 2203.21  42
   5   3  -3 86739.0 2242.88  39
   5   3  -2 6851.76 1240.72  21
   5   3  -2 5817.37 573.366  27
   5   3  -2 7236.74 656.776  42
   5   3  -1 141787. 5557.90  21
   5   3  -1 143679. 2797.32  27
   5   3  -1 147488. 2927.35  42
   5   3   0 64775.1 3821.87  21
   5   3   0 66987.1 2025.55  38
   5   3   1 23443.7 1064.97  47
   5   3   1 22176.2 1194.75  38
   5   3   1 19999.5 2163.07  21
   5   3   2 181880. 3058.13  47
   5   3   2 188636. 3476.91  38
   5   3   2 181242. 6544.70  21
   5   3   3 1645.94 318.790  47
   5   3   3 863.585 289.456  38
   5   3   4 40956.5 1271.19  30
   5   3   4 41723.1 1467.45  47
   5   3   4 43249.4 1601.80  38
   5   3   5 65195.1 1866.79  38
   5   3   6 5916.10 528.313  37
   5   3   7 30838.9 1005.27  37
   5   3   8 51534.4 1064.27  37
   5   4 -12 9862.55 481.218  27
   5   4 -11 46021.5 1205.57  42
   5   4 -11 43155.5 1053.00  39
   5   4 -10 16122.2 840.725  42
   5   4 -10 15735.6 775.093  39
   5   4  -9 6710.12 605.301  42
   5   4  -9 5944.39 537.580  39
   5   4  -8 94014.6 2278.62  42
   5   4  -8 94093.3 2178.71  39
   5   4  -7 2977.92 446.976  42
   5   4  -7 2629.56 412.424  39
   5   4  -6 110636. 2541.80  27
   5   4  -6 113080. 2597.82  42
   5   4  -6 112781. 2490.54  39
   5   4  -5 118159. 4598.88  21
   5   4  -5 118645. 2625.65  27
   5   4  -5 118454. 2669.72  42
   5   4  -5 120151. 2591.93  39
   5   4  -4 1741.97 637.030  21
   5   4  -4 2345.70 393.033  27
   5   4  -4 1902.14 378.421  42
   5   4  -4 1728.85 339.962  39
   5   4  -3 93882.4 4291.52  21
   5   4  -3 98555.5 2372.01  27
   5   4  -3 97689.8 2423.84  42
   5   4  -2 67763.9 3708.92  21
   5   4  -2 68544.4 1985.72  27
   5   4  -2 68745.9 2040.44  42
   5   4  -2 67286.5 1765.16  41
   5   4  -1 9363.95 1435.52  21
   5   4  -1 11942.5 857.402  38
   5   4   0 140402. 2945.88  38
   5   4   0 134745. 5383.48  21
   5   4   1 44974.6 1686.25  38
   5   4   1 45619.3 3174.15  21
   5   4   2 106762. 2559.77  38
   5   4   3 85067.1 1929.52  30
   5   4   3 89241.5 2271.42  38
   5   4   4 3454.10 383.458  30
   5   4   4 3681.65 478.844  38
   5   4   5 41544.1 1315.99  37
   5   4   5 39378.6 1095.10  30
   5   4   5 43278.2 1394.49  38
   5   4   6 75538.8 1544.24  37
   5   4   7 5855.10 366.715  37
   5   5 -12 10516.0 502.329  27
   5   5 -11 10608.4 622.881  27
   5   5 -11 10885.5 578.687  42
   5   5 -10 57191.5 1579.49  27
   5   5 -10 55145.6 1493.72  42
   5   5 -10 54275.7 1315.16  39
   5   5  -9 25529.7 1111.23  42
   5   5  -9 24812.2 999.359  39
   5   5  -8 76855.8 2073.61  27
   5   5  -8 77484.7 2033.18  42
   5   5  -8 76779.9 1867.32  39
   5   5  -7 57698.5 1837.61  27
   5   5  -7 56317.8 1802.23  42
   5   5  -7 56876.3 1676.84  39
   5   5  -6 459.931 249.071  27
   5   5  -6 833.353 280.315  42
   5   5  -6 1027.85 269.171  39
   5   5  -5 66856.4 1977.43  27
   5   5  -5 65266.0 1991.38  42
   5   5  -4 52984.7 1777.19  27
   5   5  -4 53540.4 1811.12  42
   5   5  -3 4855.40 558.744  27
   5   5  -3 5819.98 620.245  42
   5   5  -3 6692.90 594.509  41
   5   5  -2 105372. 2255.00  41
   5   5  -2 107160. 2463.62  38
   5   5  -2 101404. 4315.22  21
   5   5  -1 68099.9 1736.84  41
   5   5  -1 68006.9 1992.19  38
   5   5  -1 69045.1 3649.97  21
   5   5   0 11334.7 825.276  38
   5   5   0 9547.46 1382.18  21
   5   5   1 190449. 3311.39  38
   5   5   2 15330.1 928.712  38
   5   5   3 25851.2 1030.55  30
   5   5   3 26506.9 1151.53  38
   5   5   4 43560.2 1208.87  30
   5   5   4 46194.7 1405.97  38
   5   5   5 98.5414 121.080  37
   5   5   5 329.467 134.645  30
   5   5   6 55777.1 1046.83  37
   5   6 -12 39317.3 936.867  27
   5   6 -11 11489.6 623.243  27
   5   6 -11 9754.12 515.228  42
   5   6 -10 16225.2 832.384  27
   5   6 -10 17574.6 812.295  42
   5   6  -9 120850. 2406.06  27
   5   6  -9 116355. 2281.29  42
   5   6  -8 292.258 252.972  27
   5   6  -8 305.953 227.161  42
   5   6  -7 59016.9 1829.58  27
   5   6  -7 59819.8 1804.29  42
   5   6  -6 38515.2 1496.78  27
   5   6  -6 38217.7 1495.65  42
   5   6  -5 2966.03 444.405  27
   5   6  -5 3662.05 501.014  42
   5   6  -4 96458.9 2389.45  27
   5   6  -4 93009.9 2225.42  41
   5   6  -4 93608.3 2175.18  38
   5   6  -3 57674.2 1717.15  41
   5   6  -3 58277.7 1739.41  38
   5   6  -2 5725.93 537.504  41
   5   6  -2 5029.03 533.331  38
   5   6  -1 127327. 2336.07  41
   5   6  -1 123260. 2568.68  38
   5   6   0 104260. 2332.88  38
   5   6   1 13748.0 837.686  38
   5   6   2 57012.5 1535.73  30
   5   6   2 54676.9 1559.90  38
   5   6   3 7924.60 516.950  37
   5   6   3 8564.32 556.398  30
   5   6   3 8718.37 593.239  38
   5   6   4 29181.9 846.977  37
   5   6   4 29491.4 891.754  30
   5   6   5 58506.9 926.717  37
   5   6   5 68284.4 1074.57  30
   5   7 -12 21265.3 667.259  41
   5   7 -11 58621.3 1323.97  27
   5   7 -10 21408.9 908.158  27
   5   7 -10 18635.3 778.807  42
   5   7  -9 53110.7 1547.44  27
   5   7  -9 53113.0 1471.44  42
   5   7  -8 32801.5 1287.64  27
   5   7  -8 29195.0 1177.44  42
   5   7  -7 2365.02 401.353  27
   5   7  -7 2779.86 414.102  42
   5   7  -7 3288.68 458.415  41
   5   7  -6 55037.2 1597.26  54
   5   7  -6 55821.0 1772.16  27
   5   7  -6 55087.8 1714.30  41
   5   7  -5 47730.6 1466.16  54
   5   7  -5 51417.3 1724.65  27
   5   7  -5 48353.2 1606.40  41
   5   7  -5 47413.0 1400.21  38
   5   7  -4 6068.56 516.199  54
   5   7  -4 5239.77 541.596  41
   5   7  -4 5140.07 485.793  38
   5   7  -3 85112.3 2038.94  41
   5   7  -3 83647.4 1943.35  38
   5   7  -2 33642.8 1229.14  41
   5   7  -2 32138.2 1213.69  38
   5   7  -1 18361.2 851.650  41
   5   7  -1 18618.1 921.420  38
   5   7   0 106870. 2112.11  38
   5   7   1 2864.60 377.217  30
   5   7   1 2768.24 346.732  38
   5   7   2 27488.7 965.975  30
   5   7   3 43324.3 1066.53  30
   5   7   4 2699.80 233.738  30
   5   8 -11 18555.6 682.752  27
   5   8 -11 21158.1 764.583  41
   5   8 -10 93787.5 1756.32  27
   5   8 -10 91699.2 1805.56  41
   5   8  -9 1184.71 260.994  27
   5   8  -9 997.713 265.666  41
   5   8  -8 33613.8 1187.43  54
   5   8  -8 34065.6 1237.32  27
   5   8  -8 35247.5 1284.19  41
   5   8  -7 45137.1 1395.62  54
   5   8  -7 49884.5 1556.33  27
   5   8  -7 46867.4 1517.27  41
   5   8  -6 1352.54 286.562  54
   5   8  -6 2024.83 362.615  41
   5   8  -5 64189.7 1628.22  54
   5   8  -5 64042.1 1769.38  41
   5   8  -4 52601.4 1423.59  54
   5   8  -4 55085.8 1607.53  41
   5   8  -3 5047.29 487.042  41
   5   8  -2 78693.0 1742.46  41
   5   8  -1 20618.5 826.859  41
   5   8  -1 20897.3 803.425  38
   5   8   0 42146.3 1253.47  30
   5   8   0 40823.5 1063.63  38
   5   8   1 43359.7 1162.05  30
   5   8   2 1890.47 239.196  30
   5   8   3 13114.5 469.496  30
   5   9 -11 5570.46 360.028  54
   5   9 -11 6664.11 388.962  41
   5   9 -10 30527.9 921.249  54
   5   9 -10 30079.9 942.824  41
   5   9  -9 17752.6 766.139  54
   5   9  -9 17974.8 805.869  41
   5   9  -8 2921.89 351.808  54
   5   9  -8 2564.57 353.179  41
   5   9  -7 61531.6 1499.04  54
   5   9  -7 62767.7 1626.43  41
   5   9  -6 75537.5 1662.96  54
   5   9  -6 80634.9 1860.83  41
   5   9  -5 1902.87 280.481  54
   5   9  -5 1959.47 323.349  41
   5   9  -4 85624.3 1639.39  54
   5   9  -4 86246.0 1827.12  41
   5   9  -3 39397.1 1174.70  41
   5   9  -2 14889.0 675.627  41
   5   9  -1 82529.0 1615.14  30
   5   9   0 1966.91 254.854  30
   5   9   1 26889.6 748.584  30
   5  10 -10 1256.64 179.456  54
   5  10 -10 1011.51 173.093  41
   5  10  -9 24422.0 786.338  54
   5  10  -9 24805.7 825.427  41
   5  10  -8 20422.5 756.161  54
   5  10  -8 22516.4 842.084  41
   5  10  -7 168.907 131.845  54
   5  10  -7 156.114 162.720  41
   5  10  -6 57113.0 1267.72  54
   5  10  -6 60129.1 1408.90  41
   5  10  -5 37744.9 987.830  54
   5  10  -5 43480.9 1178.87  41
   5  10  -4 2426.03 246.235  54
   5  10  -4 2068.01 269.743  41
   5  10  -3 42796.8 1046.30  41
   5  10  -2 10386.6 511.565  30
   5  10  -1 28918.9 764.282  30
   5  11  -8 27012.5 695.126  54
   5  11  -8 28894.2 777.217  41
   5  11  -7 33489.8 789.188  54
   5  11  -7 38689.6 928.718  41
   5  11  -6 109.404 72.2059  54
   5  11  -6 141.643 113.081  41
   5  11  -5 22349.6 690.983  41
   5  11  -4 10495.7 432.915  30
   6  -9   1 29818.0 796.566  36
   6  -9   2 18225.8 689.937  36
   6  -9   3 1568.91 246.586  36
   6  -9   4 46849.9 1181.59  36
   6  -9   5 11486.7 593.167  36
   6  -9   6 11008.4 566.888  36
   6  -9   7 46178.0 1074.49  36
   6  -8  -1 23338.2 730.948  31
   6  -8   0 27072.8 876.463  31
   6  -8   0 23195.8 756.002  47
   6  -8   1 1810.49 276.795  31
   6  -8   1 1774.59 253.370  47
   6  -8   2 27647.9 937.995  47
   6  -8   3 16476.9 792.493  36
   6  -8   3 13990.2 684.586  47
   6  -8   4 20242.6 882.371  36
   6  -8   4 18629.5 782.723  47
   6  -8   5 56673.7 1448.74  36
   6  -8   5 49501.2 1217.23  47
   6  -8   6 7024.00 515.121  36
   6  -8   7 37183.2 1068.59  36
   6  -8   8 40131.2 996.860  36
   6  -7  -2 19133.4 740.314  31
   6  -7  -2 17732.9 700.310  47
   6  -7  -1 656.915 208.744  31
   6  -7  -1 740.771 211.928  47
   6  -7   0 42154.8 1294.72  31
   6  -7   0 38874.3 1229.55  47
   6  -7   1 17238.4 868.048  31
   6  -7   1 14503.3 797.924  47
   6  -7   2 4427.72 468.945  47
   6  -7   3 65393.4 1694.20  36
   6  -7   3 63113.3 1679.32  47
   6  -7   4 15386.0 824.039  36
   6  -7   4 13648.2 788.580  47
   6  -7   5 18848.6 888.627  36
   6  -7   5 18300.4 886.938  47
   6  -7   6 89703.4 1821.94  36
   6  -7   6 82403.0 1777.21  47
   6  -7   7 8855.38 550.950  36
   6  -7   7 7490.14 504.281  47
   6  -7   8 23340.5 782.650  36
   6  -6  -4 44177.3 947.867  31
   6  -6  -4 43029.0 1002.87  47
   6  -6  -3 77.6208 133.212  31
   6  -6  -3 99.9250 147.862  47
   6  -6  -2 19892.2 883.028  31
   6  -6  -2 19315.1 890.346  47
   6  -6  -1 10833.6 711.308  31
   6  -6  -1 9777.65 686.595  47
   6  -6   0 18046.7 940.438  31
   6  -6   0 17724.8 955.331  47
   6  -6   1 51830.1 1614.55  31
   6  -6   1 50232.3 1627.06  47
   6  -6   2 25234.2 1172.15  47
   6  -6   3 18342.9 921.956  36
   6  -6   3 18734.3 1013.96  47
   6  -6   4 78515.2 1860.44  36
   6  -6   4 79272.4 2030.04  47
   6  -6   5 44524.8 1359.35  36
   6  -6   5 41862.9 1453.21  47
   6  -6   6 8420.49 578.937  36
   6  -6   6 8333.28 641.175  47
   6  -6   7 38773.1 1124.18  36
   6  -6   7 36614.0 1223.56  47
   6  -6   8 1033.67 191.489  36
   6  -6   8 830.767 200.706  47
   6  -5  -5 687.109 167.256  47
   6  -5  -4 39486.1 1098.52  31
   6  -5  -4 41469.2 1219.03  47
   6  -5  -3 27122.5 1048.46  31
   6  -5  -3 26062.9 1079.14  47
   6  -5  -2 2017.04 356.913  31
   6  -5  -2 2444.69 403.521  47
   6  -5  -1 53603.8 1637.17  31
   6  -5  -1 51310.6 1689.87  47
   6  -5   0 18573.0 1002.16  31
   6  -5   0 16073.7 982.490  47
   6  -5   1 4964.38 563.563  31
   6  -5   1 5379.91 604.828  47
   6  -5   2 82968.5 2205.99  47
   6  -5   3 15128.2 840.281  36
   6  -5   3 15142.4 959.120  47
   6  -5   4 25088.7 1036.88  36
   6  -5   4 26725.2 1248.35  47
   6  -5   5 84954.2 1828.74  36
   6  -5   5 88330.0 2207.15  47
   6  -5   6 6959.35 510.010  36
   6  -5   6 6566.31 602.997  47
   6  -5   7 35010.0 1009.90  36
   6  -5   7 35400.5 1274.40  47
   6  -5   8 54826.8 1408.91  47
   6  -4  -6 19232.2 661.152  47
   6  -4  -5 30839.4 906.254  31
   6  -4  -5 30353.6 1029.91  47
   6  -4  -4 868.222 230.132  31
   6  -4  -4 1420.74 312.479  47
   6  -4  -4 1020.98 209.394  39
   6  -4  -3 34928.5 1250.22  31
   6  -4  -3 35023.9 1357.52  47
   6  -4  -3 31125.4 1095.50  39
   6  -4  -2 25936.2 1135.47  31
   6  -4  -2 23917.6 1178.30  47
   6  -4  -1 6385.57 607.312  31
   6  -4  -1 7718.70 712.016  47
   6  -4   0 66825.0 1898.58  31
   6  -4   0 65696.2 2013.82  47
   6  -4   1 58603.0 3550.25  21
   6  -4   1 62932.6 1876.02  31
   6  -4   1 59830.0 1929.84  47
   6  -4   2 9884.65 1492.50  21
   6  -4   2 11473.4 860.387  47
   6  -4   3 50279.5 1437.97  36
   6  -4   3 52960.5 1799.99  47
   6  -4   4 334.696 166.575  36
   6  -4   4 75.9233 245.870  47
   6  -4   5 98043.1 2382.10  47
   6  -4   6 87477.9 2171.35  47
   6  -4   7 69.3911 190.409  47
   6  -4   8 42583.0 1274.95  47
   6  -3  -6 338.740 162.277  47
   6  -3  -6 341.307 124.664  42
   6  -3  -6 357.020 153.117  39
   6  -3  -5 29121.0 951.842  31
   6  -3  -5 29369.9 1121.88  47
   6  -3  -5 28345.0 942.529  42
   6  -3  -5 26983.8 1031.87  39
   6  -3  -4 21110.5 921.594  31
   6  -3  -4 20295.7 1014.64  47
   6  -3  -4 18992.3 833.022  42
   6  -3  -4 19363.5 942.560  39
   6  -3  -3 971.646 275.583  31
   6  -3  -3 1787.88 361.460  47
   6  -3  -3 1147.78 294.202  39
   6  -3  -2 54701.6 1646.09  31
   6  -3  -2 54782.9 1789.02  47
   6  -3  -2 49347.4 1624.04  39
   6  -3  -1 39958.2 3025.12  21
   6  -3  -1 40134.0 1450.87  31
   6  -3  -1 38397.5 1522.60  47
   6  -3   0 4586.19 1075.83  21
   6  -3   0 4605.98 530.279  31
   6  -3   0 4831.29 575.265  47
   6  -3   1 167089. 6271.01  21
   6  -3   1 176832. 3295.82  47
   6  -3   2 63238.2 3838.66  21
   6  -3   2 64332.5 1993.07  47
   6  -3   2 61024.1 1790.03  38
   6  -3   3 13712.7 933.786  47
   6  -3   3 11764.6 774.482  38
   6  -3   3 11064.0 1607.14  21
   6  -3   4 56775.8 1868.18  47
   6  -3   5 171.309 248.536  47
   6  -3   6 71954.4 1983.56  47
   6  -3   7 54027.7 1308.23  37
   6  -3   7 60468.6 1683.46  47
   6  -2  -7 13937.1 579.621  47
   6  -2  -7 14023.8 603.861  42
   6  -2  -7 14338.5 649.907  39
   6  -2  -6 14166.9 717.578  47
   6  -2  -6 13654.1 702.440  42
   6  -2  -6 14418.7 776.977  39
   6  -2  -5 5561.84 437.079  31
   6  -2  -5 5779.31 530.558  47
   6  -2  -5 5727.86 505.756  42
   6  -2  -5 5377.22 539.800  39
   6  -2  -4 39425.8 1251.54  31
   6  -2  -4 42056.2 1451.23  47
   6  -2  -4 39987.7 1333.99  42
   6  -2  -4 39115.9 1458.85  39
   6  -2  -3 21313.5 987.946  31
   6  -2  -3 21556.0 1090.61  47
   6  -2  -3 19636.5 950.974  42
   6  -2  -3 20107.2 1086.71  39
   6  -2  -2 8020.82 1384.89  21
   6  -2  -2 9734.64 697.769  31
   6  -2  -2 9845.26 768.206  47
   6  -2  -2 9239.38 755.046  39
   6  -2  -1 87171.7 4561.34  21
   6  -2  -1 89215.2 2138.33  31
   6  -2  -1 92020.8 2307.15  47
   6  -2   0 73580.8 4240.12  21
   6  -2   0 74436.3 2096.42  47
   6  -2   1 24707.5 2475.14  21
   6  -2   1 29415.5 1337.87  47
   6  -2   1 26398.0 1248.36  38
   6  -2   2 109860. 5162.27  21
   6  -2   2 120092. 2690.52  47
   6  -2   2 113572. 2555.53  38
   6  -2   3 9960.06 800.972  47
   6  -2   3 9436.98 733.877  38
   6  -2   3 11097.5 1651.41  21
   6  -2   4 48549.7 1718.61  47
   6  -2   4 45276.9 1531.57  38
   6  -2   4 44828.2 3159.04  21
   6  -2   5 81264.7 2173.30  47
   6  -2   5 76948.4 1850.07  38
   6  -2   6 791.368 290.968  47
   6  -2   6 1198.86 234.743  38
   6  -2   7 32823.1 1066.90  37
   6  -2   7 37266.8 1292.13  47
   6  -2   8 50004.4 1096.01  37
   6  -1  -8 29950.4 849.769  42
   6  -1  -8 30372.5 892.759  39
   6  -1  -7 177.868 121.533  47
   6  -1  -7 258.205 168.374  42
   6  -1  -7 250.782 194.001  39
   6  -1  -6 35696.0 1136.33  47
   6  -1  -6 34182.8 1212.13  42
   6  -1  -6 36138.8 1335.57  39
   6  -1  -5 24163.7 1034.02  47
   6  -1  -5 24405.7 1083.38  42
   6  -1  -5 24720.2 1176.42  39
   6  -1  -4 2706.59 343.923  31
   6  -1  -4 3370.98 439.535  47
   6  -1  -4 3244.82 427.110  42
   6  -1  -4 2898.39 462.283  39
   6  -1  -3 49575.3 3365.99  21
   6  -1  -3 48392.7 1463.60  31
   6  -1  -3 49155.5 1597.23  47
   6  -1  -3 46546.9 1536.72  42
   6  -1  -3 49048.3 1726.28  39
   6  -1  -2 25190.9 2459.84  21
   6  -1  -2 24617.7 1087.29  31
   6  -1  -2 24088.8 1145.81  47
   6  -1  -2 23841.6 1084.83  42
   6  -1  -2 24668.6 1241.23  39
   6  -1  -1 3679.42 1004.53  21
   6  -1  -1 5575.86 572.189  47
   6  -1   0 101082. 4980.97  21
   6  -1   0 107503. 2461.08  47
   6  -1   1 22901.9 2411.29  21
   6  -1   1 20422.3 1089.86  47
   6  -1   1 20795.0 1131.34  38
   6  -1   2 30449.6 2775.73  21
   6  -1   2 32510.1 1382.52  47
   6  -1   2 30053.5 1350.16  38
   6  -1   3 68242.6 2002.74  47
   6  -1   3 65776.7 1954.49  38
   6  -1   3 65651.1 3950.67  21
   6  -1   4 6322.00 636.395  47
   6  -1   4 5906.32 588.563  38
   6  -1   5 52724.9 1700.77  47
   6  -1   5 49451.9 1523.47  38
   6  -1   6 59011.5 1697.88  47
   6  -1   6 53844.6 1417.37  38
   6  -1   7 2843.06 331.384  37
   6  -1   8 38810.1 946.849  37
   6   0  -8 55037.8 1316.96  42
   6   0  -8 54720.4 1350.43  39
   6   0  -7 60963.6 1566.67  42
   6   0  -7 61955.7 1647.60  39
   6   0  -6 262.919 155.149  47
   6   0  -6 278.614 217.533  42
   6   0  -6 569.987 266.090  39
   6   0  -5 43529.0 1335.32  47
   6   0  -5 43431.9 1488.66  42
   6   0  -5 44670.7 1598.84  39
   6   0  -4 20981.9 2153.74  21
   6   0  -4 19010.3 939.622  47
   6   0  -4 19144.9 1016.16  42
   6   0  -4 20300.2 1121.17  39
   6   0  -3 9247.40 1484.67  21
   6   0  -3 10857.4 734.582  47
   6   0  -3 11049.0 773.588  42
   6   0  -3 11146.3 847.563  39
   6   0  -2 63101.9 3851.81  21
   6   0  -2 62924.1 1787.55  47
   6   0  -2 62620.7 1807.92  42
   6   0  -1 30299.7 2713.88  21
   6   0  -1 29030.6 1244.06  47
   6   0  -1 30282.1 1241.51  42
   6   0   0 42057.7 3215.65  21
   6   0   0 44885.8 1553.17  47
   6   0   1 102603. 5004.61  21
   6   0   1 106723. 2412.96  47
   6   0   1 107176. 2582.28  38
   6   0   2 10712.9 789.077  47
   6   0   2 11301.6 845.449  38
   6   0   2 11319.2 1691.24  21
   6   0   3 23393.7 1149.21  47
   6   0   3 23657.0 1183.11  38
   6   0   3 20901.6 2234.71  21
   6   0   4 85556.8 2154.20  47
   6   0   4 86079.4 2130.59  38
   6   0   5 2025.24 368.199  47
   6   0   5 2067.16 341.817  38
   6   0   6 46561.0 1412.72  47
   6   0   6 45711.2 1288.54  38
   6   0   7 78716.9 1537.96  37
   6   0   8 592.523 131.780  37
   6   1  -9 20450.0 728.578  42
   6   1  -9 20936.4 734.137  39
   6   1  -8 1510.10 227.518  27
   6   1  -8 2106.63 305.534  42
   6   1  -8 1956.97 312.482  39
   6   1  -7 44492.5 1263.72  27
   6   1  -7 49172.8 1465.51  42
   6   1  -7 48297.4 1491.51  39
   6   1  -6 34089.1 1179.70  27
   6   1  -6 33934.3 1304.11  42
   6   1  -6 34837.0 1370.62  39
   6   1  -5 3404.91 405.432  27
   6   1  -5 3895.84 488.889  42
   6   1  -5 4384.14 554.190  39
   6   1  -4 49827.9 3209.78  21
   6   1  -4 51750.5 1450.09  47
   6   1  -4 51536.6 1513.30  27
   6   1  -4 51755.5 1678.24  42
   6   1  -4 54952.7 1829.94  39
   6   1  -3 30435.5 2592.60  21
   6   1  -3 29225.9 1134.51  47
   6   1  -3 30082.4 1291.02  42
   6   1  -2 4743.30 1104.34  21
   6   1  -2 5819.62 529.149  47
   6   1  -2 5740.80 575.062  42
   6   1  -1 109267. 5056.66  21
   6   1  -1 110799. 2320.16  47
   6   1  -1 111022. 2440.58  42
   6   1   0 16462.3 2021.98  21
   6   1   0 14716.3 869.655  47
   6   1   0 16451.2 1031.24  38
   6   1   1 46182.6 1554.73  47
   6   1   1 47104.1 1713.30  38
   6   1   1 43124.6 3208.38  21
   6   1   2 62840.2 1813.54  47
   6   1   2 64698.9 1969.92  38
   6   1   2 65326.6 3874.24  21
   6   1   3 8225.73 676.217  47
   6   1   3 7828.26 687.773  38
   6   1   4 60908.5 1701.32  47
   6   1   4 61734.6 1764.06  38
   6   1   5 82095.2 1866.47  47
   6   1   5 86506.6 1902.14  38
   6   1   6 12205.2 661.627  37
   6   1   6 11644.0 623.765  38
   6   1   7 37564.5 964.420  37
   6   2  -9 17965.2 647.414  27
   6   2  -9 20465.3 774.880  42
   6   2  -9 19514.7 738.071  39
   6   2  -8 7269.99 497.977  27
   6   2  -8 6522.91 515.736  42
   6   2  -8 6938.14 522.883  39
   6   2  -7 9488.97 627.140  27
   6   2  -7 11225.7 735.514  42
   6   2  -7 10897.8 724.100  39
   6   2  -6 63706.7 1669.93  27
   6   2  -6 66004.1 1831.62  42
   6   2  -6 68026.9 1878.73  39
   6   2  -5 30394.1 1194.26  27
   6   2  -5 28743.8 1253.94  42
   6   2  -5 29907.5 1299.62  39
   6   2  -4 1655.05 606.517  21
   6   2  -4 2495.42 364.423  27
   6   2  -4 2880.22 427.282  42
   6   2  -3 68959.9 3773.02  21
   6   2  -3 70410.7 1830.56  27
   6   2  -3 71303.7 2004.77  42
   6   2  -2 59323.3 3573.13  21
   6   2  -2 60858.1 1842.26  42
   6   2  -1 24059.7 1022.49  47
   6   2  -1 25773.7 1265.33  38
   6   2   0 88852.6 2008.38  47
   6   2   0 92278.1 2386.22  38
   6   2   0 88800.7 4452.28  21
   6   2   1 1140.06 582.185  21
   6   2   1 1690.72 312.204  47
   6   2   1 1859.71 384.339  38
   6   2   2 27149.6 1136.05  47
   6   2   2 28298.0 1289.83  38
   6   2   3 65493.2 1696.26  47
   6   2   3 68758.7 1907.17  38
   6   2   4 346.941 218.211  38
   6   2   5 48202.3 1331.64  38
   6   2   6 72375.6 1418.53  37
   6   2   7 360.260 109.378  37
   6   3  -9 3416.24 317.702  27
   6   3  -9 3736.85 354.567  42
   6   3  -8 25199.9 943.625  27
   6   3  -8 26010.1 1009.26  42
   6   3  -8 25307.5 962.437  39
   6   3  -7 18300.5 880.701  27
   6   3  -7 17964.5 915.914  42
   6   3  -7 17196.0 883.161  39
   6   3  -6 5781.88 532.252  27
   6   3  -6 6812.54 623.037  42
   6   3  -5 57735.4 1667.52  27
   6   3  -5 59282.0 1793.08  42
   6   3  -4 52881.5 1621.60  27
   6   3  -4 51606.0 1700.42  42
   6   3  -3 1329.23 506.017  21
   6   3  -3 2171.51 361.984  27
   6   3  -3 2729.11 424.235  42
   6   3  -2 104968. 4535.58  21
   6   3  -2 117335. 2614.35  38
   6   3  -1 19354.0 1087.19  38
   6   3  -1 18878.1 1961.22  21
   6   3   0 37243.4 1479.27  38
   6   3   1 32169.1 1368.65  38
   6   3   2 4768.79 535.273  38
   6   3   3 42133.5 1395.20  38
   6   3   4 39276.9 1228.28  38
   6   3   5 4101.00 361.560  37
   6   3   6 29996.5 758.078  37
   6   4  -9 6212.64 433.065  27
   6   4  -9 6576.38 458.057  42
   6   4  -8 3607.22 387.598  27
   6   4  -8 3932.44 414.363  42
   6   4  -7 53530.6 1502.31  27
   6   4  -7 55133.9 1577.12  42
   6   4  -6 34485.3 1264.50  27
   6   4  -6 33438.0 1303.43  42
   6   4  -5 778.363 250.634  27
   6   4  -5 1221.44 324.603  42
   6   4  -5 1166.94 248.992  41
   6   4  -4 62404.1 1749.08  27
   6   4  -4 65724.8 1902.79  42
   6   4  -4 62741.5 1555.37  41
   6   4  -3 30511.9 1280.90  38
   6   4  -2 55740.5 1741.88  38
   6   4  -1 103065. 2369.76  38
   6   4   0 390.019 259.447  38
   6   4   1 42696.4 1459.10  38
   6   4   2 91484.2 1563.14  30
   6   4   2 96167.3 2063.96  38
   6   4   3 3164.00 375.107  38
   6   4   4 28323.5 875.261  37
   6   4   4 29296.5 935.712  38
   6   4   5 54263.1 993.407  37
   6   5  -9 22561.9 801.439  27
   6   5  -9 22989.7 809.409  42
   6   5  -9 22111.7 770.572  41
   6   5  -8 30515.9 1039.73  27
   6   5  -8 30441.0 1052.78  42
   6   5  -7 363.956 184.628  27
   6   5  -7 699.125 238.480  42
   6   5  -7 667.123 201.495  41
   6   5  -6 28538.9 1134.41  27
   6   5  -6 30755.1 1213.11  42
   6   5  -6 29039.5 1055.85  41
   6   5  -5 23253.5 1049.76  27
   6   5  -5 22566.8 932.961  41
   6   5  -5 22496.4 997.802  38
   6   5  -4 5752.41 469.863  41
   6   5  -4 5281.46 515.393  38
   6   5  -3 65403.8 1758.73  38
   6   5  -2 1515.28 314.330  38
   6   5  -1 67071.0 1775.38  38
   6   5   0 60748.0 1637.16  38
   6   5   1 23175.5 831.903  30
   6   5   1 24365.6 990.878  38
   6   5   2 19379.6 668.091  30
   6   5   2 21298.4 858.795  38
   6   5   3 24699.8 770.892  37
   6   5   3 26085.6 854.094  38
   6   6  -9 1754.08 235.665  27
   6   6  -9 1591.06 218.316  41
   6   6  -8 59998.8 1389.37  27
   6   6  -8 56975.5 1309.65  41
   6   6  -7 26222.2 939.566  41
   6   6  -7 26014.7 833.275  38
   6   6  -6 2688.30 328.953  41
   6   6  -6 2508.86 301.168  38
   6   6  -5 46254.5 1273.94  41
   6   6  -5 47003.4 1304.65  38
   6   6  -4 16997.3 748.516  41
   6   6  -4 17042.3 816.735  38
   6   6  -3 27552.3 1048.87  38
   6   6  -2 67251.9 1615.04  38
   6   6  -1 5820.57 482.023  38
   6   6   0 3908.31 384.913  38
   6   6   1 62463.6 1218.84  30
   6   6   1 65150.6 1363.80  38
   6   6   2 5888.12 320.587  37
   6   6   2 6116.89 321.217  30
   6   7  -9 16390.3 582.417  41
   6   7  -8 8631.32 479.350  41
   6   7  -7 44760.6 1135.27  41
   6   7  -6 17049.3 724.811  41
   6   7  -5 9311.10 530.460  41
   6   7  -4 48316.2 1128.08  41
   6   7  -4 47164.1 1123.53  38
   6   7  -3 1540.99 230.799  38
   6   7  -2 30487.9 897.010  38
   6   7  -1 21274.9 715.704  38
   6   7   0 11479.2 510.575  30
   6   7   0 10704.5 467.755  38
   6   7   1 22094.6 590.783  30
   6   8  -8 16097.8 565.044  41
   6   8  -7 2529.48 250.526  41
   6   8  -6 34510.9 893.163  41
   6   8  -5 7546.35 411.966  41
   6   8  -1 8605.80 402.589  30
   7  -5   0 21380.9 769.347  47
   7  -5   1 37525.8 1070.11  47
   7  -5   2 1484.80 249.524  47
   7  -5   3 18663.6 764.594  47
   7  -5   4 15208.6 662.845  47
   7  -5   5 155.292 107.668  47
   7  -4  -2 12128.0 555.138  47
   7  -4  -1 32755.9 996.445  47
   7  -4   0 735.338 208.525  47
   7  -4   1 31708.0 1059.83  47
   7  -4   2 37530.3 1162.38  47
   7  -4   3 1661.22 269.909  47
   7  -4   4 36492.3 1090.02  47
   7  -4   5 34445.4 974.337  47
   7  -3  -3 24189.6 752.596  47
   7  -3  -2 4187.67 367.531  47
   7  -3  -1 30124.1 1011.20  47
   7  -3   0 55821.4 1423.86  47
   7  -3   1 1963.03 302.424  47
   7  -3   2 51050.7 1389.85  47
   7  -3   3 37381.9 1165.76  47
   7  -3   4 152.033 163.081  47
   7  -3   5 45931.8 1136.52  47
   7  -2  -3 8014.81 461.316  47
   7  -2  -3 7422.70 441.853  38
   7  -2  -2 40539.7 1121.39  47
   7  -2  -2 38347.8 1071.64  38
   7  -2  -1 817.186 209.469  47
   7  -2  -1 924.815 210.442  38
   7  -2   0 42053.3 1247.92  47
   7  -2   0 37601.0 1109.37  38
   7  -2   1 61831.7 1527.34  47
   7  -2   1 56140.5 1324.28  38
   7  -2   2 653.239 214.485  47
   7  -2   3 41332.5 1215.01  47
   7  -2   4 42994.0 1173.49  47
   7  -2   5 1041.49 194.445  47
   7  -1  -3 6120.52 403.014  47
   7  -1  -3 6785.09 490.000  38
   7  -1  -2 29621.5 950.307  47
   7  -1  -2 27905.5 1011.41  38
   7  -1  -1 36078.6 1103.98  47
   7  -1  -1 35681.7 1163.06  38
   7  -1   0 52.5943 145.690  47
   7  -1   0 92.4982 153.402  38
   7  -1   1 57597.8 1442.44  47
   7  -1   1 55653.3 1420.49  38
   7  -1   2 32629.3 1077.28  47
   7  -1   2 31098.7 1004.66  38
   7  -1   3 100.653 145.704  47
   7  -1   3 380.229 146.733  38
   7  -1   4 47382.8 1150.57  47
   7   0  -4 19185.6 796.572  38
   7   0  -3 53216.4 1395.05  38
   7   0  -2 209.109 127.986  47
   7   0  -2 173.377 186.573  38
   7   0  -1 39922.4 1102.16  47
   7   0  -1 41163.6 1284.50  38
   7   0   0 47484.5 1232.37  47
   7   0   0 49642.7 1393.77  38
   7   0   1-41.6865 146.923  47
   7   0   1 295.206 171.898  38
   7   0   2 18613.3 763.112  47
   7   0   2 17663.3 769.558  38
   7   0   3 18268.1 712.838  47
   7   0   3 18345.5 711.268  38
   7   1  -5 42495.9 1118.83  38
   7   1  -4 2059.04 295.065  38
   7   1  -3 65167.2 1556.86  38
   7   1  -2 62599.1 1564.49  38
   7   1  -1 3147.73 384.476  38
   7   1   0 34502.6 936.149  47
   7   1   0 36094.1 1186.94  38
   7   1   1 29491.5 865.046  47
   7   1   1 32296.6 1075.43  38
   7   1   2 589.561 152.347  47
   7   1   2 357.232 160.410  38
   7   1   3 41382.5 1010.93  38
   7   2  -6 2717.11 262.207  38
   7   2  -5 23654.0 830.762  38
   7   2  -4 55969.2 1362.73  38
   7   2  -3 511.434 195.303  38
   7   2  -2 41526.9 1249.18  38
   7   2  -1 55216.9 1437.33  38
   7   2   0 62.0386 167.991  38
   7   2   1 23674.4 874.572  38
   7   2   2 18658.8 711.363  38
   7   2   3 9510.69 446.754  38
   7   3  -5 6498.35 425.009  38
   7   3  -4 35170.7 1037.26  38
   7   3  -3 39590.9 1151.16  38
   7   3  -2 2499.42 321.663  38
   7   3  -1 31628.5 1025.17  38
   7   3   0 23890.2 855.311  38
   7   3   1 1270.83 211.873  38
   7   3   2 35105.6 851.071  38
   7   4  -5 52084.1 1056.00  38
   7   4  -4 55.8800 109.649  38
   7   4  -3 32633.3 944.577  38
   7   4  -2 41833.1 1069.18  38
   7   4  -1 1875.36 242.034  38
   7   4   0 56227.7 1135.01  38
   0   0   0    0.00    0.00   0
;
_shelx_hkl_checksum              7530
loop_
_space_group_symop_operation_xyz
'x, y, z'
'-x, -y, -z'
loop_
_atom_site_label
_atom_site_type_symbol
_atom_site_fract_x
_atom_site_fract_y
_atom_site_fract_z
_atom_site_U_iso_or_equiv
_atom_site_adp_type
_atom_site_occupancy
_atom_site_site_symmetry_order
_atom_site_calc_flag
_atom_site_refinement_flags_posn
_atom_site_refinement_flags_adp
_atom_site_refinement_flags_occupancy
_atom_site_disorder_assembly
_atom_site_disorder_group
Er1 Er 0.27633(3) 0.16011(2) 0.32198(2) 0.01789(9) Uani 1 1 d . . . . .
N1 N 0.4140(5) 0.0730(3) 0.1091(3) 0.0217(6) Uani 1 1 d . . . . .
N2 N 0.0768(5) 0.0479(3) 0.4311(3) 0.0242(7) Uani 1 1 d . . . . .
N3 N 0.4305(5) 0.3795(3) 0.4450(3) 0.0255(7) Uani 1 1 d . . . . .
C1 C 0.7613(6) 0.0942(3) 0.2073(3) 0.0208(7) Uani 1 1 d . . . . .
C2 C 0.6245(6) 0.0397(3) 0.0966(3) 0.0196(7) Uani 1 1 d . . . . .
C3 C 0.2901(6) 0.0346(4) 0.0109(3) 0.0221(7) Uani 1 1 d . . . . .
H3 H 0.1447 0.0585 0.0156 0.027 Uiso 1 1 calc R U . . .
C4 C 0.4018(6) 0.1397(3) 0.5538(3) 0.0228(8) Uani 1 1 d . . . . .
C5 C 0.1879(6) 0.0659(3) 0.5267(3) 0.0237(8) Uani 1 1 d . . . . .
C6 C -0.1107(7) -0.0186(4) 0.4045(4) 0.0262(8) Uani 1 1 d . . . . .
H6 H -0.1921 -0.0337 0.3381 0.031 Uiso 1 1 calc R U . . .
C7 C 0.2496(9) 0.3936(4) 0.2878(4) 0.0364(10) Uani 1 1 d . . . . .
C8 C 0.3850(7) 0.4507(4) 0.4001(4) 0.0274(8) Uani 1 1 d . . . . .
C9 C 0.5443(7) 0.4298(4) 0.5451(4) 0.0289(9) Uani 1 1 d . . . . .
H9 H 0.5777 0.3834 0.5796 0.035 Uiso 1 1 calc R U . . .
O1 O 0.6631(4) 0.1655(3) 0.2973(2) 0.0270(6) Uani 1 1 d . . . . .
O2 O 0.9605(4) 0.0679(3) 0.2034(2) 0.0247(6) Uani 1 1 d . . . . .
O3 O 0.4490(5) 0.1790(3) 0.4855(2) 0.0265(6) Uani 1 1 d . . . . .
O4 O 0.5192(6) 0.1559(3) 0.6387(3) 0.0375(7) Uani 1 1 d . . . . .
O5 O 0.1919(5) 0.2850(3) 0.2481(3) 0.0321(7) Uani 1 1 d . . . . .
O6 O 0.2026(9) 0.4566(3) 0.2433(4) 0.0671(14) Uani 1 1 d . . . . .
O1W O 0.0020(5) 0.2787(3) 0.4502(3) 0.0302(6) Uani 1 1 d . . . . .
O2W O 0.3693(5) -0.0428(3) 0.2402(3) 0.0314(6) Uani 1 1 d . . . . .
O3W O -0.0844(7) 0.3033(4) 0.6670(4) 0.0553(10) Uani 1 1 d . . . . .
O4WA O 0.208(7) -0.215(3) 0.036(3) 0.22(2) Uani 0.5 1 d . . P A 1
O4WB O 0.348(6) -0.2092(17) 0.0262(13) 0.160(15) Uani 0.5 1 d . . P B 2
O5W O 0.192(5) 0.296(2) 0.0025(15) 0.101(9) Uani 0.25 1 d . . P . .
O5WB O 0.245(6) 0.370(3) -0.142(2) 0.137(13) Uani 0.25 1 d . . P . .
loop_
_atom_site_aniso_label
_atom_site_aniso_U_11
_atom_site_aniso_U_22
_atom_site_aniso_U_33
_atom_site_aniso_U_23
_atom_site_aniso_U_13
_atom_site_aniso_U_12
Er1 0.01405(13) 0.02241(13) 0.01720(13) 0.00977(9) -0.00316(8) -0.00113(8)
N1 0.0153(14) 0.0275(16) 0.0233(16) 0.0133(13) -0.0017(12) -0.0010(12)
N2 0.0232(16) 0.0290(16) 0.0236(16) 0.0153(13) -0.0002(12) -0.0001(13)
N3 0.0246(16) 0.0245(15) 0.0274(17) 0.0128(14) -0.0025(13) -0.0009(13)
C1 0.0157(16) 0.0275(18) 0.0234(19) 0.0158(15) -0.0015(14) -0.0033(14)
C2 0.0160(16) 0.0271(18) 0.0190(17) 0.0139(15) -0.0032(13) -0.0022(13)
C3 0.0158(16) 0.0321(19) 0.0202(18) 0.0140(15) -0.0022(13) 0.0014(14)
C4 0.0250(19) 0.0254(18) 0.0208(18) 0.0136(15) -0.0023(14) -0.0003(15)
C5 0.0254(19) 0.0260(18) 0.0206(18) 0.0121(15) -0.0008(14) 0.0015(15)
C6 0.0251(19) 0.033(2) 0.0248(19) 0.0180(16) -0.0033(15) -0.0025(16)
C7 0.049(3) 0.030(2) 0.029(2) 0.0141(18) -0.0118(19) -0.0021(19)
C8 0.029(2) 0.0271(19) 0.027(2) 0.0140(16) -0.0046(16) -0.0019(16)
C9 0.033(2) 0.028(2) 0.028(2) 0.0159(17) -0.0091(17) 0.0004(16)
O1 0.0164(12) 0.0387(15) 0.0175(13) 0.0073(11) -0.0023(10) -0.0014(11)
O2 0.0152(12) 0.0348(14) 0.0222(13) 0.0125(11) -0.0053(10) -0.0008(10)
O3 0.0264(14) 0.0327(14) 0.0260(14) 0.0192(12) -0.0072(11) -0.0076(11)
O4 0.0386(17) 0.0487(19) 0.0362(17) 0.0303(15) -0.0151(14) -0.0139(14)
O5 0.0429(17) 0.0248(14) 0.0268(15) 0.0116(12) -0.0125(13) -0.0027(12)
O6 0.115(4) 0.0372(19) 0.055(2) 0.0283(18) -0.045(3) -0.015(2)
O1W 0.0221(13) 0.0363(15) 0.0277(15) 0.0119(12) 0.0006(11) 0.0035(11)
O2W 0.0412(17) 0.0266(14) 0.0292(15) 0.0155(12) 0.0024(12) 0.0067(12)
O3W 0.059(2) 0.058(2) 0.050(2) 0.0272(19) -0.0013(18) 0.0015(19)
O4WA 0.33(5) 0.111(18) 0.22(3) 0.077(19) -0.11(3) -0.06(2)
O4WB 0.36(4) 0.054(7) 0.038(6) 0.004(5) 0.007(12) -0.077(15)
O5W 0.18(3) 0.081(14) 0.024(8) 0.014(9) -0.030(12) -0.031(15)
O5WB 0.16(3) 0.18(3) 0.054(13) 0.041(17) -0.048(16) 0.04(2)
loop_
_atom_type_symbol
_atom_type_description
_atom_type_scat_dispersion_real
_atom_type_scat_dispersion_imag
_atom_type_scat_source
C C 0.0181 0.0091 'International Tables Vol C Tables 4.2.6.8 and 6.1.1.4'
H H 0.0000 0.0000 'International Tables Vol C Tables 4.2.6.8 and 6.1.1.4'
Er Er -9.4367 3.9380 'International Tables Vol C Tables 4.2.6.8 and 6.1.1.4'
N N 0.0311 0.0180 'International Tables Vol C Tables 4.2.6.8 and 6.1.1.4'
O O 0.0492 0.0322 'International Tables Vol C Tables 4.2.6.8 and 6.1.1.4'
loop_
_geom_angle_atom_site_label_1
_geom_angle_atom_site_label_2
_geom_angle_atom_site_label_3
_geom_angle
_geom_angle_site_symmetry_1
_geom_angle_site_symmetry_3
O3 Er1 O5 136.58(10) . .
O3 Er1 O2 140.27(10) . 1_455
O5 Er1 O2 75.95(10) . 1_455
O3 Er1 O1 72.23(10) . .
O5 Er1 O1 95.97(11) . .
O2 Er1 O1 136.86(9) 1_455 .
O3 Er1 O2W 84.22(10) . .
O5 Er1 O2W 134.72(10) . .
O2 Er1 O2W 80.06(10) 1_455 .
O1 Er1 O2W 76.42(11) . .
O3 Er1 O1W 84.85(10) . .
O5 Er1 O1W 78.18(11) . .
O2 Er1 O1W 80.95(10) 1_455 .
O1 Er1 O1W 139.70(10) . .
O2W Er1 O1W 134.75(11) . .
O3 Er1 N3 71.43(10) . .
O5 Er1 N3 65.27(10) . .
O2 Er1 N3 135.28(10) 1_455 .
O1 Er1 N3 71.04(10) . .
O2W Er1 N3 143.89(11) . .
O1W Er1 N3 70.40(10) . .
O3 Er1 N1 130.84(10) . .
O5 Er1 N1 69.47(11) . .
O2 Er1 N1 74.95(9) 1_455 .
O1 Er1 N1 62.77(9) . .
O2W Er1 N1 67.47(10) . .
O1W Er1 N1 143.33(10) . .
N3 Er1 N1 109.13(10) . .
O3 Er1 N2 62.49(10) . .
O5 Er1 N2 140.05(11) . .
O2 Er1 N2 77.78(10) 1_455 .
O1 Er1 N2 123.63(10) . .
O2W Er1 N2 67.67(10) . .
O1W Er1 N2 68.34(10) . .
N3 Er1 N2 119.33(10) . .
N1 Er1 N2 130.49(10) . .
C2 N1 C3 116.7(3) . .
C2 N1 Er1 113.7(2) . .
C3 N1 Er1 127.8(2) . .
C6 N2 C5 116.7(3) . .
C6 N2 Er1 130.2(3) . .
C5 N2 Er1 113.1(3) . .
C9 N3 C8 116.4(4) . .
C9 N3 Er1 129.3(3) . .
C8 N3 Er1 114.3(3) . .
O2 C1 O1 125.5(3) . .
O2 C1 C2 118.8(3) . .
O1 C1 C2 115.7(3) . .
N1 C2 C3 122.1(3) . 2_655
N1 C2 C1 114.6(3) . .
C3 C2 C1 123.2(3) 2_655 .
N1 C3 C2 121.1(3) . 2_655
O4 C4 O3 124.8(4) . .
O4 C4 C5 119.3(3) . .
O3 C4 C5 115.9(3) . .
N2 C5 C6 121.7(4) . 2_556
N2 C5 C4 115.6(3) . .
C6 C5 C4 122.7(4) 2_556 .
N2 C6 C5 121.6(4) . 2_556
O6 C7 O5 125.6(4) . .
O6 C7 C8 118.2(4) . .
O5 C7 C8 116.2(4) . .
N3 C8 C9 121.5(4) . 2_666
N3 C8 C7 116.0(4) . .
C9 C8 C7 122.4(4) 2_666 .
N3 C9 C8 122.1(4) . 2_666
C1 O1 Er1 124.7(2) . .
C1 O2 Er1 134.5(2) . 1_655
C4 O3 Er1 132.9(2) . .
C7 O5 Er1 128.1(3) . .
loop_
_geom_bond_atom_site_label_1
_geom_bond_atom_site_label_2
_geom_bond_distance
_geom_bond_site_symmetry_2
Er1 O3 2.285(3) .
Er1 O5 2.302(3) .
Er1 O2 2.342(3) 1_455
Er1 O1 2.363(3) .
Er1 O2W 2.363(3) .
Er1 O1W 2.369(3) .
Er1 N3 2.600(3) .
Er1 N1 2.622(3) .
Er1 N2 2.740(3) .
N1 C2 1.338(5) .
N1 C3 1.348(5) .
N2 C6 1.331(5) .
N2 C5 1.335(5) .
N3 C9 1.326(5) .
N3 C8 1.337(5) .
C1 O2 1.252(5) .
C1 O1 1.260(5) .
C1 C2 1.500(5) .
C2 C3 1.384(5) 2_655
C3 C2 1.384(5) 2_655
C4 O4 1.243(5) .
C4 O3 1.257(5) .
C4 C5 1.508(5) .
C5 C6 1.389(6) 2_556
C6 C5 1.389(6) 2_556
C7 O6 1.241(6) .
C7 O5 1.258(5) .
C7 C8 1.512(6) .
C8 C9 1.386(6) 2_666
C9 C8 1.386(6) 2_666
O2 Er1 2.342(3) 1_655
