#------------------------------------------------------------------------------
#$Date: 2017-03-04 04:02:43 +0200 (Sat, 04 Mar 2017) $
#$Revision: 192966 $
#$URL: file:///home/coder/svn-repositories/cod/cif/4/34/54/4345411.cif $
#------------------------------------------------------------------------------
#
# This file is available in the Crystallography Open Database (COD),
# http://www.crystallography.net/
#
# All data on this site have been placed in the public domain by the
# contributors.
#
data_4345411
loop_
_publ_author_name
'Thu\'ery, Pierre'
'Harrowfield, Jack'
_publ_section_title
;
 Coordination Polymers and Cage-Containing Frameworks in Uranyl Ion
 Complexes with rac- and (1R,2R)-trans-1,2-Cyclohexanedicarboxylates:
 Consequences of Chirality.
;
_journal_issue                   3
_journal_name_full               'Inorganic chemistry'
_journal_page_first              1455
_journal_page_last               1469
_journal_paper_doi               10.1021/acs.inorgchem.6b02537
_journal_volume                  56
_journal_year                    2017
_chemical_absolute_configuration syn
_chemical_formula_sum            'C8 H10 O6 U'
_chemical_formula_weight         440.19
_space_group_crystal_system      monoclinic
_space_group_IT_number           4
_space_group_name_Hall           'P 2yb'
_space_group_name_H-M_alt        'P 1 21 1'
_symmetry_space_group_name_Hall  'P 2yb'
_symmetry_space_group_name_H-M   'P 1 21 1'
_atom_sites_solution_hydrogens   geom
_audit_creation_method           SHELXL-2014
_cell_angle_alpha                90
_cell_angle_beta                 96.105(4)
_cell_angle_gamma                90
_cell_formula_units_Z            2
_cell_length_a                   5.2473(2)
_cell_length_b                   12.9276(8)
_cell_length_c                   7.6949(5)
_cell_measurement_reflns_used    30251
_cell_measurement_temperature    150(2)
_cell_measurement_theta_max      30.51
_cell_measurement_theta_min      3.09
_cell_volume                     519.02(5)
_computing_cell_refinement       'HKL2000 (Otwinowski & Minor, 1997)'
_computing_data_collection       'COLLECT (Nonius, 1998)'
_computing_data_reduction        'HKL2000 (Otwinowski & Minor, 1997)'
_computing_molecular_graphics    'SHELXTL (Sheldrick, 2008)'
_computing_publication_material
'SHELXTL (Sheldrick, 2008); PLATON (Spek, 2003)'
_computing_structure_refinement  'SHELXL (Sheldrick, 2015)'
_computing_structure_solution    'SHELXT (Sheldrick, 2015)'
_diffrn_ambient_temperature      150(2)
_diffrn_measured_fraction_theta_full 0.998
_diffrn_measured_fraction_theta_max 0.999
_diffrn_measurement_device_type
'Nonius Kappa-CCD area-detector diffractometer'
_diffrn_measurement_method
'2 \f and 13 \w scans with 2\% steps (792 frames)'
_diffrn_radiation_monochromator  graphite
_diffrn_radiation_source         'fine-focus sealed tube'
_diffrn_radiation_type           MoK\a
_diffrn_radiation_wavelength     0.71073
_diffrn_reflns_av_R_equivalents  0.0167
_diffrn_reflns_av_unetI/netI     0.0223
_diffrn_reflns_Laue_measured_fraction_full 0.998
_diffrn_reflns_Laue_measured_fraction_max 0.999
_diffrn_reflns_limit_h_max       7
_diffrn_reflns_limit_h_min       -7
_diffrn_reflns_limit_k_max       18
_diffrn_reflns_limit_k_min       -18
_diffrn_reflns_limit_l_max       10
_diffrn_reflns_limit_l_min       -10
_diffrn_reflns_number            30251
_diffrn_reflns_point_group_measured_fraction_full 0.999
_diffrn_reflns_point_group_measured_fraction_max 0.999
_diffrn_reflns_theta_full        25.242
_diffrn_reflns_theta_max         30.506
_diffrn_reflns_theta_min         3.094
_diffrn_standards_decay_%        0
_diffrn_standards_interval_time  0
_diffrn_standards_number         0
_exptl_absorpt_coefficient_mu    15.642
_exptl_absorpt_correction_T_max  0.457
_exptl_absorpt_correction_T_min  0.242
_exptl_absorpt_correction_type   multi-scan
_exptl_absorpt_process_details   'SCALEPACK (Otwinowski & Minor, 1997)'
_exptl_crystal_colour            'translucent light yellow'
_exptl_crystal_density_diffrn    2.817
_exptl_crystal_description       lath
_exptl_crystal_F_000             396
_exptl_crystal_size_max          0.18
_exptl_crystal_size_mid          0.11
_exptl_crystal_size_min          0.05
_refine_diff_density_max         1.851
_refine_diff_density_min         -2.211
_refine_diff_density_rms         0.218
_refine_ls_abs_structure_details
;
The pure enantiomer of the ligand has been used.
;
_refine_ls_abs_structure_Flack   -0.002(15)
_refine_ls_extinction_method     none
_refine_ls_goodness_of_fit_ref   1.058
_refine_ls_hydrogen_treatment    constr
_refine_ls_matrix_type           full
_refine_ls_number_parameters     137
_refine_ls_number_reflns         3161
_refine_ls_number_restraints     1
_refine_ls_restrained_S_all      1.057
_refine_ls_R_factor_all          0.0270
_refine_ls_R_factor_gt           0.0259
_refine_ls_shift/su_max          0.000
_refine_ls_shift/su_mean         0.000
_refine_ls_structure_factor_coef Fsqd
_refine_ls_weighting_details
'w=1/[\s^2^(Fo^2^)+(0.0496P)^2^] where P=(Fo^2^+2Fc^2^)/3'
_refine_ls_weighting_scheme      calc
_refine_ls_wR_factor_gt          0.0651
_refine_ls_wR_factor_ref         0.0657
_reflns_Friedel_coverage         0.924
_reflns_Friedel_fraction_full    1.000
_reflns_Friedel_fraction_max     1.000
_reflns_number_gt                3050
_reflns_number_total             3161
_reflns_threshold_expression     'I > 2\s(I)'
_cod_data_source_file            ic6b02537_si_002.cif
_cod_data_source_block           1
_cod_database_code               4345411
_shelx_space_group_comment
;
The symmetry employed for this shelxl refinement is uniquely defined
by the following loop, which should always be used as a source of
symmetry information in preference to the above space-group names.
They are only intended as comments.
;
_shelxl_version_number           2014-3
_shelx_res_file
;
TITL pt423 in P2(1)
CELL 0.71073   5.2473  12.9276   7.6949  90.000  96.105  90.000
ZERR    2.00   0.0002   0.0008   0.0005   0.000   0.004   0.000
LATT -1
SYMM -X, 0.5+Y, -Z
SFAC C H O U
UNIT 16 20 12 2
ACTA
SHEL 10 .7
L.S. 10
BOND $H
TEMP -123
FMAP 2
PLAN 10
TWIN
OMIT     0   0   1
OMIT     0   2   0
OMIT     0  -1   1
OMIT     2   0   0
WGHT    0.049600
BASF  -0.00174
FVAR       0.81768
U1    4    0.387782    0.893868    0.984755    11.00000    0.01625    0.01933 =
         0.02068    0.00364    0.00157   -0.00111
O1    3    0.302395    0.825232    0.788603    11.00000    0.03947    0.02535 =
         0.03382   -0.00256   -0.00257   -0.00049
O2    3    0.470608    0.963205    1.179701    11.00000    0.03655    0.03103 =
         0.02932   -0.00158   -0.00300    0.00059
O3    3    0.050473    1.004209    0.917258    11.00000    0.02345    0.02486 =
         0.02345    0.00576    0.00305    0.00309
O4    3   -0.365231    1.001992    0.827914    11.00000    0.01974    0.03303 =
         0.04030    0.01256    0.00398   -0.00214
O5    3    0.271921    1.286437    0.946586    11.00000    0.02320    0.03067 =
         0.02850   -0.00507    0.00030   -0.00096
O6    3   -0.141816    1.282510    0.862883    11.00000    0.02218    0.03872 =
         0.04545   -0.02177    0.00367   -0.00034
C1    1   -0.097701    1.104230    0.663701    11.00000    0.01998    0.01652 =
         0.01685    0.00122    0.00363   -0.00099
AFIX  13
H1    2   -0.256448    1.146242    0.634276    11.00000   -1.20000
AFIX   0
C2    1    0.127575    1.177986    0.704444    11.00000    0.01404    0.01926 =
         0.02070   -0.00079    0.00126   -0.00202
AFIX  13
H2    2    0.285679    1.136889    0.740995    11.00000   -1.20000
AFIX   0
C3    1    0.170046    1.241985    0.541780    11.00000    0.02589    0.02462 =
         0.02211    0.00263    0.00329   -0.00326
AFIX  23
H3A   2    0.019405    1.286981    0.510729    11.00000   -1.20000
H3B   2    0.321890    1.286972    0.568291    11.00000   -1.20000
AFIX   0
C4    1    0.210383    1.172479    0.387192    11.00000    0.02717    0.03500 =
         0.02179   -0.00077    0.00474   -0.00501
AFIX  23
H4A   2    0.369502    1.131798    0.414264    11.00000   -1.20000
H4B   2    0.230482    1.215698    0.283318    11.00000   -1.20000
AFIX   0
C5    1   -0.016634    1.098831    0.346483    11.00000    0.03030    0.03172 =
         0.02002   -0.00304    0.00439    0.00065
AFIX  23
H5A   2   -0.173220    1.139391    0.309898    11.00000   -1.20000
H5B   2    0.016614    1.052838    0.248526    11.00000   -1.20000
AFIX   0
C6    1   -0.059338    1.033742    0.505401    11.00000    0.02554    0.01733 =
         0.02258   -0.00452    0.00099   -0.00236
AFIX  23
H6A   2    0.090371    0.988055    0.535148    11.00000   -1.20000
H6B   2   -0.212466    0.989549    0.478181    11.00000   -1.20000
AFIX   0
C7    1   -0.140853    1.032472    0.814818    11.00000    0.01740    0.01533 =
         0.02230    0.00171    0.00548    0.00035
C8    1    0.081758    1.253011    0.848155    11.00000    0.02445    0.01916 =
         0.02486   -0.00120    0.00966    0.00113

HKLF 4

REM  pt423 in P2(1)
REM R1 =  0.0259 for    3050 Fo > 4sig(Fo)  and  0.0270 for all    3161 data
REM    137 parameters refined using      1 restraints

END

WGHT      0.0498      0.0000

REM Highest difference peak  1.851,  deepest hole -2.211,  1-sigma level  0.218
Q1    1   0.0527  0.8951  0.9962  11.00000  0.05    1.85
Q2    1   0.2645  1.3946  1.0173  11.00000  0.05    1.61
Q3    1   0.4635  0.8941  0.8355  11.00000  0.05    0.62
Q4    1   0.1969  0.9411  0.9012  11.00000  0.05    0.53
Q5    1   0.3256  0.9114  0.8289  11.00000  0.05    0.52
Q6    1   0.5488  0.8584  1.1098  11.00000  0.05    0.50
Q7    1   0.2686  0.8978  0.8349  11.00000  0.05    0.50
Q8    1   0.5344  0.9194  1.1162  11.00000  0.05    0.49
Q9    1   0.1972  0.8385  0.9151  11.00000  0.05    0.48
Q10   1  -0.5521  0.9183  0.4403  11.00000  0.05    0.48
;
_shelx_res_checksum              46179
_shelx_hkl_file
;
   0   0   1    -0.20     0.40
   0   0   2  9855.50   103.30
   0   0   3  5326.50    56.90
   0   0   4  5555.70    63.70
   0   0   5  5329.80    62.60
   0   0   6  5040.70    62.30
   0   0   7  1605.00    32.50
   0   0   8   868.90    24.70
   0   0   9   497.30    21.50
   0   0  10   358.10    20.90
   0   0  11   194.50    16.10
   0   1   0    -0.80     0.40
   0   1   1   813.70    15.20
   0  -1  -1     1.50     0.60
   0   1   2  1255.10    17.40
   0  -1  -2   975.30    14.40
   0   1   3   592.60     9.50
   0  -1  -3   412.40     7.70
   0   1   4  1091.60    15.00
   0  -1  -4   974.70    15.30
   0   1   5  1561.00    21.50
   0  -1  -5  1500.40    21.20
   0   1   6  1827.00    27.90
   0  -1  -6  2055.10    30.90
   0   1   7  1332.10    31.80
   0  -1  -7  1079.00    23.80
   0   1   8   882.10    23.80
   0  -1  -8   839.80    22.90
   0   1   9   713.30    27.50
   0  -1  -9   681.60    27.60
   0   1  10   660.90    26.00
   0  -1 -10   697.90    28.00
   0   1  11   495.70    24.40
   0  -1 -11   527.50    24.80
   0   2   0     0.20     2.20
   0  -2   0 11225.40   196.10
   0   2   1 18854.70   391.90
   0  -2  -1 18063.90   420.20
   0   2   2 11927.40   121.60
   0  -2  -2 12426.70   114.20
   0   2   3  4994.80    56.20
   0  -2  -3  5320.40    55.50
   0   2   4  7919.20    81.90
   0  -2  -4  8124.10    85.60
   0   2   5  5958.10    65.60
   0  -2  -5  5979.60    65.80
   0   2   6  3218.80    45.90
   0  -2  -6  2978.60    41.90
   0   2   7  1951.40    37.90
   0  -2  -7  2180.20    37.70
   0   2   8  1076.70    29.10
   0  -2  -8  1093.70    28.80
   0   2   9   653.50    26.90
   0  -2  -9   632.80    29.70
   0   2  10   399.60    21.50
   0  -2 -10   324.80    18.70
   0   2  11   174.80    15.80
   0  -2 -11   134.80    14.00
   0   3   0     8.10     3.00
   0  -3   0     6.00     3.20
   0   3   1   293.30     6.10
   0  -3  -1   257.10     5.80
   0   3   2   656.80    10.40
   0  -3  -2   494.50     8.40
   0   3   3  2147.60    27.90
   0  -3  -3  1682.70    21.10
   0   3   4  1275.80    18.30
   0  -3  -4  1200.70    16.10
   0   3   5  1483.80    20.40
   0  -3  -5  1496.60    21.00
   0   3   6   934.40    17.00
   0  -3  -6   938.90    18.40
   0   3   7  1300.90    26.30
   0  -3  -7  1342.30    26.40
   0   3   8  1169.30    31.00
   0  -3  -8  1026.90    24.70
   0   3   9  1192.90    36.50
   0  -3  -9  1061.90    37.10
   0   3  10   730.50    29.70
   0  -3 -10   818.60    34.40
   0   3  11   440.80    35.90
   0  -3 -11   434.00    66.50
   0   4   0  4253.10    73.10
   0  -4   0  4339.80    69.30
   0   4   1  6574.70    77.00
   0  -4  -1  6572.70    68.70
   0   4   2  7489.00    75.80
   0  -4  -2  7456.80    73.90
   0   4   3 15244.20   182.90
   0  -4  -3 16104.80   172.90
   0   4   4  6178.90    64.40
   0  -4  -4  6455.00    67.60
   0   4   5  4796.30    53.40
   0  -4  -5  4831.40    51.10
   0   4   6  2670.40    37.80
   0  -4  -6  2713.60    39.90
   0   4   7  2257.70    41.30
   0  -4  -7  2073.90    36.40
   0   4   8  1338.00    32.00
   0  -4  -8  1336.30    33.80
   0   4   9   780.90    30.60
   0  -4  -9   849.30    35.00
   0   4  10   361.90    19.40
   0  -4 -10   337.00    22.40
   0   5   0     9.10     3.60
   0  -5   0     6.30     4.20
   0   5   1   730.50    12.80
   0  -5  -1   862.30    13.70
   0   5   2   637.30    10.80
   0  -5  -2   820.90    12.40
   0   5   3  1214.30    18.70
   0  -5  -3  1281.10    18.50
   0   5   4  1329.70    20.00
   0  -5  -4  1048.60    15.10
   0   5   5   974.10    16.50
   0  -5  -5   930.80    14.60
   0   5   6  1195.30    24.00
   0  -5  -6  1284.20    22.90
   0   5   7  1013.70    23.70
   0  -5  -7  1221.30    27.30
   0   5   8  1221.70    31.00
   0  -5  -8  1113.80    27.40
   0   5   9   996.20    31.30
   0  -5  -9   995.70    37.40
   0   5  10   711.80    31.30
   0  -5 -10   596.60    28.80
   0   6   0  5473.30    94.50
   0  -6   0  5898.80    90.70
   0   6   1  6738.20    80.00
   0  -6  -1  6687.90    73.10
   0   6   2 10027.60   112.50
   0  -6  -2  9887.00    96.50
   0   6   3  7384.10    82.10
   0  -6  -3  7157.40    79.30
   0   6   4  5638.70    66.80
   0  -6  -4  5996.00    67.50
   0   6   5  3080.80    43.20
   0  -6  -5  3158.80    40.40
   0   6   6  2785.10    47.60
   0  -6  -6  2621.50    37.60
   0   6   7  1895.10    38.00
   0  -6  -7  1780.00    34.40
   0   6   8  1163.90    28.90
   0  -6  -8  1100.10    28.40
   0   6   9   748.20    30.30
   0  -6  -9   572.60    27.60
   0   6  10   174.30    14.90
   0  -6 -10   290.10    20.20
   0   7   0     0.80     3.80
   0  -7   0     5.50     5.30
   0   7   1   395.70     8.60
   0  -7  -1   498.30    10.00
   0   7   2   769.60    13.40
   0  -7  -2   948.40    14.80
   0   7   3   372.70     8.70
   0  -7  -3   477.40    10.20
   0   7   4   896.90    16.50
   0  -7  -4   925.40    16.00
   0   7   5   801.70    18.70
   0  -7  -5   817.90    17.50
   0   7   6  1046.00    28.20
   0  -7  -6   947.30    19.20
   0   7   7  1160.40    27.90
   0  -7  -7  1115.20    24.70
   0   7   8   956.10    32.30
   0  -7  -8   946.90    33.50
   0   7   9   530.50    22.90
   0  -7  -9   443.90    25.30
   0   7  10   401.80    22.90
   0  -7 -10   321.20    24.40
   0   8   0  9021.30   142.20
   0  -8   0  9808.20   164.90
   0   8   1  8255.00    98.20
   0  -8  -1  8551.20   100.10
   0   8   2  8151.60    91.00
   0  -8  -2  8431.30    92.10
   0   8   3  4451.40    58.40
   0  -8  -3  4252.90    47.70
   0   8   4  3820.20    56.70
   0  -8  -4  3513.40    50.80
   0   8   5  2435.00    45.50
   0  -8  -5  2426.80    38.60
   0   8   6  2019.40    44.20
   0  -8  -6  2043.90    36.80
   0   8   7  1478.30    35.90
   0  -8  -7  1433.00    36.40
   0   8   8   913.60    30.50
   0  -8  -8   844.10    33.80
   0   8   9   238.80    17.70
   0  -8  -9   326.70    25.10
   0   8  10   247.40    16.00
   0  -8 -10   195.60    19.90
   0   9   0    57.50     7.20
   0  -9   0    49.80     8.40
   0   9   1   159.30     6.40
   0  -9  -1   142.20     6.40
   0   9   2   227.00     7.00
   0  -9  -2   189.00     7.60
   0   9   3   573.90    13.50
   0  -9  -3   553.40    11.70
   0   9   4   409.60    11.30
   0  -9  -4   582.90    16.20
   0   9   5   569.50    16.30
   0  -9  -5   605.00    15.90
   0   9   6   851.10    26.20
   0  -9  -6   774.70    20.00
   0   9   7   886.00    33.50
   0  -9  -7   639.00    22.10
   0   9   8   535.30    23.80
   0  -9  -8   576.10    28.70
   0   9   9   497.10    25.50
   0  -9  -9   460.00    29.30
   0  10   0  6212.40    98.40
   0 -10   0  6421.80   112.50
   0  10   1  5776.10    72.30
   0 -10  -1  6121.50    74.10
   0  10   2  4425.20    61.70
   0 -10  -2  4591.70    66.60
   0  10   3  5094.50    68.30
   0 -10  -3  5163.60    73.40
   0  10   4  2431.90    44.20
   0 -10  -4  2278.60    45.80
   0  10   5  2012.40    41.60
   0 -10  -5  1879.20    36.20
   0  10   6  1572.00    43.70
   0 -10  -6  1370.60    34.40
   0  10   7   826.30    28.40
   0 -10  -7  1065.80    41.60
   0  10   8   518.70    24.90
   0 -10  -8   516.30    28.40
   0  10   9   396.30    21.50
   0 -10  -9   310.60    23.50
   0  11   0     5.60     5.20
   0 -11   0    17.00     7.40
   0  11   1   192.10     7.90
   0 -11  -1   143.40     7.90
   0  11   2   315.30    10.10
   0 -11  -2   221.70     9.10
   0  11   3   242.90     9.20
   0 -11  -3   240.20    10.80
   0  11   4   459.40    14.10
   0 -11  -4   422.30    14.70
   0  11   5   505.60    15.90
   0 -11  -5   510.10    16.50
   0  11   6   379.60    20.20
   0 -11  -6   357.00    19.60
   0  11   7   545.80    24.40
   0 -11  -7   544.20    29.10
   0  11   8   487.60    23.70
   0 -11  -8   504.00    27.50
   0  11   9   355.60    22.50
   0 -11  -9   428.60    29.40
   0  12   0  2629.00    61.10
   0 -12   0  2666.40    67.40
   0  12   1  3461.30    54.90
   0 -12  -1  3565.10    61.10
   0  12   2  3062.40    54.10
   0 -12  -2  3406.50    64.20
   0  12   3  2247.00    42.60
   0 -12  -3  2218.30    49.70
   0  12   4  2459.10    48.70
   0 -12  -4  2436.60    52.60
   0  12   5  1867.90    52.80
   0 -12  -5  1773.00    44.50
   0  12   6   873.30    30.60
   0 -12  -6  1000.70    41.50
   0  12   7   756.50    32.30
   0 -12  -7   784.10    34.60
   0  12   8   406.40    22.40
   0 -12  -8   369.80    23.20
   0  13   0     7.50     6.90
   0 -13   0    -2.80    11.20
   0  13   1    19.40     4.90
   0 -13  -1    19.20     7.60
   0  13   2    75.60     6.40
   0 -13  -2    65.40     8.60
   0  13   3   179.20    10.00
   0 -13  -3   174.90    12.20
   0  13   4   336.10    13.10
   0 -13  -4   311.60    15.40
   0  13   5   344.00    17.50
   0 -13  -5   342.40    26.50
   0  13   6   587.40    26.80
   0 -13  -6   531.90    29.90
   0  13   7   289.20    22.00
   0 -13  -7   354.50    25.90
   0  13   8   311.20    22.40
   0 -13  -8   336.80    25.50
   0  14   0  3060.90    85.10
   0 -14   0  3664.80   109.40
   0  14   1  1677.00    36.60
   0 -14  -1  1750.40    47.20
   0  14   2  1643.10    38.40
   0 -14  -2  1691.10    47.00
   0  14   3  1603.70    39.50
   0 -14  -3  1731.30    59.50
   0  14   4  1502.90    41.90
   0 -14  -4  1709.70    61.20
   0  14   5  1128.40    41.30
   0 -14  -5  1162.40    53.50
   0  14   6  1047.90    38.70
   0 -14  -6  1079.60    49.70
   0  14   7   428.80    26.80
   0 -14  -7   397.00    29.10
   0  15   0     7.50    11.50
   0 -15   0    -2.00    11.00
   0  15   1    27.00     7.40
   0 -15  -1    12.00    12.30
   0  15   2    88.40     8.90
   0 -15  -2   100.10    19.90
   0  15   3   107.20     9.30
   0 -15  -3   181.00    20.10
   0  15   4   177.50    15.20
   0 -15  -4   183.20    24.70
   0  15   5   293.60    17.40
   0 -15  -5   339.20    30.00
   0  15   6   258.00    18.30
   0 -15  -6   317.50    26.90
   0  16   0  1384.30    59.40
   0 -16   0  1404.50   130.90
   0  16   1  1702.10    43.30
   0 -16  -1  2016.60    83.70
   0  16   2  1291.20    37.80
   0 -16  -2  1307.10    63.50
   0  16   3   944.70    34.50
   0 -16  -3   956.60    45.90
   0  16   4   886.50    35.10
   0 -16  -4   871.40    44.50
   0  16   5   747.30    35.50
   0 -16  -5   686.50    40.30
   0  16   6   475.60    57.30
   0 -16  -6   395.50    50.50
   0  17   0     8.80    13.50
   0 -17   0    32.00    47.80
   0  17   1    25.30    10.20
   0 -17  -1    87.00    33.40
   0  17   2    42.40    10.80
   0 -17  -2    79.70    37.20
   0  17   3    91.50    12.20
   0 -17  -3    59.70    31.00
   0  17   4    98.40    12.90
   0 -17  -4   126.80    22.60
   0  18   0   878.50    52.20
   0 -18   0  1085.70   100.70
   0  18   1   903.40    46.90
   0 -18  -1  1031.60    74.30
   0  18   2   742.80    31.00
   0 -18  -2   939.90    91.00
   0  18   3   752.70    30.20
   0 -18  -3   892.30    89.00
   1   0 -11   549.80    25.80
   1   0 -10   987.90    38.20
   1   0  -9  1547.10    45.50
   1   0  -8  1842.50    41.70
   1   0  -7  3979.70    68.80
   1   0  -6  3990.40    48.90
   1   0  -5 12126.70   122.90
   1   0  -4  9944.60   110.80
   1   0  -3  6667.90    73.30
   1   0  -2  7024.50    74.80
   1   0  -1 10680.40   141.40
   1   0   0  2406.20    35.20
   1   0   1  8921.80   110.60
   1   0   2  2905.40    35.60
   1   0   3  1971.30    27.20
   1   0   4  1326.30    18.10
   1   0   5   736.80    12.50
   1   0   6   290.10     9.10
   1   0   7   136.20     7.90
   1   0   8    19.00     6.00
   1   0   9    -5.20     9.00
   1   0  10     6.70     9.10
   1   1 -11    61.70    12.20
  -1  -1  11    75.00    12.90
   1   1 -10    89.80    13.70
  -1  -1  10    81.60    12.10
   1   1  -9    57.10    10.80
  -1  -1   9    42.50    11.20
   1   1  -8    10.10     6.80
  -1  -1   8     8.60     5.90
   1   1  -7    41.80     5.20
  -1  -1   7    44.50     6.50
   1   1  -6   191.90     7.50
  -1  -1   6   270.20     8.10
   1   1  -5   491.50     9.90
  -1  -1   5   512.60     9.80
   1   1  -4   921.50    14.80
  -1  -1   4   907.20    13.10
   1   1  -3  2157.70    28.30
  -1  -1   3  1784.90    22.50
   1   1  -2  3206.50    36.90
  -1  -1   2  2375.30    30.20
   1   1  -1  5079.00    51.30
  -1  -1   1  4610.00    50.30
   1   1   0  4213.90    49.80
  -1  -1   0  4040.40    40.80
   1   1   1  7401.30    77.30
  -1  -1  -1  8460.80   105.50
   1   1   2  4643.50    50.70
  -1  -1  -2  4623.30    54.00
   1   1   3  5458.30    68.70
  -1  -1  -3  5006.70    56.40
   1   1   4  5007.50    58.50
  -1  -1  -4  4851.40    54.70
   1   1   5  4437.00    52.00
  -1  -1  -5  4613.50    54.40
   1   1   6  3097.20    45.40
  -1  -1  -6  3254.80    43.40
   1   1   7  2856.30    52.50
  -1  -1  -7  2838.10    52.50
   1   1   8  2496.80    53.20
  -1  -1  -8  2447.00    55.60
   1   1   9  1823.80    47.50
  -1  -1  -9  1910.60    55.60
   1   1  10  1094.20    37.80
  -1  -1 -10  1059.00    35.30
   1   2 -11   550.90    27.60
  -1  -2  11   557.50    26.50
   1   2 -10   864.20    34.30
  -1  -2  10   933.80    37.40
   1   2  -9  1540.40    41.20
  -1  -2   9  1588.90    53.00
   1   2  -8  1916.80    39.10
  -1  -2   8  1793.10    38.10
   1   2  -7  2872.40    48.10
  -1  -2   7  2801.70    46.90
   1   2  -6  6427.30    74.90
  -1  -2   6  6328.70    79.30
   1   2  -5  5768.20    62.80
  -1  -2   5  5596.60    61.70
   1   2  -4  6151.20    67.00
  -1  -2   4  5958.10    62.50
   1   2  -3  8926.50    94.70
  -1  -2   3  9508.00    94.90
   1   2  -2  5228.00    57.10
  -1  -2   2  6368.80    65.80
   1   2  -1  8101.40    88.40
  -1  -2   1  8691.30    86.00
   1   2   0 13312.40   197.90
  -1  -2   0 13178.50   198.60
   1   2   1  5668.40    55.50
  -1  -2  -1  3795.40    41.90
   1   2   2  3037.10    36.90
  -1  -2  -2  3181.70    35.20
   1   2   3  2413.00    30.00
  -1  -2  -3  2940.60    35.60
   1   2   4  1452.50    19.90
  -1  -2  -4  1796.80    23.40
   1   2   5  1108.80    18.00
  -1  -2  -5   884.10    14.80
   1   2   6   524.20    12.20
  -1  -2  -6   383.00    10.20
   1   2   7   583.40    15.40
  -1  -2  -7   415.50    12.00
   1   2   8    11.30     6.30
  -1  -2  -8    26.20     8.30
   1   2   9     8.60     9.30
  -1  -2  -9     3.30    10.50
   1   2  10    11.70     9.00
  -1  -2 -10     9.50    14.90
   1   3 -11    62.20    11.80
  -1  -3  11    53.20    13.90
   1   3 -10    87.30    13.30
  -1  -3  10    59.10    13.50
   1   3  -9    44.90    11.60
  -1  -3   9    50.50    13.50
   1   3  -8    25.50     6.30
  -1  -3   8    13.40     5.60
   1   3  -7     7.40     6.40
  -1  -3   7    18.80     5.00
   1   3  -6    72.40     5.20
  -1  -3   6    81.60     4.30
   1   3  -5   219.60     6.80
  -1  -3   5   330.70     7.50
   1   3  -4   596.10    11.70
  -1  -3   4   663.20    10.50
   1   3  -3  2006.20    28.40
  -1  -3   3  1419.50    18.90
   1   3  -2  4471.00    51.00
  -1  -3   2  3365.70    40.10
   1   3  -1  4801.00    50.20
  -1  -3   1  4089.00    45.30
   1   3   0 10050.80   116.70
  -1  -3   0 10989.30   135.10
   1   3   1  3674.60    42.40
  -1  -3  -1  4142.40    46.10
   1   3   2  5527.40    62.20
  -1  -3  -2  5360.30    57.10
   1   3   3  5696.00    61.80
  -1  -3  -3  5385.50    57.60
   1   3   4  6439.60    66.60
  -1  -3  -4  6014.50    65.50
   1   3   5  5430.60    63.80
  -1  -3  -5  5628.00    62.70
   1   3   6  4660.00    67.70
  -1  -3  -6  4778.20    68.20
   1   3   7  2500.10    43.80
  -1  -3  -7  2586.90    50.80
   1   3   8  1650.00    37.30
  -1  -3  -8  1608.10    39.70
   1   3   9  1100.40    35.50
  -1  -3  -9  1078.30    39.80
   1   3  10   725.50    29.80
  -1  -3 -10   747.00    32.40
  -1  -4  11   520.90    59.70
   1   4 -10   886.20    34.80
  -1  -4  10   904.80    37.20
   1   4  -9  1231.70    38.20
  -1  -4   9  1146.60    38.70
   1   4  -8  2479.00    49.80
  -1  -4   8  2439.10    52.40
   1   4  -7  3041.10    61.00
  -1  -4   7  2878.50    46.90
   1   4  -6  3290.70    51.90
  -1  -4   6  3198.10    41.60
   1   4  -5  3205.00    44.40
  -1  -4   5  3142.70    38.00
   1   4  -4  4976.90    57.60
  -1  -4   4  5049.90    55.30
   1   4  -3  2840.20    35.10
  -1  -4   3  2865.30    34.10
   1   4  -2 11356.50   119.60
  -1  -4   2 11921.50   125.80
   1   4  -1  8683.30    85.50
  -1  -4   1  9062.50    95.70
   1   4   0  8870.50    91.80
  -1  -4   0  8554.60    97.10
   1   4   1  5096.40    56.00
  -1  -4  -1  5016.50    63.10
   1   4   2  3879.60    46.60
  -1  -4  -2  3911.90    45.70
   1   4   3  2159.20    28.90
  -1  -4  -3  2247.50    28.90
   1   4   4  1780.70    24.60
  -1  -4  -4  1983.70    24.50
   1   4   5   910.40    16.30
  -1  -4  -5   809.30    14.20
   1   4   6   800.90    18.60
  -1  -4  -6   598.20    14.80
   1   4   7    65.60     5.90
  -1  -4  -7   110.80     7.90
   1   4   8    17.20     5.10
  -1  -4  -8    22.20     5.90
   1   4   9    -2.00    10.40
  -1  -4  -9     6.20    12.00
   1   4  10     4.60    10.50
  -1  -4 -10    17.70    12.50
   1   5 -10    57.90    11.90
  -1  -5  10    89.10    14.70
   1   5  -9    53.10    11.50
  -1  -5   9    26.90    11.80
   1   5  -8    31.40     7.00
  -1  -5   8    36.90     7.30
   1   5  -7    24.80     4.60
  -1  -5   7    23.30     6.00
   1   5  -6   107.10     5.90
  -1  -5   6    89.60     5.90
   1   5  -5   166.30     5.30
  -1  -5   5   169.10     5.90
   1   5  -4   443.40     9.30
  -1  -5   4   499.50     8.80
   1   5  -3   756.50    13.20
  -1  -5   3   892.20    13.40
   1   5  -2  3101.10    38.30
  -1  -5   2  3128.40    37.50
   1   5  -1  3763.60    46.90
  -1  -5   1  3731.10    43.20
   1   5   0  3175.80    42.00
  -1  -5   0  3361.10    39.50
   1   5   1  6015.10    65.20
  -1  -5  -1  6186.80    78.40
   1   5   2  6203.40    59.40
  -1  -5  -2  6160.60    66.00
   1   5   3  5203.90    60.70
  -1  -5  -3  4746.60    50.50
   1   5   4  6088.50    68.20
  -1  -5  -4  6138.50    70.90
   1   5   5  4739.40    60.10
  -1  -5  -5  4660.60    53.70
   1   5   6  3309.30    54.80
  -1  -5  -6  3283.70    48.10
   1   5   7  2474.40    47.50
  -1  -5  -7  2353.40    44.90
   1   5   8  1565.90    38.10
  -1  -5  -8  1308.60    30.90
   1   5   9   892.40    32.50
  -1  -5  -9   931.40    36.90
   1   5  10   598.10    29.80
  -1  -5 -10   507.60    24.60
   1   6 -10   783.50    32.20
  -1  -6  10   685.00    32.30
   1   6  -9  1434.50    42.50
  -1  -6   9  1565.40    49.30
   1   6  -8  2089.70    48.10
  -1  -6   8  1821.80    40.90
   1   6  -7  2836.70    56.70
  -1  -6   7  2504.10    39.60
   1   6  -6  2516.60    48.10
  -1  -6   6  2556.70    38.60
   1   6  -5  2847.50    41.80
  -1  -6   5  2836.30    40.50
   1   6  -4  3929.30    48.90
  -1  -6   4  3748.40    42.30
   1   6  -3  7879.90    85.80
  -1  -6   3  7568.70    78.40
   1   6  -2  6229.90    69.50
  -1  -6   2  5749.60    64.60
   1   6  -1  5375.80    68.40
  -1  -6   1  5288.30    56.50
   1   6   0  3328.20    48.50
  -1  -6   0  3481.90    41.90
   1   6   1  4316.50    50.70
  -1  -6  -1  4332.30    54.00
   1   6   2  3998.80    45.60
  -1  -6  -2  3792.30    43.60
   1   6   3  2375.60    31.40
  -1  -6  -3  2597.40    32.20
   1   6   4  1664.50    25.10
  -1  -6  -4  1363.00    22.80
   1   6   5   536.20    13.80
  -1  -6  -5   585.20    11.90
   1   6   6   184.80     8.10
  -1  -6  -6   302.30     9.60
   1   6   7    81.10     6.60
  -1  -6  -7   120.80     8.50
   1   6   8    13.90     7.00
  -1  -6  -8    18.00     9.60
   1   6   9    13.00    10.70
  -1  -6  -9     4.00    11.30
   1   6  10    61.10    11.90
  -1  -6 -10    78.90    14.00
   1   7 -10    41.50    11.50
  -1  -7  10    50.60    12.40
   1   7  -9    76.60    12.00
  -1  -7   9    66.70    13.80
   1   7  -8    36.70    11.80
  -1  -7   8    26.90    11.00
   1   7  -7    87.50     8.60
  -1  -7   7    74.80     7.00
   1   7  -6   183.00     9.20
  -1  -7   6   130.00     7.70
   1   7  -5   180.20     8.00
  -1  -7   5   175.30     7.20
   1   7  -4   421.90    10.10
  -1  -7   4   509.50    10.50
   1   7  -3  1710.40    24.80
  -1  -7   3  2045.10    26.70
   1   7  -2  1256.20    19.10
  -1  -7   2  1467.90    20.40
   1   7  -1  1788.00    27.20
  -1  -7   1  1938.00    27.80
   1   7   0  2443.50    33.10
  -1  -7   0  2532.50    31.10
   1   7   1  3430.90    41.50
  -1  -7  -1  3526.70    45.30
   1   7   2  4626.50    53.70
  -1  -7  -2  4715.50    58.60
   1   7   3  6378.80    76.60
  -1  -7  -3  6412.60    66.90
   1   7   4  2656.00    40.20
  -1  -7  -4  2469.40    36.00
   1   7   5  2506.10    49.60
  -1  -7  -5  2295.40    37.50
   1   7   6  2302.10    45.10
  -1  -7  -6  2082.00    36.40
   1   7   7  2291.10    54.60
  -1  -7  -7  2115.50    47.60
   1   7   8  1737.70    47.20
  -1  -7  -8  1704.10    52.00
   1   7   9  1000.40    37.20
  -1  -7  -9  1057.10    47.90
   1   7  10   652.00    30.90
  -1  -7 -10   597.80    30.20
   1   8 -10   469.80    24.40
  -1  -8  10   523.00    31.00
   1   8  -9  1195.00    39.30
  -1  -8   9  1073.50    45.30
   1   8  -8  1710.10    48.70
  -1  -8   8  1385.90    47.50
   1   8  -7  2320.00    52.00
  -1  -8   7  2043.10    42.20
   1   8  -6  2582.90    50.40
  -1  -8   6  2522.70    47.60
   1   8  -5  3820.00    60.30
  -1  -8   5  3774.70    57.00
   1   8  -4  4788.20    65.30
  -1  -8   4  4551.90    56.00
   1   8  -3  6522.60    74.30
  -1  -8   3  6222.20    72.50
   1   8  -2  3833.10    51.10
  -1  -8   2  3606.10    43.40
   1   8  -1  2738.00    39.20
  -1  -8   1  2727.10    36.40
   1   8   0  2407.40    33.30
  -1  -8   0  2481.50    32.10
   1   8   1  2895.90    36.10
  -1  -8  -1  3020.80    41.80
   1   8   2  2508.60    33.90
  -1  -8  -2  2496.20    34.00
   1   8   3  2316.00    32.40
  -1  -8  -3  1974.10    27.40
   1   8   4   479.40    13.10
  -1  -8  -4   664.30    15.30
   1   8   5   336.10    13.00
  -1  -8  -5   380.30    12.70
   1   8   6   203.80    11.30
  -1  -8  -6   216.60     9.20
   1   8   7    63.60     9.50
  -1  -8  -7    85.70     8.10
   1   8   8    35.50    10.30
  -1  -8  -8    19.70    10.70
   1   8   9    71.50    11.70
  -1  -8  -9    78.30    15.60
   1   9  -9    39.70    10.50
  -1  -9   9    48.10    17.30
   1   9  -8    33.00    11.60
  -1  -9   8    15.20    10.00
   1   9  -7    36.90     8.80
  -1  -9   7    23.20     7.00
   1   9  -6    51.50     7.20
  -1  -9   6    68.90     7.20
   1   9  -5   227.60     9.10
  -1  -9   5   195.10     8.70
   1   9  -4   490.10    13.20
  -1  -9   4   534.00    13.70
   1   9  -3   795.40    16.10
  -1  -9   3   726.60    13.80
   1   9  -2  1270.60    23.50
  -1  -9   2  1280.00    19.40
   1   9  -1  1301.90    22.10
  -1  -9   1  1331.40    21.30
   1   9   0  1464.10    23.10
  -1  -9   0  1421.40    23.10
   1   9   1  2833.20    36.20
  -1  -9  -1  2945.60    38.10
   1   9   2  3660.00    45.20
  -1  -9  -2  3688.40    47.90
   1   9   3  2075.10    31.30
  -1  -9  -3  2268.60    37.60
   1   9   4  2341.30    44.20
  -1  -9  -4  2260.90    38.50
   1   9   5  1830.20    41.80
  -1  -9  -5  1671.70    33.70
   1   9   6  1983.30    50.30
  -1  -9  -6  1691.50    35.90
   1   9   7  2080.10    53.30
  -1  -9  -7  2023.70    65.50
   1   9   8  1583.20    47.40
  -1  -9  -8  1408.20    51.30
   1   9   9   857.30    33.10
  -1  -9  -9   796.30    40.50
   1  10  -9   525.20    25.20
  -1 -10   9   448.10    29.40
   1  10  -8  1168.90    40.60
  -1 -10   8  1115.60    44.10
   1  10  -7  1657.30    51.10
  -1 -10   7  1532.50    50.30
   1  10  -6  2417.10    52.00
  -1 -10   6  2245.40    45.30
   1  10  -5  3232.90    63.70
  -1 -10   5  3004.20    49.90
   1  10  -4  4036.10    67.10
  -1 -10   4  3964.00    55.10
   1  10  -3  2504.80    42.00
  -1 -10   3  2312.70    37.20
   1  10  -2  3499.60    57.70
  -1 -10   2  3415.60    47.50
   1  10  -1  2564.60    41.30
  -1 -10   1  2540.20    35.40
   1  10   0  2367.20    35.00
  -1 -10   0  2544.80    37.20
   1  10   1  2334.20    36.00
  -1 -10  -1  2346.00    34.20
   1  10   2  1723.90    28.70
  -1 -10  -2  1883.20    34.80
   1  10   3   580.60    13.90
  -1 -10  -3   598.00    16.40
   1  10   4   624.40    19.00
  -1 -10  -4   542.70    16.30
   1  10   5   330.90    14.60
  -1 -10  -5   298.30    12.00
   1  10   6   126.80    11.00
  -1 -10  -6   134.10     9.50
   1  10   7   242.70    15.40
  -1 -10  -7   207.50    18.10
   1  10   8    72.40    12.80
  -1 -10  -8    44.20    14.90
   1  10   9    12.60    10.30
  -1 -10  -9     9.90    14.20
   1  11  -9    21.50    10.60
  -1 -11   9    31.70    22.00
   1  11  -8    11.60    11.40
  -1 -11   8    -1.40    13.00
   1  11  -7    -4.20    10.20
  -1 -11   7    18.40    12.40
   1  11  -6    13.40    10.00
  -1 -11   6    49.60    11.40
   1  11  -5   186.80    10.90
  -1 -11   5   153.40     9.90
   1  11  -4   581.10    17.60
  -1 -11   4   374.90    11.30
   1  11  -3   609.20    16.40
  -1 -11   3   473.70    13.30
   1  11  -2   832.10    20.90
  -1 -11   2   824.50    20.50
   1  11  -1  1051.80    20.80
  -1 -11   1  1063.10    23.40
   1  11   0  2171.80    36.60
  -1 -11   0  2074.90    37.50
   1  11   1  1783.80    32.50
  -1 -11  -1  1656.20    30.80
   1  11   2  1890.40    31.60
  -1 -11  -2  1945.00    38.90
   1  11   3  1957.10    37.40
  -1 -11  -3  1826.00    38.30
   1  11   4  1705.80    35.10
  -1 -11  -4  1752.60    40.40
   1  11   5  1807.80    44.50
  -1 -11  -5  1740.60    47.50
   1  11   6  2015.60    61.50
  -1 -11  -6  2037.10    63.70
   1  11   7  1326.30    43.10
  -1 -11  -7  1347.50    50.20
   1  11   8   756.10    33.80
  -1 -11  -8   732.70    37.40
   1  12  -8   659.70    26.60
  -1 -12   8   528.60    31.80
   1  12  -7  1013.40    35.40
  -1 -12   7   871.10    34.30
   1  12  -6  1825.40    52.70
  -1 -12   6  1754.10    57.10
   1  12  -5  1621.50    42.40
  -1 -12   5  1350.50    39.20
   1  12  -4  1594.10    36.80
  -1 -12   4  1564.50    41.00
   1  12  -3  2231.00    49.50
  -1 -12   3  2426.00    44.30
   1  12  -2  2015.40    41.70
  -1 -12   2  1956.10    38.60
   1  12  -1  2369.40    42.30
  -1 -12   1  2296.10    45.70
   1  12   0  2636.20    45.30
  -1 -12   0  2695.10    53.20
   1  12   1  1250.20    26.30
  -1 -12  -1  1424.10    29.70
   1  12   2   893.20    20.30
  -1 -12  -2  1037.60    26.00
   1  12   3   760.60    19.30
  -1 -12  -3   751.30    23.30
   1  12   4   617.50    17.30
  -1 -12  -4   461.80    17.30
   1  12   5   307.20    16.50
  -1 -12  -5   299.70    26.00
   1  12   6   275.80    18.40
  -1 -12  -6   209.50    24.50
   1  12   7     8.00    10.10
  -1 -12  -7    29.40    14.30
   1  12   8    48.30    10.80
  -1 -12  -8    35.50    12.60
   1  13  -8     5.20     9.80
  -1 -13   8    10.90    13.90
   1  13  -7     8.60     8.20
  -1 -13   7     2.00    16.00
   1  13  -6    51.40     9.90
  -1 -13   6    72.10    13.90
   1  13  -5   100.10     9.60
  -1 -13   5    58.10    14.20
   1  13  -4   230.00    13.50
  -1 -13   4   180.30    13.70
   1  13  -3   349.40    15.70
  -1 -13   3   310.80    13.70
   1  13  -2   504.90    15.80
  -1 -13   2   497.60    17.80
   1  13  -1  1021.60    23.40
  -1 -13   1  1102.40    28.70
   1  13   0  1046.70    23.70
  -1 -13   0   971.60    26.20
   1  13   1  1563.40    34.20
  -1 -13  -1  1349.40    33.50
   1  13   2  1277.40    28.70
  -1 -13  -2  1244.00    34.90
   1  13   3  1565.00    34.40
  -1 -13  -3  1660.70    47.20
   1  13   4  1686.10    45.80
  -1 -13  -4  1891.80    73.00
   1  13   5  1680.10    47.10
  -1 -13  -5  1815.80    64.70
   1  13   6   999.00    39.00
  -1 -13  -6  1028.20    45.40
   1  13   7   631.30    28.80
  -1 -13  -7   684.00    42.20
   1  14  -7   701.80    30.20
  -1 -14   7   762.60    46.10
   1  14  -6   580.00    27.80
  -1 -14   6   464.50    32.20
   1  14  -5  1238.60    38.20
  -1 -14   5  1276.80    49.90
   1  14  -4  1145.30    38.40
  -1 -14   4  1185.60    52.50
   1  14  -3  1235.90    39.50
  -1 -14   3  1224.20    50.30
   1  14  -2  1654.80    43.00
  -1 -14   2  1494.60    42.10
   1  14  -1  1863.50    42.80
  -1 -14   1  1893.60    53.80
   1  14   0   975.40    25.50
  -1 -14   0   899.90    30.50
   1  14   1  1139.00    28.10
  -1 -14  -1  1195.50    42.30
   1  14   2   722.30    21.70
  -1 -14  -2   660.50    26.50
   1  14   3   614.80    21.90
  -1 -14  -3   606.20    33.00
   1  14   4   415.40    19.00
  -1 -14  -4   468.90    32.00
   1  14   5   225.30    15.30
  -1 -14  -5   215.80    22.20
   1  14   6    58.50    12.00
  -1 -14  -6    52.80    15.40
   1  14   7    20.50    12.20
  -1 -14  -7    30.30    16.40
   1  15  -6    14.70    11.60
  -1 -15   6    24.60    28.20
   1  15  -5    55.90    11.10
  -1 -15   5    61.80    15.40
   1  15  -4    79.70    11.50
  -1 -15   4    86.80    21.60
   1  15  -3   202.50    12.20
  -1 -15   3   233.20    22.20
   1  15  -2   375.90    16.70
  -1 -15   2   508.90    39.00
   1  15  -1   613.80    21.80
  -1 -15   1   658.30    51.90
   1  15   0   808.70    28.10
  -1 -15   0   823.50    45.40
   1  15   1   831.80    30.00
  -1 -15  -1  1039.60    46.80
   1  15   2   936.10    30.50
  -1 -15  -2  1026.30    47.70
   1  15   3  1111.60    35.70
  -1 -15  -3  1135.50    55.00
   1  15   4  1121.70    35.10
  -1 -15  -4  1191.60    52.20
   1  15   5   910.10    39.10
  -1 -15  -5   903.50    49.20
   1  15   6   530.50    32.10
  -1 -15  -6   461.80    30.70
   1  16  -5   681.40    33.10
  -1 -16   5   679.60    46.10
   1  16  -4   827.00    38.90
  -1 -16   4   750.90    42.70
   1  16  -3   925.60    30.50
  -1 -16   3   880.50    51.80
   1  16  -2   814.70    27.90
  -1 -16   2   872.70    82.20
   1  16  -1   819.80    27.90
  -1 -16   1   846.20    56.40
   1  16   0   925.30    30.70
  -1 -16   0  1008.80    60.30
   1  16   1   675.50    26.30
  -1 -16  -1   590.00    36.10
   1  16   2   420.90    19.60
  -1 -16  -2   426.20    32.60
   1  16   3   346.50    16.50
  -1 -16  -3   367.40    32.40
   1  16   4   168.50    13.50
  -1 -16  -4   227.50    28.90
   1  16   5   113.40    13.30
  -1 -16  -5    94.80    21.60
   1  17  -4    41.40    13.00
  -1 -17   4   112.90    29.20
   1  17  -3   100.40    12.00
  -1 -17   3    93.60    26.00
   1  17  -2   243.30    20.50
  -1 -17   2   222.90    54.30
   1  17  -1   306.50    16.60
  -1 -17   1   335.10    48.50
   1  17   0   572.20    24.60
  -1 -17   0   692.80    55.30
   1  17   1   430.40    20.90
  -1 -17  -1   484.50    42.40
   1  17   2   457.80    21.10
  -1 -17  -2   610.70    57.20
   1  17   3   457.70    27.00
  -1 -17  -3   426.60    34.40
   1  17   4   514.30    35.40
  -1 -17  -4   403.20    37.80
   1  18  -3   451.20    34.00
  -1 -18   3   439.80    94.20
   1  18  -2   547.20    35.40
  -1 -18   2   563.10    59.40
   1  18  -1   454.50    32.80
  -1 -18   1   550.60    48.30
   1  18   0   467.70    26.80
  -1 -18   0   532.90    55.70
   1  18   1   272.40    18.80
  -1 -18  -1   334.40    58.20
   1  18   2   275.60    18.30
  -1 -18  -2   263.40    47.00
   1  18   3   107.10    28.70
   2   0 -11   577.40    29.80
   2   0 -10   876.80    35.90
   2   0  -9  1196.70    37.60
   2   0  -8  1236.80    29.30
   2   0  -7  1393.90    29.50
   2   0  -6  3122.50    43.40
   2   0  -5  1136.20    18.50
   2   0  -4  1445.30    21.10
   2   0  -3  1121.50    17.10
   2   0  -2   911.30    13.90
   2   0  -1   584.90    10.20
   2   0   0    67.30     2.40
   2   0   1    47.70     1.60
   2   0   2    10.70     1.40
   2   0   3   180.90     4.90
   2   0   4   501.00     9.10
   2   0   5   652.20    12.10
   2   0   6   559.60    14.10
   2   0   7   555.90    19.00
   2   0   8   493.60    17.50
   2   0   9   521.60    23.70
   2   0  10   447.00    23.70
   2   1 -11    61.10    13.30
  -2  -1  11    73.50    15.40
   2   1 -10   187.70    16.20
  -2  -1  10   216.20    16.70
   2   1  -9   418.30    19.70
  -2  -1   9   389.40    19.00
   2   1  -8   759.90    20.60
  -2  -1   8   793.50    24.90
   2   1  -7  1430.20    29.90
  -2  -1   7  1290.20    25.90
   2   1  -6  2958.20    44.80
  -2  -1   6  2823.80    41.50
   2   1  -5  2828.60    36.00
  -2  -1   5  2778.50    34.70
   2   1  -4  4042.10    45.70
  -2  -1   4  3957.80    46.20
   2   1  -3  4273.20    47.60
  -2  -1   3  4254.50    49.40
   2   1  -2  7550.40    80.10
  -2  -1   2  7455.80    78.80
   2   1  -1  9070.60   105.00
  -2  -1   1  9018.20    91.10
   2   1   0 10371.90   118.20
  -2  -1   0 10735.80   124.40
   2   1   1  5774.20    66.20
  -2  -1  -1  5923.50    70.60
   2   1   2  7710.20    84.20
  -2  -1  -2  7694.60    96.50
   2   1   3  9370.00   100.40
  -2  -1  -3  9253.70    97.80
   2   1   4  8915.50    94.80
  -2  -1  -4  8802.90   101.70
   2   1   5  5592.70    64.40
  -2  -1  -5  5650.30    68.00
   2   1   6  3145.20    49.20
  -2  -1  -6  2867.80    42.50
   2   1   7  1630.20    34.00
  -2  -1  -7  1826.90    35.80
   2   1   8  1089.20    27.40
  -2  -1  -8  1046.90    29.00
   2   1   9   703.60    28.10
  -2  -1  -9   726.80    30.50
   2   1  10   340.70    19.30
  -2  -1 -10   362.40    19.40
   2   2 -11   631.40    69.40
   2   2 -10   849.20    38.80
  -2  -2  10   815.90    33.80
   2   2  -9   899.20    30.60
  -2  -2   9   866.00    35.70
   2   2  -8  1460.00    34.70
  -2  -2   8  1509.40    38.10
   2   2  -7  1820.20    36.10
  -2  -2   7  1902.00    37.70
   2   2  -6  1278.80    23.70
  -2  -2   6  1444.40    23.70
   2   2  -5  2313.10    30.10
  -2  -2   5  2302.90    30.30
   2   2  -4  1621.20    21.50
  -2  -2   4  1561.40    21.30
   2   2  -3   991.70    14.20
  -2  -2   3  1144.00    18.00
   2   2  -2  1277.20    16.80
  -2  -2   2  1483.10    20.20
   2   2  -1   665.50    11.30
  -2  -2   1   714.00    10.30
   2   2   0  1603.00    21.70
  -2  -2   0  1333.10    17.10
   2   2   1   309.10     5.00
  -2  -2  -1   248.30     5.20
   2   2   2   463.50     7.80
  -2  -2  -2   500.30     9.30
   2   2   3   119.00     3.70
  -2  -2  -3   144.30     4.30
   2   2   4   381.50     7.80
  -2  -2  -4   381.80     8.40
   2   2   5   519.70    10.60
  -2  -2  -5   470.50     9.70
   2   2   6   463.70    11.30
  -2  -2  -6   515.00    13.20
   2   2   7   659.00    17.40
  -2  -2  -7   437.20    13.60
   2   2   8   645.20    25.00
  -2  -2  -8   599.20    25.80
   2   2   9   593.00    24.90
  -2  -2  -9   516.20    27.80
   2   2  10   278.00    16.20
  -2  -2 -10   295.70    19.00
   2   3 -10   194.30    16.00
  -2  -3  10   141.50    16.40
   2   3  -9   323.60    17.00
  -2  -3   9   429.60    24.10
   2   3  -8   817.40    23.30
  -2  -3   8   633.40    21.40
   2   3  -7  1604.20    35.10
  -2  -3   7  1346.20    26.20
   2   3  -6  1681.60    30.50
  -2  -3   6  1584.90    28.00
   2   3  -5  4035.30    47.00
  -2  -3   5  4131.90    48.60
   2   3  -4  4208.90    47.30
  -2  -3   4  4273.90    48.80
   2   3  -3  6704.70    67.50
  -2  -3   3  6387.50    68.30
   2   3  -2  8966.70    90.20
  -2  -3   2  8817.30    85.40
   2   3  -1 11417.30   119.50
  -2  -3   1 11389.00   126.00
   2   3   0  7177.40    83.10
  -2  -3   0  7457.50    92.90
   2   3   1 11479.50   118.20
  -2  -3  -1 11721.60   152.00
   2   3   2  7014.80    70.60
  -2  -3  -2  7082.70    81.20
   2   3   3  6074.70    61.20
  -2  -3  -3  6097.50    67.30
   2   3   4  4899.20    55.00
  -2  -3  -4  4801.60    52.60
   2   3   5  3490.60    50.10
  -2  -3  -5  3425.60    40.50
   2   3   6  2374.70    40.60
  -2  -3  -6  2417.00    39.20
   2   3   7  1872.80    37.90
  -2  -3  -7  1575.40    34.90
   2   3   8  1248.90    33.40
  -2  -3  -8  1361.00    39.90
   2   3   9   680.30    29.60
  -2  -3  -9   735.90    33.80
   2   3  10   351.70    20.30
  -2  -3 -10   312.10    20.70
   2   4 -10   532.30    24.80
  -2  -4  10   440.70    27.40
   2   4  -9  1232.00    35.40
  -2  -4   9  1126.50    40.20
   2   4  -8   917.50    28.00
  -2  -4   8   993.70    28.20
   2   4  -7  1520.20    33.80
  -2  -4   7  1608.60    29.40
   2   4  -6  1765.40    32.00
  -2  -4   6  1742.90    29.10
   2   4  -5  1852.80    27.70
  -2  -4   5  1632.60    23.90
   2   4  -4  1638.50    22.50
  -2  -4   4  1440.60    20.20
   2   4  -3  2023.30    26.80
  -2  -4   3  2159.70    26.90
   2   4  -2   994.90    15.50
  -2  -4   2  1211.90    16.70
   2   4  -1   746.40    12.20
  -2  -4   1   809.00    12.90
   2   4   0   237.30     4.80
  -2  -4   0   186.10     5.00
   2   4   1  1447.90    17.00
  -2  -4  -1  1314.20    18.50
   2   4   2    12.60     2.20
  -2  -4  -2    12.90     1.90
   2   4   3   280.90     6.10
  -2  -4  -3   198.20     5.00
   2   4   4   165.50     5.80
  -2  -4  -4   138.30     4.90
   2   4   5   289.70     8.80
  -2  -4  -5   320.90     8.20
   2   4   6   510.00    13.50
  -2  -4  -6   443.60    12.80
   2   4   7   542.80    18.00
  -2  -4  -7   579.10    16.20
   2   4   8   650.00    23.70
  -2  -4  -8   463.40    23.80
   2   4   9   420.70    21.50
  -2  -4  -9   384.10    24.40
   2   4  10   382.90    20.60
  -2  -4 -10   376.30    21.50
   2   5 -10    92.00    12.80
  -2  -5  10   148.90    16.90
   2   5  -9   381.10    18.20
  -2  -5   9   319.10    21.00
   2   5  -8   571.20    19.60
  -2  -5   8   525.00    19.40
   2   5  -7  1169.80    24.80
  -2  -5   7  1015.70    22.30
   2   5  -6  2214.50    37.30
  -2  -5   6  2150.40    35.60
   2   5  -5  2669.90    38.40
  -2  -5   5  2774.20    41.60
   2   5  -4  4237.30    55.10
  -2  -5   4  4305.80    49.60
   2   5  -3  7641.80    88.80
  -2  -5   3  7430.60    76.70
   2   5  -2  5995.20    73.50
  -2  -5   2  5513.80    63.80
   2   5  -1  8405.80    99.80
  -2  -5   1  8468.20    92.70
   2   5   0 11969.60   132.30
  -2  -5   0 12236.70   144.50
   2   5   1  7730.30    87.40
  -2  -5  -1  7828.80    94.50
   2   5   2  6610.00    65.00
  -2  -5  -2  6713.10    79.30
   2   5   3  4526.80    51.90
  -2  -5  -3  4519.00    54.40
   2   5   4  2553.90    34.10
  -2  -5  -4  2686.20    36.80
   2   5   5  2671.30    41.10
  -2  -5  -5  2532.50    38.80
   2   5   6  2610.30    49.60
  -2  -5  -6  2411.70    45.10
   2   5   7  1881.70    40.80
  -2  -5  -7  1756.70    37.30
   2   5   8   935.50    31.20
  -2  -5  -8   984.40    34.50
   2   5   9   525.60    27.20
  -2  -5  -9   468.60    25.90
   2   5  10   265.60    17.80
  -2  -5 -10   303.10    24.70
   2   6 -10   524.80    24.90
  -2  -6  10   463.40    28.30
   2   6  -9   644.20    26.10
  -2  -6   9   580.00    27.90
   2   6  -8  1333.70    39.70
  -2  -6   8  1167.80    34.90
   2   6  -7  1199.80    26.80
  -2  -6   7  1122.70    24.20
   2   6  -6  1529.10    31.80
  -2  -6   6  1405.70    27.10
   2   6  -5  1592.70    28.70
  -2  -6   5  1392.00    22.60
   2   6  -4  1561.90    24.80
  -2  -6   4  1380.30    20.20
   2   6  -3  1125.00    19.80
  -2  -6   3  1046.00    16.00
   2   6  -2   876.70    15.90
  -2  -6   2  1055.10    15.30
   2   6  -1   447.00     8.30
  -2  -6   1   454.50     9.10
   2   6   0   344.20     7.70
  -2  -6   0   322.00     7.90
   2   6   1   138.80     4.40
  -2  -6  -1   182.60     6.00
   2   6   2   219.90     5.30
  -2  -6  -2   197.70     6.40
   2   6   3    38.50     3.50
  -2  -6  -3    22.60     3.10
   2   6   4   453.80    10.40
  -2  -6  -4   272.00     8.10
   2   6   5   305.10     9.40
  -2  -6  -5   405.90    10.80
   2   6   6   540.80    15.80
  -2  -6  -6   596.10    16.30
   2   6   7   581.90    18.50
  -2  -6  -7   571.90    19.90
   2   6   8   403.90    18.40
  -2  -6  -8   390.80    23.00
   2   6   9   265.00    18.70
  -2  -6  -9   324.20    23.40
   2   7 -10   131.60    13.60
  -2  -7  10   114.30    17.40
   2   7  -9   215.30    16.20
  -2  -7   9   222.70    19.30
   2   7  -8   612.20    22.50
  -2  -7   8   679.20    27.10
   2   7  -7   933.50    26.90
  -2  -7   7   905.20    23.80
   2   7  -6  1433.40    33.90
  -2  -7   6  1371.20    29.40
   2   7  -5  2454.60    42.20
  -2  -7   5  2379.80    39.40
   2   7  -4  3992.30    54.80
  -2  -7   4  3885.00    50.20
   2   7  -3  2881.80    40.10
  -2  -7   3  2737.00    35.50
   2   7  -2  6156.20    74.30
  -2  -7   2  6231.70    66.30
   2   7  -1  4534.70    54.00
  -2  -7   1  4383.90    48.60
   2   7   0  5496.60    64.00
  -2  -7   0  5411.20    66.60
   2   7   1  7216.20    79.70
  -2  -7  -1  7266.40    93.70
   2   7   2  6315.50    64.80
  -2  -7  -2  6268.90    83.80
   2   7   3  3448.70    41.70
  -2  -7  -3  3429.20    47.40
   2   7   4  3581.00    50.70
  -2  -7  -4  3517.60    52.20
   2   7   5  3148.00    51.80
  -2  -7  -5  2922.00    49.00
   2   7   6  2567.50    53.80
  -2  -7  -6  2401.90    46.30
   2   7   7  1521.10    44.10
  -2  -7  -7  1503.40    51.00
   2   7   8   743.40    24.60
  -2  -7  -8   754.70    35.60
   2   7   9   403.40    24.20
  -2  -7  -9   372.00    27.60
   2   8 -10   523.30    57.20
  -2  -8  10   513.00    57.40
   2   8  -9   754.50    28.00
  -2  -8   9   590.10    29.60
   2   8  -8  1090.50    35.70
  -2  -8   8   853.60    31.80
   2   8  -7  1096.90    32.10
  -2  -8   7   813.90    23.90
   2   8  -6  1004.90    26.40
  -2  -8   6   895.60    21.70
   2   8  -5   925.30    22.90
  -2  -8   5   975.50    21.60
   2   8  -4  1271.90    26.20
  -2  -8   4  1202.00    21.50
   2   8  -3   687.40    13.70
  -2  -8   3   644.60    13.10
   2   8  -2   858.80    16.00
  -2  -8   2   634.70    11.10
   2   8  -1   264.90     7.30
  -2  -8   1   249.30     7.10
   2   8   0   167.60     5.00
  -2  -8   0   267.10     7.60
   2   8   1   177.10     6.00
  -2  -8  -1   222.90     7.90
   2   8   2    57.20     3.40
  -2  -8  -2    50.60     5.10
   2   8   3   210.40     7.40
  -2  -8  -3   150.90     6.70
   2   8   4   325.90    10.90
  -2  -8  -4   498.50    13.20
   2   8   5   371.50    12.20
  -2  -8  -5   337.20    11.20
   2   8   6   429.70    16.60
  -2  -8  -6   406.50    14.80
   2   8   7   439.70    23.00
  -2  -8  -7   449.20    25.80
   2   8   8   333.20    20.10
  -2  -8  -8   340.70    24.10
   2   8   9   296.80    23.20
  -2  -8  -9   270.40    21.50
   2   9  -9   270.60    17.30
  -2  -9   9   261.50    23.70
   2   9  -8   441.90    20.50
  -2  -9   8   432.60    22.10
   2   9  -7   675.50    24.70
  -2  -9   7   754.50    28.20
   2   9  -6  1087.90    28.30
  -2  -9   6  1038.60    27.40
   2   9  -5  1464.10    32.10
  -2  -9   5  1263.90    26.60
   2   9  -4  2487.60    42.70
  -2  -9   4  2236.80    38.50
   2   9  -3  4386.80    67.60
  -2  -9   3  4274.40    55.90
   2   9  -2  2550.80    41.50
  -2  -9   2  2584.90    36.10
   2   9  -1  2690.70    41.30
  -2  -9   1  2752.20    39.90
   2   9   0  3428.80    43.10
  -2  -9   0  3429.20    47.60
   2   9   1  4103.20    51.10
  -2  -9  -1  4061.90    66.00
   2   9   2  5201.10    73.50
  -2  -9  -2  5197.30    78.90
   2   9   3  5214.80    79.90
  -2  -9  -3  5276.30    83.00
   2   9   4  3446.00    59.70
  -2  -9  -4  3121.40    53.30
   2   9   5  2291.10    46.70
  -2  -9  -5  2395.20    54.80
   2   9   6  1752.90    42.20
  -2  -9  -6  1649.10    38.20
   2   9   7  1183.70    37.40
  -2  -9  -7  1193.00    43.60
   2   9   8   658.70    27.20
  -2  -9  -8   660.30    38.20
   2   9   9   313.60    21.00
  -2  -9  -9   313.90    31.00
   2  10  -9   817.40    31.80
  -2 -10   9   757.10    44.60
   2  10  -8   652.40    26.20
  -2 -10   8   558.70    32.30
   2  10  -7   714.30    23.20
  -2 -10   7   635.60    27.70
   2  10  -6   698.60    24.10
  -2 -10   6   647.60    23.30
   2  10  -5   751.30    21.40
  -2 -10   5   790.70    20.70
   2  10  -4   686.50    17.10
  -2 -10   4   686.30    16.60
   2  10  -3  1019.90    23.60
  -2 -10   3   961.50    19.60
   2  10  -2   324.50    10.70
  -2 -10   2   244.90     9.10
   2  10  -1   155.90     6.20
  -2 -10   1   133.00     6.60
   2  10   0   103.30     4.40
  -2 -10   0   109.70     7.60
   2  10   1    35.10     4.20
  -2 -10  -1    52.80     7.80
   2  10   2    73.30     5.10
  -2 -10  -2    76.00     8.00
   2  10   3   182.90     7.20
  -2 -10  -3   252.40    11.40
   2  10   4   169.90     9.10
  -2 -10  -4   180.00     9.00
   2  10   5   202.80    11.30
  -2 -10  -5   183.10    13.10
   2  10   6   238.00    15.00
  -2 -10  -6   238.70    17.90
   2  10   7   381.30    21.90
  -2 -10  -7   287.50    23.60
   2  10   8   271.40    18.50
  -2 -10  -8   291.00    21.90
   2  11  -8   379.00    18.30
  -2 -11   8   298.60    22.90
   2  11  -7   608.10    24.70
  -2 -11   7   509.00    29.00
   2  11  -6   682.80    23.90
  -2 -11   6   500.30    23.60
   2  11  -5  1441.50    38.40
  -2 -11   5  1228.30    30.60
   2  11  -4  1771.40    39.10
  -2 -11   4  1625.00    32.80
   2  11  -3  2376.60    50.10
  -2 -11   3  2491.30    44.20
   2  11  -2  2861.20    52.30
  -2 -11   2  2687.10    45.50
   2  11  -1  2896.30    44.70
  -2 -11   1  2941.30    56.00
   2  11   0  2195.90    35.20
  -2 -11   0  2168.40    43.80
   2  11   1  3514.10    55.00
  -2 -11  -1  3627.20    74.30
   2  11   2  3627.40    65.90
  -2 -11  -2  3452.10    66.40
   2  11   3  3334.70    60.30
  -2 -11  -3  3291.70    68.60
   2  11   4  2214.00    49.40
  -2 -11  -4  2189.30    49.70
   2  11   5  1564.60    40.40
  -2 -11  -5  1636.50    61.80
   2  11   6  1002.30    31.30
  -2 -11  -6  1131.90    48.50
   2  11   7   635.60    28.70
  -2 -11  -7   695.60    40.50
   2  11   8   558.60    31.70
  -2 -11  -8   467.60    34.30
   2  12  -8   570.90    23.70
  -2 -12   8   536.70    31.80
   2  12  -7   628.40    27.10
  -2 -12   7   593.10    31.90
   2  12  -6   525.60    21.80
  -2 -12   6   443.20    30.60
   2  12  -5   825.80    28.50
  -2 -12   5   735.20    30.60
   2  12  -4   609.40    20.50
  -2 -12   4   553.80    18.60
   2  12  -3   324.80    13.00
  -2 -12   3   316.20    12.40
   2  12  -2   332.70    12.00
  -2 -12   2   351.40    11.80
   2  12  -1   216.70     8.10
  -2 -12   1   193.60    10.90
   2  12   0    28.60     3.70
  -2 -12   0    35.40     7.50
   2  12   1   172.70     7.00
  -2 -12  -1   127.50    10.50
   2  12   2    51.60     6.20
  -2 -12  -2    61.10     8.60
   2  12   3    68.90     6.80
  -2 -12  -3   117.50    11.70
   2  12   4   138.60     9.30
  -2 -12  -4   104.30     9.30
   2  12   5   151.40    11.00
  -2 -12  -5   109.70    16.30
   2  12   6   232.60    15.50
  -2 -12  -6   185.90    22.60
   2  12   7   143.50    15.60
  -2 -12  -7   208.60    23.50
   2  13  -7   490.30    23.60
  -2 -13   7   350.10    30.90
   2  13  -6   787.80    29.00
  -2 -13   6   802.60    43.80
   2  13  -5   925.40    32.00
  -2 -13   5   864.50    42.10
   2  13  -4  1195.20    38.10
  -2 -13   4  1150.80    52.20
   2  13  -3  1375.80    41.00
  -2 -13   3  1166.90    31.50
   2  13  -2  2194.30    51.90
  -2 -13   2  2154.40    54.50
   2  13  -1  2576.20    50.00
  -2 -13   1  2508.30    68.00
   2  13   0  3248.30    69.60
  -2 -13   0  3333.30    86.80
   2  13   1  2038.10    46.80
  -2 -13  -1  2159.60    57.40
   2  13   2  1693.40    39.90
  -2 -13  -2  1724.40    52.00
   2  13   3  1316.10    35.00
  -2 -13  -3  1389.60    55.50
   2  13   4  1383.10    34.50
  -2 -13  -4  1424.80    55.90
   2  13   5  1030.10    35.10
  -2 -13  -5  1112.20    50.50
   2  13   6   623.00    30.20
  -2 -13  -6   735.50    37.30
   2  13   7   576.30    33.10
  -2 -13  -7   476.70    31.70
   2  14  -7   414.80    19.40
  -2 -14   7   394.20    35.70
   2  14  -6   754.10    33.10
  -2 -14   6   768.50    54.00
   2  14  -5   324.10    17.20
  -2 -14   5   344.20    29.90
   2  14  -4   365.70    18.40
  -2 -14   4   322.80    30.10
   2  14  -3   290.30    17.50
  -2 -14   3   260.40    28.60
   2  14  -2   226.00    13.20
  -2 -14   2   185.00    22.70
   2  14  -1   162.50    11.60
  -2 -14   1   165.90    19.50
   2  14   0    78.60     8.40
  -2 -14   0    70.90    12.10
   2  14   1    -5.80     6.90
  -2 -14  -1     8.40    13.10
   2  14   2     5.90     7.40
  -2 -14  -2     1.70    12.90
   2  14   3    20.10     7.10
  -2 -14  -3    29.80    13.60
   2  14   4    52.40     8.90
  -2 -14  -4    34.30    19.30
   2  14   5    97.40    11.30
  -2 -14  -5   116.50    22.50
   2  14   6   115.70    16.40
  -2 -14  -6   132.40    21.20
   2  15  -6   569.30    30.10
  -2 -15   6   536.30    60.30
   2  15  -5   653.50    28.80
  -2 -15   5   597.10    38.70
   2  15  -4   685.70    28.00
  -2 -15   4   742.90    48.80
   2  15  -3   865.10    34.10
  -2 -15   3   750.50    50.80
   2  15  -2  1282.70    49.00
  -2 -15   2  1279.40    68.20
   2  15  -1  1720.20    44.30
  -2 -15   1  1801.70    89.90
   2  15   0  2032.80    51.10
  -2 -15   0  2248.20    89.40
   2  15   1  1300.20    36.00
  -2 -15  -1  1404.00    56.60
   2  15   2   921.70    35.70
  -2 -15  -2  1051.30    47.90
   2  15   3   938.20    33.80
  -2 -15  -3   928.30    51.40
   2  15   4   853.00    31.50
  -2 -15  -4   917.80    50.50
   2  15   5   754.60    34.20
  -2 -15  -5   668.20    55.50
   2  16  -5   322.50    19.70
  -2 -16   5   369.80    31.80
   2  16  -4   211.30    17.30
  -2 -16   4   180.80    25.00
   2  16  -3   141.50    14.30
  -2 -16   3   133.70    27.60
   2  16  -2   172.00    16.80
  -2 -16   2   136.90    30.80
   2  16  -1    84.30    11.50
  -2 -16   1    57.20    25.70
   2  16   0    32.50    11.10
  -2 -16   0    42.80    15.90
   2  16   1    57.50    11.50
  -2 -16  -1    82.60    18.70
   2  16   2    16.20    11.40
  -2 -16  -2   -11.60    19.30
   2  16   3    14.30     9.60
  -2 -16  -3    24.60    20.00
   2  16   4    36.00    14.30
  -2 -16  -4    37.80    16.50
   2  17  -4   425.80    27.60
  -2 -17   4   427.60    43.00
   2  17  -3   586.20    25.10
  -2 -17   3   618.10    43.00
   2  17  -2   673.60    32.10
  -2 -17   2   728.70    76.00
   2  17  -1   779.20    31.60
  -2 -17   1   829.10    60.80
   2  17   0   589.90    30.30
  -2 -17   0   656.40    42.70
   2  17   1   896.20    39.50
  -2 -17  -1   982.90    68.00
   2  17   2   725.60    37.30
  -2 -17  -2   868.30    53.10
   2  17   3   692.40    39.70
  -2 -17  -3   739.30    47.60
   2  18  -2    88.80    31.70
   2  18  -1    34.50    13.00
  -2 -18   1    61.40    18.50
   2  18   0    -8.10     9.60
  -2 -18   0    16.60    33.80
   2  18   1    25.40    14.10
  -2 -18  -1    41.10    37.70
   3   0 -10   121.40    14.20
   3   0  -9   115.40    13.70
   3   0  -8   119.80    10.00
   3   0  -7    39.70     7.30
   3   0  -6    14.20     6.20
   3   0  -5    30.70     6.20
   3   0  -4   106.00     7.20
   3   0  -3   457.00     9.20
   3   0  -2  1563.60    22.70
   3   0  -1  2425.90    32.90
   3   0   0  1687.10    19.80
   3   0   1  2405.40    27.90
   3   0   2  2555.60    38.20
   3   0   3  3769.10    53.00
   3   0   4  3786.80    46.50
   3   0   5  2607.80    40.40
   3   0   6  1690.10    33.50
   3   0   7   981.00    29.70
   3   0   8  1506.10    48.90
   3   0   9   844.30    30.60
   3   1 -10   560.50    25.60
  -3  -1  10   601.30    27.30
   3   1  -9  1036.40    34.60
  -3  -1   9  1115.40    36.00
   3   1  -8  1560.10    41.00
  -3  -1   8  1529.80    40.20
   3   1  -7  2663.50    51.90
  -3  -1   7  2490.50    49.50
   3   1  -6  2653.30    42.90
  -3  -1   6  2546.50    45.60
   3   1  -5  3704.70    51.50
  -3  -1   5  3705.10    54.60
   3   1  -4  3909.10    45.20
  -3  -1   4  3835.50    49.50
   3   1  -3  6827.60    70.90
  -3  -1   3  6654.90    76.00
   3   1  -2  9776.40   110.70
  -3  -1   2  9669.80   113.90
   3   1  -1  9754.20   108.50
  -3  -1   1  9668.10   111.00
   3   1   0  5866.70    63.50
  -3  -1   0  6285.90    65.60
   3   1   1  4435.80    56.40
  -3  -1  -1  3969.80    51.00
   3   1   2  3155.10    38.50
  -3  -1  -2  3528.00    45.20
   3   1   3  2974.30    35.50
  -3  -1  -3  3279.90    45.70
   3   1   4  2139.50    32.60
  -3  -1  -4  2100.00    34.10
   3   1   5   967.00    20.60
  -3  -1  -5   998.70    19.50
   3   1   6   376.60    12.10
  -3  -1  -6   492.60    13.90
   3   1   7   263.50    11.70
  -3  -1  -7   179.40    12.00
   3   1   8    77.20    10.60
  -3  -1  -8   102.40    14.30
   3   1   9    41.20    10.70
  -3  -1  -9    25.70     9.80
   3   2 -10   127.60    13.20
  -3  -2  10   106.50    14.30
   3   2  -9   141.10    13.70
  -3  -2   9   171.00    14.50
   3   2  -8    80.20     9.30
  -3  -2   8    95.20    10.90
   3   2  -7    79.20     7.60
  -3  -2   7    79.90     7.90
   3   2  -6    15.00     5.70
  -3  -2   6     7.80     7.80
   3   2  -5   219.00     7.60
  -3  -2   5   292.60    10.30
   3   2  -4   257.60     7.60
  -3  -2   4   384.20    11.00
   3   2  -3   434.00     9.20
  -3  -2   3   574.90    12.00
   3   2  -2   886.10    14.30
  -3  -2   2   864.40    13.20
   3   2  -1  1822.40    26.40
  -3  -2   1  1814.60    22.20
   3   2   0  2645.70    33.30
  -3  -2   0  2468.50    31.10
   3   2   1  1742.40    25.70
  -3  -2  -1  2001.60    27.80
   3   2   2  2765.00    32.70
  -3  -2  -2  2464.30    35.20
   3   2   3  3341.80    43.10
  -3  -2  -3  3112.90    47.30
   3   2   4  3477.00    49.50
  -3  -2  -4  3309.10    54.20
   3   2   5  2574.00    42.30
  -3  -2  -5  2538.60    40.40
   3   2   6  1876.00    34.10
  -3  -2  -6  1727.50    30.40
   3   2   7  1797.90    40.30
  -3  -2  -7  1737.40    45.10
   3   2   8  1093.40    33.60
  -3  -2  -8  1036.00    39.80
   3   2   9   827.50    31.00
  -3  -2  -9   764.70    33.00
   3   3 -10   620.00    27.30
  -3  -3  10   655.00    29.70
   3   3  -9   944.60    33.30
  -3  -3   9   968.80    38.30
   3   3  -8  1691.50    45.70
  -3  -3   8  1609.30    57.20
   3   3  -7  2440.70    46.70
  -3  -3   7  2413.00    51.90
   3   3  -6  5150.10    75.70
  -3  -3   6  5237.10    91.00
   3   3  -5  3570.60    49.70
  -3  -3   5  3370.90    45.80
   3   3  -4  4816.30    54.70
  -3  -3   4  4761.00    51.90
   3   3  -3  4455.10    49.10
  -3  -3   3  4250.60    51.40
   3   3  -2  4510.20    51.80
  -3  -3   2  4684.60    53.40
   3   3  -1  5442.60    61.60
  -3  -3   1  5373.90    56.10
   3   3   0  6098.50    69.70
  -3  -3   0  5192.40    60.40
   3   3   1  3357.00    36.60
  -3  -3  -1  3742.70    45.50
   3   3   2  3085.80    37.00
  -3  -3  -2  3221.30    50.30
   3   3   3  2333.40    33.80
  -3  -3  -3  2413.60    40.60
   3   3   4  1498.00    26.20
  -3  -3  -4  1762.90    34.50
   3   3   5  1167.90    26.70
  -3  -3  -5  1032.70    23.20
   3   3   6   524.00    15.10
  -3  -3  -6   468.50    12.70
   3   3   7   255.80    12.40
  -3  -3  -7   283.20    15.40
   3   3   8    90.10     9.60
  -3  -3  -8    88.30    13.60
   3   3   9    50.10    11.90
  -3  -3  -9    36.20    14.80
   3   4 -10   141.90    15.40
  -3  -4  10   126.10    16.90
   3   4  -9    67.30    11.40
  -3  -4   9    73.20    15.00
   3   4  -8   151.80    13.20
  -3  -4   8   154.60    16.20
   3   4  -7    55.40     8.00
  -3  -4   7    54.10     7.20
   3   4  -6    16.80     4.60
  -3  -4   6    18.80     7.50
   3   4  -5    24.70     4.40
  -3  -4   5    33.80     4.60
   3   4  -4   143.20     5.60
  -3  -4   4   186.20     6.60
   3   4  -3   211.10     8.30
  -3  -4   3   241.00     7.70
   3   4  -2   717.10    13.50
  -3  -4   2   645.00    12.50
   3   4  -1   853.20    13.80
  -3  -4   1   894.00    13.70
   3   4   0  1456.80    20.60
  -3  -4   0  1817.00    27.90
   3   4   1  2806.50    32.20
  -3  -4  -1  2399.20    30.40
   3   4   2  2453.40    29.00
  -3  -4  -2  2440.20    34.40
   3   4   3  2265.20    29.20
  -3  -4  -3  2201.80    36.30
   3   4   4  2303.30    34.30
  -3  -4  -4  2244.80    39.10
   3   4   5  2598.80    42.30
  -3  -4  -5  2611.10    49.00
   3   4   6  2328.70    44.20
  -3  -4  -6  2209.00    44.90
   3   4   7  1992.60    48.10
  -3  -4  -7  1792.50    55.20
   3   4   8  1258.80    37.90
  -3  -4  -8  1236.50    50.10
   3   4   9   856.40    38.60
  -3  -4  -9   805.30    41.10
   3   5 -10   708.60    26.10
  -3  -5  10   599.10    33.30
   3   5  -9   796.60    27.90
  -3  -5   9   752.70    33.60
   3   5  -8  1862.60    51.00
  -3  -5   8  1771.40    50.50
   3   5  -7  2173.00    43.70
  -3  -5   7  2111.20    51.90
   3   5  -6  2845.60    47.10
  -3  -5   6  2642.10    48.50
   3   5  -5  5403.80    75.00
  -3  -5   5  5287.00    73.00
   3   5  -4  5236.20    64.70
  -3  -5   4  5111.80    62.00
   3   5  -3  3328.10    44.90
  -3  -5   3  3370.80    44.60
   3   5  -2  3981.60    53.90
  -3  -5   2  3841.50    44.60
   3   5  -1  2850.50    36.60
  -3  -5   1  2831.80    37.00
   3   5   0  3385.10    39.00
  -3  -5   0  3247.10    43.20
   3   5   1  4471.00    49.50
  -3  -5  -1  3851.00    50.30
   3   5   2  3211.00    33.70
  -3  -5  -2  3254.10    41.60
   3   5   3  1762.40    25.40
  -3  -5  -3  1939.90    29.50
   3   5   4  1536.00    28.00
  -3  -5  -4  1184.00    25.50
   3   5   5   833.20    18.00
  -3  -5  -5   743.40    19.20
   3   5   6   647.40    19.20
  -3  -5  -6   518.20    20.10
   3   5   7   230.90    13.50
  -3  -5  -7   280.70    18.70
   3   5   8    87.10    10.10
  -3  -5  -8    66.70    15.90
   3   5   9    27.80    11.00
  -3  -5  -9    44.70    20.20
   3   6 -10   114.80    13.80
  -3  -6  10   106.00    16.20
   3   6  -9   175.20    14.90
  -3  -6   9   123.80    17.00
   3   6  -8    65.00     9.70
  -3  -6   8    38.30    10.50
   3   6  -7    63.30    10.90
  -3  -6   7    44.70     8.40
   3   6  -6    20.80     5.80
  -3  -6   6    17.60     6.90
   3   6  -5    81.70     6.70
  -3  -6   5    70.70     6.00
   3   6  -4   326.30    10.60
  -3  -6   4   244.70     9.90
   3   6  -3   881.10    17.20
  -3  -6   3   709.00    15.70
   3   6  -2   296.40     9.60
  -3  -6   2   389.30    10.70
   3   6  -1   672.90    13.00
  -3  -6   1   718.50    14.10
   3   6   0  1122.90    16.20
  -3  -6   0  1275.70    21.50
   3   6   1  2131.20    28.90
  -3  -6  -1  2386.50    35.70
   3   6   2  2638.60    30.30
  -3  -6  -2  1616.50    29.00
   3   6   3  2468.70    35.50
  -3  -6  -3  2214.10    37.50
   3   6   4  1721.10    28.90
  -3  -6  -4  1951.50    37.00
   3   6   5  1778.90    34.30
  -3  -6  -5  1765.90    39.20
   3   6   6  2011.00    46.80
  -3  -6  -6  1970.60    55.20
   3   6   7  1625.50    40.80
  -3  -6  -7  1604.80    55.00
   3   6   8  1170.60    38.20
  -3  -6  -8  1065.10    42.30
   3   6   9   633.00    33.40
  -3  -6  -9   548.80    35.20
   3   7  -9  1295.80    42.00
  -3  -7   9  1299.30    57.70
   3   7  -8   943.90    30.90
  -3  -7   8   779.40    28.50
   3   7  -7  1486.10    40.50
  -3  -7   7  1375.20    41.90
   3   7  -6  1898.70    39.40
  -3  -7   6  1832.00    38.30
   3   7  -5  2719.00    46.20
  -3  -7   5  2494.40    43.80
   3   7  -4  4251.50    64.00
  -3  -7   4  4172.20    60.60
   3   7  -3  6358.60    98.70
  -3  -7   3  6625.80   107.60
   3   7  -2  2776.50    43.70
  -3  -7   2  2830.80    43.30
   3   7  -1  3271.70    45.60
  -3  -7   1  3348.60    46.60
   3   7   0  3384.60    47.30
  -3  -7   0  3373.70    48.30
   3   7   1  3800.00    47.80
  -3  -7  -1  3514.00    50.40
   3   7   2  2891.20    36.40
  -3  -7  -2  2859.20    53.30
   3   7   3  1860.40    28.90
  -3  -7  -3  1731.80    36.20
   3   7   4   991.70    19.60
  -3  -7  -4   931.60    25.70
   3   7   5   666.20    17.30
  -3  -7  -5   531.70    20.70
   3   7   6   448.80    17.30
  -3  -7  -6   351.90    18.30
   3   7   7   229.60    16.30
  -3  -7  -7   202.60    18.60
   3   7   8    48.40    11.40
  -3  -7  -8    80.20    13.60
   3   8  -9   131.40    14.20
  -3  -8   9   138.60    18.70
   3   8  -8    68.40    10.50
  -3  -8   8    62.00    15.10
   3   8  -7    47.00     9.80
  -3  -8   7    17.80    13.40
   3   8  -6    24.20     8.80
  -3  -8   6     7.50     7.10
   3   8  -5    30.60     5.90
  -3  -8   5    32.00     7.00
   3   8  -4   198.40     9.80
  -3  -8   4   185.40     8.20
   3   8  -3   293.30    10.30
  -3  -8   3   282.80    10.80
   3   8  -2  1020.50    20.40
  -3  -8   2   739.00    16.90
   3   8  -1   753.40    15.80
  -3  -8   1   853.60    17.90
   3   8   0  1126.20    19.90
  -3  -8   0  1299.30    26.30
   3   8   1  1728.30    27.30
  -3  -8  -1  1788.20    34.60
   3   8   2  1959.40    28.70
  -3  -8  -2  2018.90    35.80
   3   8   3  1693.60    28.50
  -3  -8  -3  1868.50    40.80
   3   8   4  1792.20    33.20
  -3  -8  -4  1613.70    38.20
   3   8   5  1302.70    30.50
  -3  -8  -5  1477.00    38.50
   3   8   6  1457.70    38.40
  -3  -8  -6  1462.90    47.00
   3   8   7  1084.10    40.70
  -3  -8  -7   984.10    40.80
   3   8   8   674.00    31.70
  -3  -8  -8   626.30    43.80
   3   9  -9   551.40    24.90
  -3  -9   9   435.90    28.60
   3   9  -8  1132.70    35.00
  -3  -9   8  1074.10    43.70
   3   9  -7  1268.00    39.60
  -3  -9   7  1069.40    41.80
   3   9  -6  1243.60    37.30
  -3  -9   6  1065.10    37.80
   3   9  -5  2154.80    47.40
  -3  -9   5  2005.90    42.30
   3   9  -4  2740.40    50.60
  -3  -9   4  2636.40    49.90
   3   9  -3  2980.30    55.30
  -3  -9   3  2716.10    49.40
   3   9  -2  4470.20    77.90
  -3  -9   2  4476.10    69.80
   3   9  -1  3735.40    53.30
  -3  -9   1  3638.40    60.80
   3   9   0  3239.90    47.40
  -3  -9   0  3170.10    56.60
   3   9   1  2870.90    43.30
  -3  -9  -1  2697.80    48.50
   3   9   2  1915.90    28.90
  -3  -9  -2  1841.60    38.30
   3   9   3  1432.20    24.80
  -3  -9  -3  1274.90    31.80
   3   9   4   687.30    19.40
  -3  -9  -4   918.40    28.80
   3   9   5   610.50    20.70
  -3  -9  -5   572.60    25.90
   3   9   6   286.40    15.40
  -3  -9  -6   290.00    24.20
   3   9   7   163.20    17.60
  -3  -9  -7   113.60    18.40
   3   9   8    34.60    11.50
  -3  -9  -8    32.60    16.70
   3  10  -8    80.50    12.50
  -3 -10   8    73.80    17.40
   3  10  -7    61.40    10.90
  -3 -10   7    57.10    14.80
   3  10  -6    29.20    10.30
  -3 -10   6    35.60    12.50
   3  10  -5    13.80     8.00
  -3 -10   5    13.60     9.40
   3  10  -4    45.10     7.20
  -3 -10   4    60.40     8.40
   3  10  -3   148.00     9.10
  -3 -10   3   201.00     9.20
   3  10  -2   435.80    13.70
  -3 -10   2   509.20    14.70
   3  10  -1   787.30    15.90
  -3 -10   1   724.30    20.00
   3  10   0  1319.30    25.70
  -3 -10   0  1072.30    26.60
   3  10   1  1050.20    22.60
  -3 -10  -1  1138.10    30.80
   3  10   2  1186.60    22.10
  -3 -10  -2  1217.60    33.10
   3  10   3  1146.80    28.00
  -3 -10  -3  1080.00    29.70
   3  10   4  1234.50    30.30
  -3 -10  -4  1174.20    35.60
   3  10   5  1458.70    43.40
  -3 -10  -5  1564.30    66.20
   3  10   6  1027.20    35.70
  -3 -10  -6   984.90    44.30
   3  10   7   616.80    38.90
  -3 -10  -7   655.90    37.70
   3  10   8   495.80    48.70
   3  11  -8   704.80    27.40
  -3 -11   8   615.50    45.40
   3  11  -7  1082.70    36.00
  -3 -11   7  1003.40    47.50
   3  11  -6  1790.50    48.30
  -3 -11   6  1932.10    63.10
   3  11  -5  1409.70    42.50
  -3 -11   5  1234.20    57.60
   3  11  -4  1862.50    50.10
  -3 -11   4  1698.60    48.50
   3  11  -3  2062.00    57.30
  -3 -11   3  1752.30    46.10
   3  11  -2  2641.50    62.00
  -3 -11   2  2199.60    44.10
   3  11  -1  2486.90    44.80
  -3 -11   1  2511.10    54.00
   3  11   0  2476.10    46.80
  -3 -11   0  2563.30    53.90
   3  11   1  1613.30    35.80
  -3 -11  -1  1651.20    47.60
   3  11   2  1190.90    26.80
  -3 -11  -2  1234.80    40.00
   3  11   3   774.90    20.90
  -3 -11  -3   848.30    27.50
   3  11   4   911.20    31.60
  -3 -11  -4   864.50    39.50
   3  11   5   378.50    18.80
  -3 -11  -5   510.60    35.20
   3  11   6   183.40    16.60
  -3 -11  -6   245.20    29.30
   3  11   7   103.90    17.30
  -3 -11  -7    75.90    20.30
   3  12  -7    28.30    11.10
  -3 -12   7     1.40    19.10
   3  12  -6    43.30     8.70
  -3 -12   6    55.80    22.50
   3  12  -5   116.50    12.70
  -3 -12   5    77.30    14.70
   3  12  -4    46.40    10.50
  -3 -12   4    62.40    15.00
   3  12  -3   143.50    12.40
  -3 -12   3   198.70    17.00
   3  12  -2   199.90    13.40
  -3 -12   2   271.00    15.80
   3  12  -1   503.20    16.40
  -3 -12   1   481.10    24.90
   3  12   0   613.30    19.20
  -3 -12   0   579.80    25.20
   3  12   1   925.90    27.30
  -3 -12  -1   716.90    34.50
   3  12   2   661.70    20.00
  -3 -12  -2   747.40    29.10
   3  12   3   989.80    30.60
  -3 -12  -3  1063.70    53.20
   3  12   4   964.60    35.90
  -3 -12  -4  1006.90    43.60
   3  12   5   877.20    35.40
  -3 -12  -5   810.90    48.30
   3  12   6   671.00    34.50
  -3 -12  -6   559.20    45.20
   3  12   7   697.20    76.80
   3  13  -7   857.80    33.50
  -3 -13   7   838.10    68.20
   3  13  -6   991.70    36.10
  -3 -13   6   951.30    55.90
   3  13  -5  1504.40    41.70
  -3 -13   5  1462.80    95.10
   3  13  -4  1313.20    40.40
  -3 -13   4  1192.40    57.60
   3  13  -3  1569.70    46.70
  -3 -13   3  1296.70    61.50
   3  13  -2  1401.20    46.20
  -3 -13   2  1267.50    55.30
   3  13  -1  1421.00    48.00
  -3 -13   1  1321.70    51.30
   3  13   0  1174.80    40.60
  -3 -13   0  1243.10    58.10
   3  13   1   958.40    38.30
  -3 -13  -1  1226.70    59.40
   3  13   2  1070.20    37.10
  -3 -13  -2  1027.30    43.10
   3  13   3   791.90    31.20
  -3 -13  -3   749.20    37.90
   3  13   4   430.30    20.90
  -3 -13  -4   475.50    30.20
   3  13   5   238.40    18.00
  -3 -13  -5   252.40    35.90
   3  13   6   140.40    16.90
  -3 -13  -6   133.10    24.90
   3  14  -6    18.70    11.50
  -3 -14   6    30.80    22.10
   3  14  -5    39.60    11.60
  -3 -14   5     8.60    27.50
   3  14  -4    79.40    13.10
  -3 -14   4    49.80    30.20
   3  14  -3   115.30    11.60
  -3 -14   3    99.10    27.00
   3  14  -2   166.80    14.90
  -3 -14   2   153.40    18.80
   3  14  -1   253.20    17.60
  -3 -14   1   214.60    23.20
   3  14   0   278.70    17.80
  -3 -14   0   285.50    28.10
   3  14   1   475.60    23.00
  -3 -14  -1   564.10    34.10
   3  14   2   640.10    30.70
  -3 -14  -2   763.40    38.20
   3  14   3   719.40    33.10
  -3 -14  -3   719.80    41.10
   3  14   4   658.10    31.00
  -3 -14  -4   679.00    40.00
   3  14   5   512.60    32.30
  -3 -14  -5   465.50    47.50
   3  15  -5   840.40    36.10
  -3 -15   5   806.70    58.90
   3  15  -4   918.40    35.70
  -3 -15   4   879.90    62.40
   3  15  -3   976.60    35.70
  -3 -15   3   821.40    56.90
   3  15  -2   932.70    35.90
  -3 -15   2   966.00    55.50
   3  15  -1   942.90    39.00
  -3 -15   1   920.50    60.50
   3  15   0   625.40    28.00
  -3 -15   0   602.50    42.80
   3  15   1   875.80    39.00
  -3 -15  -1   824.40    44.00
   3  15   2   578.30    31.20
  -3 -15  -2   582.80    34.20
   3  15   3   499.30    25.80
  -3 -15  -3   480.70    37.80
   3  15   4   351.00    22.20
  -3 -15  -4   262.70    32.80
   3  16  -4    80.90    10.70
  -3 -16   4    29.30    22.40
   3  16  -3   107.00    13.50
  -3 -16   3   124.00    26.60
   3  16  -2   202.90    16.60
  -3 -16   2   108.70    25.00
   3  16  -1   159.30    14.60
  -3 -16   1   169.50    29.50
   3  16   0   313.50    19.20
  -3 -16   0   339.70    26.70
   3  16   1   209.20    18.10
  -3 -16  -1   289.20    23.10
   3  16   2   364.10    23.30
  -3 -16  -2   357.70    32.80
   3  16   3   435.90    26.80
  -3 -16  -3   390.40    39.00
   3  17  -2   647.40    32.70
  -3 -17   2   580.70    54.90
   3  17  -1   691.40    32.50
  -3 -17   1   616.50    56.70
   3  17   0   740.00    34.70
  -3 -17   0   665.70    42.90
   3  17   1   373.20    23.90
  -3 -17  -1   372.30    36.30
   4   0 -10    40.30    13.20
   4   0  -9    91.10    10.80
   4   0  -8   287.00    15.10
   4   0  -7   754.40    23.20
   4   0  -6  1751.30    34.30
   4   0  -5  1310.30    25.20
   4   0  -4  1989.80    32.20
   4   0  -3  2692.70    38.20
   4   0  -2  4185.40    50.10
   4   0  -1  5890.60    67.40
   4   0   0  5559.50    68.00
   4   0   1  3450.50    50.40
   4   0   2  2643.20    42.80
   4   0   3  3009.00    47.10
   4   0   4  3191.60    57.10
   4   0   5  2546.60    58.10
   4   0   6  1722.00    44.70
   4   0   7  1729.30    52.60
   4   0   8   634.60    29.90
   4   1 -10   447.50    26.10
  -4  -1  10   409.50    32.70
   4   1  -9   648.80    28.30
  -4  -1   9   563.50    24.50
   4   1  -8  1299.80    37.70
  -4  -1   8  1135.10    35.20
   4   1  -7  1880.50    41.40
  -4  -1   7  1763.30    39.80
   4   1  -6  2368.10    43.90
  -4  -1   6  2374.60    48.50
   4   1  -5  1495.80    27.00
  -4  -1   5  1728.10    31.60
   4   1  -4  1376.30    24.10
  -4  -1   4  1401.90    24.30
   4   1  -3  1262.20    20.90
  -4  -1   3  1281.70    21.50
   4   1  -2  1358.10    21.10
  -4  -1   2  1365.00    20.50
   4   1  -1  1126.60    18.30
  -4  -1   1  1088.00    17.40
   4   1   0   607.70    11.40
  -4  -1   0   558.20    10.10
   4   1   1   552.80    11.90
  -4  -1  -1   847.10    14.70
   4   1   2    59.50     4.60
  -4  -1  -2    47.60     5.80
   4   1   3    10.00     4.50
  -4  -1  -3     6.20     5.00
   4   1   4    27.10     5.40
  -4  -1  -4    39.10     5.70
   4   1   5    93.90     8.20
  -4  -1  -5   143.80    10.90
   4   1   6   101.90     9.00
  -4  -1  -6   156.10    12.40
   4   1   7   245.60    12.50
  -4  -1  -7   203.70    18.00
   4   1   8   145.80    16.10
  -4  -1  -8   155.40    16.20
   4   2 -10    52.20    11.80
  -4  -2  10    44.10    13.20
   4   2  -9    98.30    12.70
  -4  -2   9   130.30    11.10
   4   2  -8   318.90    15.90
  -4  -2   8   386.70    18.20
   4   2  -7   614.10    18.90
  -4  -2   7   637.30    19.50
   4   2  -6   889.30    22.00
  -4  -2   6   911.90    22.60
   4   2  -5  2031.10    33.80
  -4  -2   5  1741.60    31.70
   4   2  -4  2063.00    32.20
  -4  -2   4  1915.70    29.90
   4   2  -3  2898.70    38.40
  -4  -2   3  2752.80    37.90
   4   2  -2  4295.90    57.00
  -4  -2   2  4346.70    52.50
   4   2  -1  4494.80    57.20
  -4  -2   1  4519.10    50.80
   4   2   0  4124.10    55.80
  -4  -2   0  4106.90    47.80
   4   2   1  4316.80    60.30
  -4  -2  -1  4098.30    53.20
   4   2   2  4410.50    58.20
  -4  -2  -2  4387.30    67.20
   4   2   3  3968.90    58.90
  -4  -2  -3  4016.30    71.60
   4   2   4  3182.60    55.60
  -4  -2  -4  3047.10    61.60
   4   2   5  2505.00    52.00
  -4  -2  -5  2447.60    69.70
   4   2   6  1833.10    43.40
  -4  -2  -6  1653.90    56.10
   4   2   7  1022.00    29.70
  -4  -2  -7  1124.30    57.60
   4   2   8   953.50    39.30
  -4  -2  -8   964.00    43.80
   4   3 -10   671.70    99.20
  -4  -3  10   658.10    98.30
   4   3  -9   827.50    29.00
  -4  -3   9   764.00    31.80
   4   3  -8  1079.10    36.00
  -4  -3   8  1000.50    37.50
   4   3  -7  1148.20    31.60
  -4  -3   7  1064.00    32.70
   4   3  -6   896.90    20.90
  -4  -3   6   849.10    20.80
   4   3  -5  1818.50    31.10
  -4  -3   5  1804.60    33.40
   4   3  -4  1518.00    24.40
  -4  -3   4  1707.70    29.70
   4   3  -3  1480.60    26.30
  -4  -3   3  1773.90    27.80
   4   3  -2  1356.30    23.20
  -4  -3   2  1215.90    21.60
   4   3  -1   679.00    13.50
  -4  -3   1   668.80    12.30
   4   3   0   384.90     8.60
  -4  -3   0   449.00     8.90
   4   3   1   260.90     8.00
  -4  -3  -1   321.40     8.50
   4   3   2   213.50     7.10
  -4  -3  -2   290.50     9.20
   4   3   3    14.10     3.90
  -4  -3  -3    17.50     3.30
   4   3   4   263.20     8.30
  -4  -3  -4   310.00    11.40
   4   3   5    83.80     6.10
  -4  -3  -5   114.20     7.40
   4   3   6   104.50     8.60
  -4  -3  -6   124.60    18.80
   4   3   7   105.10     9.50
  -4  -3  -7    87.70    17.00
   4   3   8   221.60    15.70
  -4  -3  -8   228.50    21.20
   4   4  -9   178.40    13.80
  -4  -4   9   147.20    18.70
   4   4  -8   241.60    15.10
  -4  -4   8   210.00    18.80
   4   4  -7   402.70    17.00
  -4  -4   7   412.60    20.20
   4   4  -6   644.60    16.60
  -4  -4   6   618.40    18.40
   4   4  -5  1167.50    26.10
  -4  -4   5  1215.80    24.20
   4   4  -4  2240.00    35.30
  -4  -4   4  2099.60    33.20
   4   4  -3  3557.30    57.00
  -4  -4   3  3445.20    44.40
   4   4  -2  2792.80    44.20
  -4  -4   2  2839.00    41.70
   4   4  -1  3222.30    44.70
  -4  -4   1  3210.00    40.50
   4   4   0  3687.50    49.80
  -4  -4   0  3573.40    55.60
   4   4   1  4600.00    65.00
  -4  -4  -1  4898.60    66.20
   4   4   2  5612.50    89.40
  -4  -4  -2  5573.20   110.30
   4   4   3  3559.40    53.20
  -4  -4  -3  4879.60    95.40
   4   4   4  3715.40    55.80
  -4  -4  -4  3754.30    85.00
   4   4   5  1848.90    38.50
  -4  -4  -5  1696.70    42.80
   4   4   6  1445.50    39.90
  -4  -4  -6  1483.90    60.80
   4   4   7  1043.60    31.30
  -4  -4  -7  1068.80    51.40
   4   4   8   628.90    30.60
  -4  -4  -8   661.50    40.50
   4   5  -9   988.50    35.80
  -4  -5   9   962.40    52.60
   4   5  -8   595.60    21.70
  -4  -5   8   641.10    32.70
   4   5  -7   876.10    28.50
  -4  -5   7   850.70    37.30
   4   5  -6  1192.00    29.70
  -4  -5   6  1025.40    25.20
   4   5  -5  1130.60    27.10
  -4  -5   5   830.80    20.00
   4   5  -4  1511.80    29.90
  -4  -5   4  1573.50    29.70
   4   5  -3  1542.70    30.30
  -4  -5   3  1630.60    29.20
   4   5  -2   730.00    16.80
  -4  -5   2   964.70    17.70
   4   5  -1   711.60    14.70
  -4  -5   1   588.80    12.10
   4   5   0   474.00    10.90
  -4  -5   0   370.90     9.90
   4   5   1   354.10     8.60
  -4  -5  -1   263.80     7.80
   4   5   2    82.10     6.00
  -4  -5  -2    94.80     6.00
   4   5   3    15.10     4.10
  -4  -5  -3    11.10     3.70
   4   5   4    72.90     5.60
  -4  -5  -4    37.40     5.00
   4   5   5    48.60     6.00
  -4  -5  -5    68.30     9.60
   4   5   6    81.20     8.20
  -4  -5  -6    79.90    18.10
   4   5   7   155.80    11.90
  -4  -5  -7   138.70    18.40
   4   5   8   103.60    14.40
  -4  -5  -8    86.10    20.00
   4   6  -9   174.10    13.30
  -4  -6   9    89.70    19.80
   4   6  -8   384.80    17.00
  -4  -6   8   256.40    20.50
   4   6  -7   424.20    19.40
  -4  -6   7   348.00    21.50
   4   6  -6   605.60    20.60
  -4  -6   6   661.00    23.80
   4   6  -5   992.80    26.00
  -4  -6   5  1034.20    24.90
   4   6  -4  1711.80    32.20
  -4  -6   4  1862.60    33.70
   4   6  -3  1936.20    38.10
  -4  -6   3  1987.00    32.10
   4   6  -2  3078.50    53.80
  -4  -6   2  2802.10    44.40
   4   6  -1  2949.60    44.40
  -4  -6   1  3045.60    47.20
   4   6   0  3791.80    51.50
  -4  -6   0  4062.90    57.80
   4   6   1  4206.50    60.80
  -4  -6  -1  4324.20    70.30
   4   6   2  3854.20    65.70
  -4  -6  -2  3512.10    67.70
   4   6   3  3071.10    48.80
  -4  -6  -3  2925.40    71.20
   4   6   4  2344.10    45.80
  -4  -6  -4  2261.00    74.60
   4   6   5  2266.60    50.30
  -4  -6  -5  2300.90    90.80
   4   6   6  1406.10    39.30
  -4  -6  -6  1331.70    63.40
   4   6   7   844.90    35.50
  -4  -6  -7   878.10    41.30
   4   6   8   475.70    28.90
  -4  -6  -8   431.50    33.70
   4   7  -9   385.50    22.80
  -4  -7   9   357.90    37.50
   4   7  -8  1212.00    37.60
  -4  -7   8  1180.10    50.00
   4   7  -7   894.40    30.00
  -4  -7   7   863.50    32.80
   4   7  -6  1147.80    33.80
  -4  -7   6   993.90    38.80
   4   7  -5  1439.80    36.30
  -4  -7   5  1159.80    34.50
   4   7  -4  1124.30    25.40
  -4  -7   4   983.80    23.10
   4   7  -3   675.30    17.90
  -4  -7   3   639.30    16.50
   4   7  -2   842.70    20.00
  -4  -7   2   820.10    19.00
   4   7  -1   579.50    13.00
  -4  -7   1   556.30    14.90
   4   7   0   491.60    12.70
  -4  -7   0   383.60    10.90
   4   7   1   216.80     7.10
  -4  -7  -1    69.30     5.40
   4   7   2    91.60     5.20
  -4  -7  -2    80.60     5.80
   4   7   3     3.20     2.30
  -4  -7  -3     7.30     3.10
   4   7   4    31.50     4.90
  -4  -7  -4    18.40     9.80
   4   7   5    92.60     8.80
  -4  -7  -5    64.90    33.70
   4   7   6   105.60    13.50
  -4  -7  -6    53.70    25.10
   4   7   7   108.20    12.50
  -4  -7  -7    79.90    19.60
   4   8  -8   196.50    14.60
  -4  -8   8   211.00    23.80
   4   8  -7   463.00    19.10
  -4  -8   7   355.20    30.60
   4   8  -6   831.90    30.80
  -4  -8   6   708.60    31.40
   4   8  -5  1084.30    29.70
  -4  -8   5   975.00    30.80
   4   8  -4  1344.20    32.30
  -4  -8   4  1325.10    31.20
   4   8  -3  1651.80    36.80
  -4  -8   3  1438.90    30.40
   4   8  -2  1965.50    39.30
  -4  -8   2  2124.60    42.80
   4   8  -1  2886.70    52.10
  -4  -8   1  2665.40    45.60
   4   8   0  3294.10    55.80
  -4  -8   0  3426.50    57.20
   4   8   1  2880.90    44.60
  -4  -8  -1  3074.50    57.90
   4   8   2  2134.30    39.40
  -4  -8  -2  1989.00    47.90
   4   8   3  1525.90    33.50
  -4  -8  -3  1502.10    39.40
   4   8   4  1484.70    34.70
  -4  -8  -4  1404.30    64.40
   4   8   5  1730.30    53.10
  -4  -8  -5  1880.50   123.10
   4   8   6  1389.30    44.70
  -4  -8  -6  1386.60    67.20
   4   8   7   905.40    40.20
  -4  -8  -7   801.60    54.30
   4   9  -8   512.70    23.30
  -4  -9   8   409.90    33.80
   4   9  -7   912.20    32.00
  -4  -9   7   935.70    47.10
   4   9  -6  1218.00    36.20
  -4  -9   6  1197.00    53.30
   4   9  -5   993.30    33.10
  -4  -9   5  1026.70    56.80
   4   9  -4  1010.80    29.00
  -4  -9   4   870.70    30.80
   4   9  -3   845.60    27.30
  -4  -9   3   656.70    21.30
   4   9  -2   691.50    18.70
  -4  -9   2   455.70    14.90
   4   9  -1   383.00    13.70
  -4  -9   1   436.80    13.00
   4   9   0   281.10    10.40
  -4  -9   0   343.60    11.90
   4   9   1   100.70     5.40
  -4  -9  -1   124.70     9.00
   4   9   2    42.10     4.70
  -4  -9  -2    35.00     6.70
   4   9   3     6.90     6.30
  -4  -9  -3    12.30     7.50
   4   9   4    31.20     7.70
  -4  -9  -4    27.30    14.20
   4   9   5    58.60    10.50
  -4  -9  -5    31.60    33.20
   4   9   6    74.80    11.50
  -4  -9  -6    70.30    21.40
   4   9   7   124.40    13.70
  -4  -9  -7   114.50    26.40
   4  10  -8    86.60    14.90
  -4 -10   8   118.50    27.10
   4  10  -7   294.90    17.30
  -4 -10   7   341.10    36.80
   4  10  -6   576.20    21.60
  -4 -10   6   443.00    26.40
   4  10  -5  1110.30    34.90
  -4 -10   5   915.80    55.80
   4  10  -4  1203.80    34.90
  -4 -10   4  1125.40    52.80
   4  10  -3  1639.40    43.10
  -4 -10   3  1578.00    43.90
   4  10  -2  1448.00    38.50
  -4 -10   2  1312.70    37.60
   4  10  -1  1872.70    46.80
  -4 -10   1  1698.30    44.30
   4  10   0  2057.40    45.00
  -4 -10   0  1994.10    50.30
   4  10   1  2174.80    53.10
  -4 -10  -1  2196.80    66.20
   4  10   2  1681.60    40.00
  -4 -10  -2  1589.50    39.70
   4  10   3  1570.50    51.60
  -4 -10  -3  1546.70    58.50
   4  10   4  1343.90    44.20
  -4 -10  -4  1348.70    54.00
   4  10   5   974.30    38.00
  -4 -10  -5   814.50    60.20
   4  10   6   970.30    39.70
  -4 -10  -6   869.90    58.70
   4  11  -7   570.00    25.10
  -4 -11   7   508.10    41.90
   4  11  -6   533.60    22.70
  -4 -11   6   556.70    44.20
   4  11  -5   867.90    27.50
  -4 -11   5   937.70    57.40
   4  11  -4   708.50    26.80
  -4 -11   4   674.40    34.40
   4  11  -3   780.30    32.20
  -4 -11   3   696.50    34.50
   4  11  -2   388.60    18.20
  -4 -11   2   437.90    23.60
   4  11  -1   353.00    15.10
  -4 -11   1   326.00    15.50
   4  11   0   173.20    12.20
  -4 -11   0   183.40    12.50
   4  11   1    85.40    13.70
  -4 -11  -1   128.00    18.60
   4  11   2    24.30    10.60
  -4 -11  -2    33.40    12.30
   4  11   3    42.90    11.60
  -4 -11  -3    36.90    16.10
   4  11   4    20.90    12.00
  -4 -11  -4    32.50    14.90
   4  11   5    37.10    14.20
  -4 -11  -5    77.50    28.80
   4  11   6    63.10    11.90
  -4 -11  -6    90.00    24.60
   4  12  -7   144.00    29.20
  -4 -12   7   146.80    51.10
   4  12  -6   312.80    18.00
  -4 -12   6   278.70    30.60
   4  12  -5   547.40    23.10
  -4 -12   5   506.40    35.20
   4  12  -4   828.90    30.00
  -4 -12   4   793.50    42.00
   4  12  -3   965.20    37.60
  -4 -12   3   885.70    45.10
   4  12  -2  1410.10    48.60
  -4 -12   2  1396.50    54.10
   4  12  -1  1395.40    46.10
  -4 -12   1  1269.10    48.70
   4  12   0  1307.60    43.80
  -4 -12   0  1281.40    59.50
   4  12   1  1474.50    48.00
  -4 -12  -1  1557.50    80.50
   4  12   2  1795.20    68.10
  -4 -12  -2  1784.70    69.90
   4  12   3  1462.90    56.70
  -4 -12  -3  1587.30    57.60
   4  12   4  1111.50    46.00
  -4 -12  -4  1065.30    47.80
   4  12   5   941.60    46.30
  -4 -12  -5   743.10    56.80
   4  13  -6   389.90    20.10
  -4 -13   6   421.80    37.00
   4  13  -5   434.20    21.70
  -4 -13   5   327.20    34.70
   4  13  -4   377.20    17.60
  -4 -13   4   432.10    32.90
   4  13  -3   344.80    19.10
  -4 -13   3   392.20    28.20
   4  13  -2   405.70    22.00
  -4 -13   2   363.10    24.40
   4  13  -1   244.70    18.10
  -4 -13   1   244.60    21.90
   4  13   0   102.80    12.50
  -4 -13   0   131.80    21.20
   4  13   1   170.10    15.50
  -4 -13  -1   111.10    24.40
   4  13   2     9.40    10.40
  -4 -13  -2    37.30    17.20
   4  13   3     2.10    10.40
  -4 -13  -3    -0.30    14.10
   4  13   4    21.10    12.10
  -4 -13  -4     8.60    13.60
   4  13   5    20.40    25.10
   4  14  -5   221.10    15.50
  -4 -14   5   192.60    25.70
   4  14  -4   413.90    22.50
  -4 -14   4   413.20    37.10
   4  14  -3   674.30    33.30
  -4 -14   3   632.70    38.20
   4  14  -2   888.30    40.20
  -4 -14   2   874.10    44.20
   4  14  -1  1013.70    39.50
  -4 -14   1   976.30    45.70
   4  14   0  1128.40    43.30
  -4 -14   0  1058.80    58.10
   4  14   1   898.30    36.40
  -4 -14  -1   910.00    42.50
   4  14   2   898.70    43.60
  -4 -14  -2   880.00    37.70
   4  14   3  1141.40    46.10
  -4 -14  -3  1037.00    49.20
   4  14   4   940.10    60.50
  -4 -14  -4   735.80   138.50
   4  15  -4   251.00    33.20
  -4 -15   4   140.30    40.60
   4  15  -3   275.00    19.90
  -4 -15   3   203.40    27.80
   4  15  -2   188.70    17.50
  -4 -15   2   155.50    25.40
   4  15  -1   175.70    18.10
  -4 -15   1   111.90    26.30
   4  15   0   162.10    14.70
  -4 -15   0   119.50    20.50
   4  15   1    26.00    13.40
  -4 -15  -1    42.10    15.00
   4  15   2    36.30    12.30
  -4 -15  -2    58.60    16.60
  -4 -16   2   541.70    90.00
   4  16  -1   628.40    36.20
  -4 -16   1   562.90   126.90
   4  16   0   494.10    40.30
   5   0  -9   557.90    34.40
   5   0  -8   946.60    34.00
   5   0  -7  1240.60    40.40
   5   0  -6  1356.40    40.20
   5   0  -5  2776.20    56.50
   5   0  -4  2444.40    44.80
   5   0  -3  2784.20    44.30
   5   0  -2  2609.70    40.10
   5   0  -1  2177.70    32.60
   5   0   0  2368.20    36.50
   5   0   1  2614.40    54.00
   5   0   2  3452.10    61.10
   5   0   3  2082.70    42.50
   5   0   4  1189.00    35.30
   5   0   5   607.20    21.90
   5   0   6   388.00    21.30
   5   0   7   207.30    17.50
   5   1  -9   124.70    15.70
  -5  -1   9   149.60    18.20
   5   1  -8   110.70    12.20
  -5  -1   8   136.20    13.30
   5   1  -7   128.20    12.60
  -5  -1   7   117.10    12.00
   5   1  -6    56.40    10.30
  -5  -1   6    69.60    10.00
   5   1  -5    76.70     7.70
  -5  -1   5    67.60     7.30
   5   1  -4    98.00     6.30
  -5  -1   4    96.50     6.50
   5   1  -3    99.70     5.60
  -5  -1   3    66.90     5.80
   5   1  -2    97.90     5.80
  -5  -1   2   114.20     5.30
   5   1  -1   196.80     6.30
  -5  -1   1   254.60     7.20
   5   1   0   383.50    10.50
  -5  -1   0   444.10    10.20
   5   1   1   760.50    20.00
  -5  -1  -1   982.70    19.70
   5   1   2  1363.60    26.60
  -5  -1  -2  1182.90    26.70
   5   1   3  1321.70    29.80
  -5  -1  -3  1171.30    29.20
   5   1   4  1136.40    34.50
  -5  -1  -4  1165.80    36.70
   5   1   5   821.00    27.40
  -5  -1  -5   831.30    30.90
   5   1   6   825.80    27.30
  -5  -1  -6   758.90    31.70
   5   1   7   629.60    30.00
  -5  -1  -7   672.80    32.70
   5   2  -9   599.00    27.60
  -5  -2   9   535.50    29.00
   5   2  -8   778.50    34.50
  -5  -2   8   722.30    33.60
   5   2  -7  1360.10    47.60
  -5  -2   7  1339.20    44.70
   5   2  -6  1994.00    58.50
  -5  -2   6  1885.70    45.30
   5   2  -5  1731.20    36.50
  -5  -2   5  1711.20    41.40
   5   2  -4  2618.00    45.40
  -5  -2   4  2495.60    48.20
   5   2  -3  3153.00    51.60
  -5  -2   3  3089.90    53.60
   5   2  -2  3062.60    47.50
  -5  -2   2  3174.70    48.10
   5   2  -1  3044.50    45.90
  -5  -2   1  2974.80    45.40
   5   2   0  2803.10    44.00
  -5  -2   0  2620.70    41.00
   5   2   1  2890.40    54.30
  -5  -2  -1  2557.50    42.50
   5   2   2  1923.80    36.60
  -5  -2  -2  1980.90    43.70
   5   2   3  1867.70    42.50
  -5  -2  -3  1633.70    43.50
   5   2   4  1209.70    34.40
  -5  -2  -4  1330.00    41.60
   5   2   5   589.70    20.30
  -5  -2  -5   557.80    23.70
   5   2   6   366.60    17.50
  -5  -2  -6   364.60    23.50
   5   2   7   244.50    16.90
  -5  -2  -7   211.30    18.20
   5   3  -9   113.90    15.40
  -5  -3   9   142.20    30.10
   5   3  -8   132.30    14.20
  -5  -3   8   182.30    18.90
   5   3  -7   127.60    12.10
  -5  -3   7   124.70    13.70
   5   3  -6   105.20     8.90
  -5  -3   6    85.90     9.60
   5   3  -5    26.60     5.70
  -5  -3   5    34.60     5.20
   5   3  -4    41.00     5.10
  -5  -3   4    31.40     4.40
   5   3  -3    73.30     5.30
  -5  -3   3    48.20     5.50
   5   3  -2   242.30     8.70
  -5  -3   2   196.80     7.40
   5   3  -1   384.50    10.50
  -5  -3   1   583.60    14.00
   5   3   0   504.70    11.40
  -5  -3   0   688.70    16.20
   5   3   1   654.00    16.00
  -5  -3  -1   630.00    15.70
   5   3   2   544.40    14.20
  -5  -3  -2   530.00    13.20
   5   3   3   963.00    25.80
  -5  -3  -3   934.50    37.30
   5   3   4  1121.70    29.80
  -5  -3  -4   986.80    36.70
   5   3   5   864.70    27.90
  -5  -3  -5   970.50    44.70
   5   3   6   716.50    25.00
  -5  -3  -6   716.00    40.40
   5   3   7   675.90    31.00
  -5  -3  -7   674.10    43.00
   5   4  -8  1003.60    35.30
  -5  -4   8   937.50    43.50
   5   4  -7  1196.60    43.40
  -5  -4   7  1220.40    43.10
   5   4  -6  1568.40    39.30
  -5  -4   6  1713.70    51.30
   5   4  -5  2035.80    46.10
  -5  -4   5  1797.80    40.20
   5   4  -4  2340.60    47.40
  -5  -4   4  2333.20    46.70
   5   4  -3  2911.50    49.00
  -5  -4   3  2811.30    47.60
   5   4  -2  3942.40    69.50
  -5  -4   2  4149.50    72.70
   5   4  -1  4236.60    83.30
  -5  -4   1  3904.60    72.30
   5   4   0  2996.60    55.20
  -5  -4   0  2973.50    58.30
   5   4   1  1848.80    40.90
  -5  -4  -1  1918.90    46.70
   5   4   2  1423.90    30.10
  -5  -4  -2  1323.20    32.10
   5   4   3  1198.70    26.30
  -5  -4  -3  1174.50    45.30
   5   4   4   892.10    25.20
  -5  -4  -4   811.40    33.60
   5   4   5   789.10    25.50
  -5  -4  -5   748.30    44.50
   5   4   6   305.70    18.30
  -5  -4  -6   320.30    32.60
   5   4   7   150.70    18.10
  -5  -4  -7   157.70    27.10
   5   5  -8   206.40    17.20
  -5  -5   8   191.10    24.60
   5   5  -7    86.70    12.00
  -5  -5   7    84.40    19.70
   5   5  -6    46.20     7.50
  -5  -5   6    48.60    11.00
   5   5  -5    36.20     7.00
  -5  -5   5    40.00     9.50
   5   5  -4     5.60     5.40
  -5  -5   4     5.90     5.50
   5   5  -3    40.40     6.20
  -5  -5   3    42.40     4.40
   5   5  -2   112.40     7.00
  -5  -5   2   191.20     8.90
   5   5  -1   359.30    11.10
  -5  -5   1   310.90    10.40
   5   5   0   404.80    11.40
  -5  -5   0   417.20    11.90
   5   5   1   585.80    16.50
  -5  -5  -1   456.30    15.70
   5   5   2   635.00    18.50
  -5  -5  -2   531.90    18.30
   5   5   3   621.30    17.00
  -5  -5  -3   574.10    31.60
   5   5   4   644.20    19.50
  -5  -5  -4   683.50    37.20
   5   5   5  1111.40    34.50
  -5  -5  -5  1046.30    61.40
   5   5   6   665.60    31.10
  -5  -5  -6   666.50    47.20
   5   5   7   346.00    22.20
  -5  -5  -7   347.90    35.10
   5   6  -8   496.70    27.40
  -5  -6   8   569.80    42.90
   5   6  -7  1029.00    37.90
  -5  -6   7   890.30    45.80
   5   6  -6  1348.20    44.30
  -5  -6   6  1248.20    52.00
   5   6  -5  2047.90    58.60
  -5  -6   5  1862.40    60.10
   5   6  -4  2415.70    57.90
  -5  -6   4  2273.30    49.60
   5   6  -3  2711.80    61.50
  -5  -6   3  2488.50    52.10
   5   6  -2  2598.50    54.90
  -5  -6   2  2564.50    56.00
   5   6  -1  2592.80    60.00
  -5  -6   1  2479.60    55.70
   5   6   0  2365.30    47.10
  -5  -6   0  2549.90    51.60
   5   6   1  1899.50    42.30
  -5  -6  -1  1915.70    51.80
   5   6   2  1348.50    31.80
  -5  -6  -2  1399.00    41.20
   5   6   3  1024.50    28.80
  -5  -6  -3  1021.40    46.00
   5   6   4   934.90    26.80
  -5  -6  -4   771.90    64.00
   5   6   5   438.50    19.90
  -5  -6  -5   486.00    34.90
   5   6   6   274.10    18.40
  -5  -6  -6   321.80    30.30
   5   7  -8    31.90    11.10
  -5  -7   8    30.20    20.70
   5   7  -7   101.90    11.90
  -5  -7   7    56.70    20.80
   5   7  -6    50.30    13.30
  -5  -7   6    65.80    17.60
   5   7  -5    21.80    10.30
  -5  -7   5     9.20    16.70
   5   7  -4    10.70     6.90
  -5  -7   4    -4.20    12.90
   5   7  -3    20.30     7.20
  -5  -7   3    28.90     7.40
   5   7  -2    71.40     8.10
  -5  -7   2    66.70     7.70
   5   7  -1   221.10    12.60
  -5  -7   1   165.70     9.10
   5   7   0   477.30    17.10
  -5  -7   0   379.00    15.90
   5   7   1   596.50    22.60
  -5  -7  -1   519.70    23.40
   5   7   2   613.40    19.20
  -5  -7  -2   495.70    19.40
   5   7   3   591.80    21.60
  -5  -7  -3   624.00    38.40
   5   7   4   771.40    25.30
  -5  -7  -4   855.70    65.90
   5   7   5   470.80    19.80
  -5  -7  -5   447.60    36.20
   5   7   6   624.70    33.20
  -5  -7  -6   628.20    48.10
   5   8  -7   686.90    30.20
  -5  -8   7   671.70    42.70
   5   8  -6  1076.70    40.80
  -5  -8   6   979.60    55.90
   5   8  -5  1721.80    58.00
  -5  -8   5  1687.80    72.00
   5   8  -4  1897.50    58.20
  -5  -8   4  1855.20    70.20
   5   8  -3  1692.20    46.70
  -5  -8   3  1796.90    69.00
   5   8  -2  1196.30    34.30
  -5  -8   2  1264.20    33.80
   5   8  -1  1636.10    45.90
  -5  -8   1  1389.20    36.20
   5   8   0  1741.50    45.00
  -5  -8   0  1901.50    52.90
   5   8   1  1946.10    56.90
  -5  -8  -1  2071.60    81.00
   5   8   2  1539.80    43.40
  -5  -8  -2  1567.20    61.90
   5   8   3   981.40    32.10
  -5  -8  -3  1060.40    55.00
   5   8   4   640.40    28.90
  -5  -8  -4   734.30    63.00
   5   8   5   463.90    27.00
  -5  -8  -5   429.10    48.40
   5   8   6   260.60    22.50
  -5  -8  -6   191.80    26.90
   5   9  -7    43.30    12.60
  -5  -9   7    67.90    17.20
   5   9  -6    65.50    11.10
  -5  -9   6    27.30    18.30
   5   9  -5    18.10    11.00
  -5  -9   5    30.30    15.70
   5   9  -4     3.10     9.60
  -5  -9   4     5.20    16.50
   5   9  -3     1.40     7.40
  -5  -9   3    17.90    14.30
   5   9  -2   201.00    15.60
  -5  -9   2   125.70    16.50
   5   9  -1    87.90    13.70
  -5  -9   1   118.80    17.60
   5   9   0   269.20    15.80
  -5  -9   0   257.40    20.10
   5   9   1   427.30    21.80
  -5  -9  -1   434.50    29.90
   5   9   2   537.30    21.10
  -5  -9  -2   602.20    31.10
   5   9   3   516.70    22.30
  -5  -9  -3   550.90    36.30
   5   9   4   557.60    25.70
  -5  -9  -4   465.60    53.70
   5   9   5   673.30    40.20
  -5  -9  -5   577.80    53.80
   5  10  -6   889.50    41.20
  -5 -10   6   794.20    47.00
   5  10  -5  1166.70    45.10
  -5 -10   5  1118.50    59.30
   5  10  -4  1189.60    45.40
  -5 -10   4  1137.90    51.90
   5  10  -3   997.70    45.20
  -5 -10   3  1039.00    44.40
   5  10  -2  1315.60    47.40
  -5 -10   2  1341.00    53.20
   5  10  -1  1383.00    47.70
  -5 -10   1  1437.20    55.30
   5  10   0  1360.90    42.10
  -5 -10   0  1364.20    55.30
   5  10   1  1430.00    45.40
  -5 -10  -1  1301.50    54.80
   5  10   2   955.30    36.80
  -5 -10  -2  1046.00    47.90
   5  10   3   742.80    34.00
  -5 -10  -3   790.80    46.30
   5  10   4   494.80    27.80
  -5 -10  -4   470.80    52.30
   5  10   5   395.00    25.80
  -5 -10  -5   374.10    49.20
   5  11  -6    55.20    13.80
  -5 -11   6    67.80    21.70
   5  11  -5     6.80    12.60
  -5 -11   5    23.70    16.50
   5  11  -4    21.10    11.30
  -5 -11   4    36.40    15.10
   5  11  -3    60.90    14.20
  -5 -11   3    64.60    15.90
   5  11  -2    17.40    11.70
  -5 -11   2    53.80    16.10
   5  11  -1   152.20    16.30
  -5 -11   1   136.30    16.80
   5  11   0   160.50    14.70
  -5 -11   0   214.30    24.30
   5  11   1   229.50    16.10
  -5 -11  -1   374.50    29.00
   5  11   2   307.80    19.00
  -5 -11  -2   336.80    30.60
   5  11   3   420.50    23.50
  -5 -11  -3   415.00    32.30
   5  11   4   385.90    23.80
  -5 -11  -4   406.10    51.60
   5  12  -5   611.30    32.40
  -5 -12   5   523.10    29.90
   5  12  -4   821.60    38.00
  -5 -12   4   944.00    48.60
   5  12  -3  1190.20    50.20
  -5 -12   3  1070.60    48.90
   5  12  -2  1208.60    49.20
  -5 -12   2  1191.80    51.70
   5  12  -1  1057.20    45.10
  -5 -12   1  1036.30    45.60
   5  12   0   990.50    37.00
  -5 -12   0  1057.00    54.60
   5  12   1   682.20    31.20
  -5 -12  -1   864.20    52.80
   5  12   2   635.70    30.30
  -5 -12  -2   554.00    36.60
   5  12   3   486.40    28.20
  -5 -12  -3   496.60    33.70
   5  13  -4    20.00    10.90
  -5 -13   4    15.80    14.90
   5  13  -3    11.00    12.10
  -5 -13   3   -11.40    16.40
   5  13  -2    64.30    14.10
  -5 -13   2    33.60    15.50
   5  13  -1    70.80    14.00
  -5 -13   1    62.80    16.20
   5  13   0    86.20    16.80
  -5 -13   0   137.30    26.90
   5  13   1   195.00    19.30
  -5 -13  -1   167.70    21.30
   5  13   2   186.00    16.50
  -5 -13  -2   239.20    29.10
   5  14  -2   856.50    45.20
  -5 -14   2   827.10    56.00
   5  14  -1   726.80    35.30
  -5 -14   1   671.40    46.80
   5  14   0   498.30    29.20
  -5 -14   0   518.80    42.30
   5  14   1   460.00    68.20
   6   0  -7   731.10    36.90
   6   0  -6   795.40    34.30
   6   0  -5   701.10    28.50
   6   0  -4  1078.70    34.30
   6   0  -3  1282.00    39.20
   6   0  -2  1078.60    24.00
   6   0  -1   679.20    21.20
   6   0   0   432.10    18.40
   6   0   1   343.00    16.50
   6   0   2   139.60    11.90
   6   0   3    80.30    11.10
   6   0   4     9.50     9.00
   6   0   5     0.80    12.70
   6   1  -7    98.30    14.20
  -6  -1   7   134.10    16.50
   6   1  -6   226.00    15.80
  -6  -1   6   275.10    20.20
   6   1  -5   436.60    18.70
  -6  -1   5   337.90    18.30
   6   1  -4   688.30    24.00
  -6  -1   4   798.50    30.00
   6   1  -3  1287.80    35.80
  -6  -1   3  1323.40    39.20
   6   1  -2  1588.60    37.20
  -6  -1   2  1479.50    37.70
   6   1  -1  1764.30    48.70
  -6  -1   1  1725.90    49.00
   6   1   0  1627.70    44.60
  -6  -1   0  1587.50    42.60
   6   1   1  1990.80    50.90
  -6  -1  -1  1781.40    52.60
   6   1   2  1827.40    46.60
  -6  -1  -2  1775.30    54.00
   6   1   3  2008.90    61.00
  -6  -1  -3  2094.10    69.50
   6   1   4  1251.80    40.90
  -6  -1  -4  1245.50    42.60
   6   1   5   789.00    32.30
  -6  -1  -5   786.80    54.40
   6   2  -7   671.60    37.90
  -6  -2   7   676.50    41.40
   6   2  -6   728.00    28.30
  -6  -2   6   690.50    33.10
   6   2  -5   942.60    29.90
  -6  -2   5   974.60    43.30
   6   2  -4  1160.60    34.00
  -6  -2   4   941.80    37.90
   6   2  -3  1079.10    30.70
  -6  -2   3  1098.60    43.80
   6   2  -2   912.20    27.30
  -6  -2   2   891.00    39.10
   6   2  -1   682.00    25.40
  -6  -2   1   621.10    20.90
   6   2   0   409.40    15.80
  -6  -2   0   405.50    22.50
   6   2   1   247.20    11.90
  -6  -2  -1   326.60    22.20
   6   2   2   205.80    11.90
  -6  -2  -2   160.00    15.80
   6   2   3    64.30     9.40
  -6  -2  -3    49.10     9.80
   6   2   4     9.00     9.30
  -6  -2  -4     7.70    10.20
   6   2   5    16.80    13.10
  -6  -2  -5   -12.20    12.10
   6   3  -7   165.40    15.00
  -6  -3   7   115.70    17.20
   6   3  -6   217.50    15.10
  -6  -3   6   221.20    22.80
   6   3  -5   456.50    18.70
  -6  -3   5   554.90    31.60
   6   3  -4   766.20    24.50
  -6  -3   4   673.70    35.90
   6   3  -3   996.00    30.70
  -6  -3   3   889.20    41.00
   6   3  -2  1122.10    38.80
  -6  -3   2  1170.70    43.30
   6   3  -1  1461.50    42.80
  -6  -3   1  1316.50    45.30
   6   3   0  1619.00    40.60
  -6  -3   0  1542.00    55.70
   6   3   1  1570.40    40.00
  -6  -3  -1  1459.40    54.30
   6   3   2  2165.50    52.00
  -6  -3  -2  2053.70    83.30
   6   3   3  1235.80    35.90
  -6  -3  -3  1284.50    50.90
   6   3   4  1067.00    41.20
  -6  -3  -4  1010.10    52.60
   6   3   5   825.60    35.70
  -6  -3  -5   770.00    51.70
   6   4  -7   772.60    32.40
  -6  -4   7   742.60    42.80
   6   4  -6   915.90    37.30
  -6  -4   6   841.20    44.00
   6   4  -5  1014.70    32.10
  -6  -4   5   903.20    44.60
   6   4  -4   865.80    27.60
  -6  -4   4   897.20    47.80
   6   4  -3   768.00    27.60
  -6  -4   3   710.20    36.20
   6   4  -2   663.70    26.10
  -6  -4   2   555.30    32.90
   6   4  -1   460.20    20.10
  -6  -4   1   461.70    22.80
   6   4   0   438.10    20.30
  -6  -4   0   465.20    26.20
   6   4   1   314.90    14.10
  -6  -4  -1   275.10    17.90
   6   4   2    98.80     8.00
  -6  -4  -2   177.30    17.80
   6   4   3    33.60    10.00
  -6  -4  -3    56.40    14.00
   6   4   4    19.60    11.30
  -6  -4  -4    24.40    18.20
   6   4   5    10.10    12.20
  -6  -4  -5    -3.60    20.10
   6   5  -7   116.10    15.40
  -6  -5   7   140.80    22.20
   6   5  -6   301.10    21.70
  -6  -5   6   260.90    24.50
   6   5  -5   423.10    21.50
  -6  -5   5   411.50    27.40
   6   5  -4   625.80    23.50
  -6  -5   4   527.50    30.80
   6   5  -3   756.80    27.70
  -6  -5   3   700.10    38.50
   6   5  -2  1024.00    33.70
  -6  -5   2   866.90    49.90
   6   5  -1  1093.70    37.30
  -6  -5   1  1126.50    54.60
   6   5   0  1537.20    41.70
  -6  -5   0  1656.80    70.50
   6   5   1  1557.80    44.20
  -6  -5  -1  1631.90    71.60
   6   5   2  1077.20    38.00
  -6  -5  -2   987.40    42.00
   6   5   3  1089.00    37.90
  -6  -5  -3  1179.70    79.50
   6   5   4  1076.80    41.60
  -6  -5  -4  1233.20    72.80
   6   5   5   780.90    47.70
  -6  -5  -5   649.40    39.90
  -6  -6   7   743.10   120.10
   6   6  -6   864.40    39.70
  -6  -6   6   761.00    42.50
   6   6  -5   787.90    30.80
  -6  -6   5   826.30    48.40
   6   6  -4   697.60    26.40
  -6  -6   4   635.40    42.70
   6   6  -3   604.30    24.30
  -6  -6   3   519.40    32.90
   6   6  -2   467.20    21.70
  -6  -6   2   617.60    52.90
   6   6  -1   711.30    26.90
  -6  -6   1   587.60    38.00
   6   6   0   380.60    20.20
  -6  -6   0   369.10    27.90
   6   6   1   220.30    16.30
  -6  -6  -1   239.20    23.00
   6   6   2    92.20     9.30
  -6  -6  -2    76.10    15.20
   6   6   3    57.50    10.30
  -6  -6  -3    24.30    22.60
   6   6   4    18.10    14.10
  -6  -6  -4    -6.40    30.10
   6   7  -6   227.10    19.40
  -6  -7   6   192.30    32.20
   6   7  -5   399.10    18.50
  -6  -7   5   424.90    51.40
   6   7  -4   513.80    22.40
  -6  -7   4   473.30    50.40
   6   7  -3   596.10    27.50
  -6  -7   3   607.10    50.40
   6   7  -2   861.10    35.00
  -6  -7   2   875.10    50.40
   6   7  -1  1409.90    48.40
  -6  -7   1  1342.70    66.10
   6   7   0  1250.70    42.40
  -6  -7   0  1345.30    70.00
   6   7   1  1168.60    44.20
  -6  -7  -1  1089.00    54.20
   6   7   2  1059.80    33.60
  -6  -7  -2  1012.80    58.50
   6   7   3   955.30    40.50
  -6  -7  -3   882.60    75.40
   6   7   4   780.30    36.70
  -6  -7  -4   776.20    68.90
   6   8  -6   431.00    76.00
   6   8  -5   612.30    28.40
  -6  -8   5   593.00    56.70
   6   8  -4   592.10    28.40
  -6  -8   4   690.10    61.00
   6   8  -3   561.00    28.20
  -6  -8   3   575.00    53.90
   6   8  -2   687.30    30.90
  -6  -8   2   574.60    37.20
   6   8  -1   431.20    24.20
  -6  -8   1   493.30    39.60
   6   8   0   324.80    23.00
  -6  -8   0   302.10    28.40
   6   8   1   191.60    17.50
  -6  -8  -1   168.40    26.80
   6   8   2    99.40    13.30
  -6  -8  -2    68.20    20.00
   6   8   3    46.90    12.80
  -6  -8  -3    45.00    23.60
   6   8   4    30.80    12.40
  -6  -8  -4   100.60    44.50
   6   9  -5   276.40    22.30
  -6  -9   5   254.00    34.90
   6   9  -4   457.50    23.70
  -6  -9   4   382.20    44.10
   6   9  -3   678.10    34.60
  -6  -9   3   638.10    47.30
   6   9  -2   650.30    30.30
  -6  -9   2   828.20    50.90
   6   9  -1   871.60    38.60
  -6  -9   1   788.80    48.20
   6   9   0  1064.30    42.80
  -6  -9   0  1035.40    56.00
   6   9   1  1031.80    42.60
  -6  -9  -1  1091.40    74.30
   6   9   2   860.80    35.90
  -6  -9  -2   864.10    57.90
   6   9   3   852.90    47.30
  -6  -9  -3   905.80    69.30
   6  10  -4   592.40    27.00
  -6 -10   4   627.60    38.90
   6  10  -3   595.10    32.00
  -6 -10   3   537.50    36.70
   6  10  -2   385.60    25.00
  -6 -10   2   377.70    27.50
   6  10  -1   261.40    20.10
  -6 -10   1   231.40    20.90
   6  10   0   229.30    17.60
  -6 -10   0   245.60    27.20
   6  10   1   150.10    17.10
  -6 -10  -1   131.40    33.10
   6  10   2   101.90    14.70
  -6 -10  -2    81.50    20.00
   6  11  -3   419.10    26.80
  -6 -11   3   369.70    45.60
   6  11  -2   647.30    33.20
  -6 -11   2   545.70    38.40
   6  11  -1   503.00    32.80
  -6 -11   1   499.90    34.30
   6  11   0   573.90    30.70
  -6 -11   0   586.70    44.80
   6  11   1   612.70    34.50
  -6 -11  -1   681.70    59.60
   7   0  -5    66.90    13.70
   7   0  -4    28.20    13.40
   7   0  -3    17.50    10.20
   7   0  -2     2.60     8.00
   7   0  -1    20.20    11.50
   7   0   0    48.70    11.60
   7   0   1    69.90    12.40
   7   0   2   183.30    20.30
   7   0   3   110.70    19.70
   7   1  -5   639.30    37.70
  -7  -1   5   816.60    43.90
   7   1  -4  1099.70    44.40
  -7  -1   4  1182.90    53.20
   7   1  -3  1385.20    53.30
  -7  -1   3  1314.90    55.20
   7   1  -2  1377.90    45.30
  -7  -1   2  1439.80    63.30
   7   1  -1  1137.60    48.60
  -7  -1   1  1121.50    47.90
   7   1   0  1016.90    43.40
  -7  -1   0  1051.70    50.70
   7   1   1   809.40    31.70
  -7  -1  -1   886.20    46.80
   7   1   2   844.80    35.40
  -7  -1  -2   768.80    39.00
   7   1   3   546.30    37.40
  -7  -1  -3   476.70    37.50
   7   2  -5    65.40    14.90
  -7  -2   5    40.50    13.90
   7   2  -4    24.10    11.80
  -7  -2   4    34.00    12.90
   7   2  -3    17.60     8.30
  -7  -2   3    15.50    12.80
   7   2  -2     9.30     9.10
  -7  -2   2    16.00     9.60
   7   2  -1    34.90    14.00
  -7  -2   1     9.00     9.70
   7   2   0    80.90    13.90
  -7  -2   0   100.00    16.90
   7   2   1   119.70    14.60
  -7  -2  -1   121.60    17.40
   7   2   2    97.30    13.20
  -7  -2  -2   105.40    13.90
   7   2   3   194.10    17.60
  -7  -2  -3   150.60    21.90
   7   3  -5   684.70    40.30
  -7  -3   5   697.20    40.70
   7   3  -4   724.20    32.40
  -7  -3   4   699.90    41.10
   7   3  -3  1098.70    43.00
  -7  -3   3  1017.30    46.70
   7   3  -2  1228.90    46.80
  -7  -3   2  1167.10    76.70
   7   3  -1  1309.30    53.90
  -7  -3   1  1299.30    87.00
   7   3   0  1199.30    51.10
  -7  -3   0  1159.80    53.50
   7   3   1  1184.90    46.10
  -7  -3  -1  1172.50    87.10
   7   3   2   688.90    33.80
  -7  -3  -2   617.90    35.80
   7   3   3   687.90    56.20
  -7  -3  -3   718.70   105.90
   7   4  -5    59.00    30.70
   7   4  -4    32.80    11.20
  -7  -4   4     3.30    21.40
   7   4  -3     4.90     9.80
  -7  -4   3    21.20    13.60
   7   4  -2    -5.00     8.50
  -7  -4   2    17.60    18.20
   7   4  -1     6.90     8.80
  -7  -4   1    39.90    18.20
   7   4   0    79.80    14.10
  -7  -4   0    38.80    15.60
   7   4   1   150.70    16.90
  -7  -4  -1   106.00    18.90
   7   4   2   160.20    18.40
  -7  -4  -2   161.60    26.90
   7   5  -4   828.10    31.40
  -7  -5   4   791.40    57.50
   7   5  -3   750.30    31.70
  -7  -5   3   824.20    55.60
   7   5  -2   865.00    31.10
  -7  -5   2   734.60    51.80
   7   5  -1  1198.20    41.40
  -7  -5   1  1167.40    57.10
   7   5   0  1111.90    46.20
  -7  -5   0  1141.40    60.90
   7   5   1   946.50    40.20
  -7  -5  -1   935.10    54.90
   7   5   2   859.80    38.50
  -7  -5  -2   761.90    66.30
   7   6  -4     4.40    33.20
   7   6  -3    -0.30     9.60
  -7  -6   3   -23.90    23.80
   7   6  -2    42.80     9.90
  -7  -6   2    31.10    16.20
   7   6  -1    16.80    11.20
  -7  -6   1    -3.30    15.50
   7   6   0    39.90    10.40
  -7  -6   0    54.20    18.50
   7   6   1   103.40    13.50
  -7  -6  -1    74.40    25.10
   7   7  -3   709.60    76.60
   7   7  -2   891.10    34.30
  -7  -7   2   887.00    58.10
   7   7  -1   648.70    27.80
  -7  -7   1   641.20    47.30
   7   7   0   953.60    44.00
  -7  -7   0   926.20    59.10
;
_shelx_hkl_checksum              84954
loop_
_space_group_symop_operation_xyz
'x, y, z'
'-x, y+1/2, -z'
loop_
_atom_site_label
_atom_site_type_symbol
_atom_site_fract_x
_atom_site_fract_y
_atom_site_fract_z
_atom_site_U_iso_or_equiv
_atom_site_adp_type
_atom_site_occupancy
_atom_site_site_symmetry_order
_atom_site_calc_flag
_atom_site_refinement_flags_posn
_atom_site_refinement_flags_adp
U1 U 0.38778(3) 0.89387(6) 0.98475(2) 0.01878(8) Uani 1 1 d . .
O1 O 0.3024(12) 0.8252(5) 0.7886(9) 0.0333(13) Uani 1 1 d . .
O2 O 0.4706(13) 0.9632(5) 1.1797(8) 0.0328(13) Uani 1 1 d . .
O3 O 0.0505(11) 1.0042(4) 0.9173(7) 0.0239(10) Uani 1 1 d . .
O4 O -0.3652(12) 1.0020(5) 0.8279(9) 0.0310(13) Uani 1 1 d . .
O5 O 0.2719(11) 1.2864(5) 0.9466(8) 0.0276(12) Uani 1 1 d . .
O6 O -0.1418(12) 1.2825(6) 0.8629(10) 0.0354(14) Uani 1 1 d . .
C1 C -0.0977(14) 1.1042(5) 0.6637(9) 0.0177(12) Uani 1 1 d . .
H1 H -0.2564 1.1462 0.6343 0.021 Uiso 1 1 calc R U
C2 C 0.1276(13) 1.1780(6) 0.7044(10) 0.0180(12) Uani 1 1 d . .
H2 H 0.2857 1.1369 0.7410 0.022 Uiso 1 1 calc R U
C3 C 0.1700(18) 1.2420(7) 0.5418(10) 0.0242(14) Uani 1 1 d . .
H3A H 0.0194 1.2870 0.5107 0.029 Uiso 1 1 calc R U
H3B H 0.3219 1.2870 0.5683 0.029 Uiso 1 1 calc R U
C4 C 0.2104(16) 1.1725(7) 0.3872(11) 0.0278(15) Uani 1 1 d . .
H4A H 0.3695 1.1318 0.4143 0.033 Uiso 1 1 calc R U
H4B H 0.2305 1.2157 0.2833 0.033 Uiso 1 1 calc R U
C5 C -0.0166(17) 1.0988(7) 0.3465(10) 0.0272(16) Uani 1 1 d . .
H5A H -0.1732 1.1394 0.3099 0.033 Uiso 1 1 calc R U
H5B H 0.0166 1.0528 0.2485 0.033 Uiso 1 1 calc R U
C6 C -0.0593(17) 1.0337(6) 0.5054(10) 0.0219(14) Uani 1 1 d . .
H6A H 0.0904 0.9881 0.5351 0.026 Uiso 1 1 calc R U
H6B H -0.2125 0.9895 0.4782 0.026 Uiso 1 1 calc R U
C7 C -0.1409(13) 1.0325(5) 0.8148(9) 0.0181(12) Uani 1 1 d . .
C8 C 0.0818(15) 1.2530(6) 0.8482(10) 0.0223(13) Uani 1 1 d . .
loop_
_atom_site_aniso_label
_atom_site_aniso_U_11
_atom_site_aniso_U_22
_atom_site_aniso_U_33
_atom_site_aniso_U_23
_atom_site_aniso_U_13
_atom_site_aniso_U_12
U1 0.01625(12) 0.01933(12) 0.02068(12) 0.00364(13) 0.00157(7) -0.00111(13)
O1 0.039(3) 0.025(3) 0.034(3) -0.003(2) -0.003(2) 0.000(2)
O2 0.037(3) 0.031(3) 0.029(3) -0.002(2) -0.003(3) 0.001(3)
O3 0.023(3) 0.025(3) 0.023(2) 0.006(2) 0.0031(19) 0.003(2)
O4 0.020(3) 0.033(3) 0.040(3) 0.013(3) 0.004(2) -0.002(2)
O5 0.023(3) 0.031(3) 0.028(3) -0.005(2) 0.000(2) -0.001(2)
O6 0.022(3) 0.039(3) 0.045(4) -0.022(3) 0.004(2) 0.000(2)
C1 0.020(3) 0.017(3) 0.017(3) 0.001(2) 0.004(2) -0.001(3)
C2 0.014(3) 0.019(3) 0.021(3) -0.001(2) 0.001(2) -0.002(3)
C3 0.026(4) 0.025(4) 0.022(3) 0.003(3) 0.003(3) -0.003(3)
C4 0.027(4) 0.035(4) 0.022(4) -0.001(3) 0.005(3) -0.005(3)
C5 0.030(4) 0.032(4) 0.020(3) -0.003(3) 0.004(3) 0.001(3)
C6 0.026(3) 0.017(3) 0.023(3) -0.005(3) 0.001(3) -0.002(3)
C7 0.017(3) 0.015(3) 0.022(3) 0.002(2) 0.005(2) 0.000(2)
C8 0.024(3) 0.019(3) 0.025(3) -0.001(3) 0.010(3) 0.001(3)
loop_
_atom_type_symbol
_atom_type_description
_atom_type_scat_dispersion_real
_atom_type_scat_dispersion_imag
_atom_type_scat_source
C C 0.0033 0.0016 'International Tables Vol C Tables 4.2.6.8 and 6.1.1.4'
H H 0.0000 0.0000 'International Tables Vol C Tables 4.2.6.8 and 6.1.1.4'
O O 0.0106 0.0060 'International Tables Vol C Tables 4.2.6.8 and 6.1.1.4'
U U -9.6767 9.6646 'International Tables Vol C Tables 4.2.6.8 and 6.1.1.4'
loop_
_geom_angle_atom_site_label_1
_geom_angle_atom_site_label_2
_geom_angle_atom_site_label_3
_geom_angle
_geom_angle_site_symmetry_1
_geom_angle_site_symmetry_3
O2 U1 O1 179.4(3) . .
O2 U1 O5 89.8(3) . 2_647
O1 U1 O5 90.8(3) . 2_647
O2 U1 O3 89.5(3) . .
O1 U1 O3 90.0(2) . .
O5 U1 O3 179.0(2) 2_647 .
O2 U1 O4 92.0(3) . 1_655
O1 U1 O4 87.9(3) . 1_655
O5 U1 O4 91.2(2) 2_647 1_655
O3 U1 O4 88.2(2) . 1_655
O2 U1 O6 89.2(3) . 2_547
O1 U1 O6 90.9(3) . 2_547
O5 U1 O6 88.2(2) 2_647 2_547
O3 U1 O6 92.5(2) . 2_547
O4 U1 O6 178.7(3) 1_655 2_547
C7 O3 U1 150.0(5) . .
C7 O4 U1 143.9(5) . 1_455
C8 O5 U1 153.8(6) . 2_657
C8 O6 U1 144.0(5) . 2_557
C7 C1 C2 113.5(6) . .
C7 C1 C6 106.5(5) . .
C2 C1 C6 111.5(6) . .
C7 C1 H1 108.4 . .
C2 C1 H1 108.4 . .
C6 C1 H1 108.4 . .
C8 C2 C1 111.8(6) . .
C8 C2 C3 107.4(6) . .
C1 C2 C3 110.2(6) . .
C8 C2 H2 109.1 . .
C1 C2 H2 109.1 . .
C3 C2 H2 109.1 . .
C4 C3 C2 111.3(7) . .
C4 C3 H3A 109.4 . .
C2 C3 H3A 109.4 . .
C4 C3 H3B 109.4 . .
C2 C3 H3B 109.4 . .
H3A C3 H3B 108.0 . .
C3 C4 C5 110.9(7) . .
C3 C4 H4A 109.5 . .
C5 C4 H4A 109.5 . .
C3 C4 H4B 109.5 . .
C5 C4 H4B 109.5 . .
H4A C4 H4B 108.0 . .
C6 C5 C4 111.0(7) . .
C6 C5 H5A 109.4 . .
C4 C5 H5A 109.4 . .
C6 C5 H5B 109.4 . .
C4 C5 H5B 109.4 . .
H5A C5 H5B 108.0 . .
C5 C6 C1 110.4(6) . .
C5 C6 H6A 109.6 . .
C1 C6 H6A 109.6 . .
C5 C6 H6B 109.6 . .
C1 C6 H6B 109.6 . .
H6A C6 H6B 108.1 . .
O4 C7 O3 123.3(7) . .
O4 C7 C1 118.0(6) . .
O3 C7 C1 118.7(6) . .
O6 C8 O5 122.0(7) . .
O6 C8 C2 119.1(7) . .
O5 C8 C2 118.8(7) . .
loop_
_geom_bond_atom_site_label_1
_geom_bond_atom_site_label_2
_geom_bond_distance
_geom_bond_site_symmetry_2
U1 O2 1.762(6) .
U1 O1 1.767(6) .
U1 O5 2.279(6) 2_647
U1 O3 2.289(6) .
U1 O4 2.329(6) 1_655
U1 O6 2.331(6) 2_547
O3 C7 1.263(9) .
O4 C7 1.256(9) .
O4 U1 2.329(6) 1_455
O5 C8 1.263(10) .
O5 U1 2.279(6) 2_657
O6 C8 1.250(9) .
O6 U1 2.331(6) 2_557
C1 C7 1.523(9) .
C1 C2 1.525(10) .
C1 C6 1.551(10) .
C1 H1 1.0000 .
C2 C8 1.509(10) .
C2 C3 1.536(11) .
C2 H2 1.0000 .
C3 C4 1.523(12) .
C3 H3A 0.9900 .
C3 H3B 0.9900 .
C4 C5 1.531(12) .
C4 H4A 0.9900 .
C4 H4B 0.9900 .
C5 C6 1.520(11) .
C5 H5A 0.9900 .
C5 H5B 0.9900 .
C6 H6A 0.9900 .
C6 H6B 0.9900 .
