#------------------------------------------------------------------------------
#$Date: 2017-02-04 00:26:38 +0200 (Sat, 04 Feb 2017) $
#$Revision: 191256 $
#$URL: file:///home/coder/svn-repositories/cod/cif/4/34/51/4345108.cif $
#------------------------------------------------------------------------------
#
# This file is available in the Crystallography Open Database (COD),
# http://www.crystallography.net/
#
# All data on this site have been placed in the public domain by the
# contributors.
#
data_4345108
loop_
_publ_author_name
'Mazzuca, Lidia'
'Ca\~nadillas-Delgado, Laura'
'Rodr\'iguez-Velamaz\'an, J Alberto'
'Fabelo, Oscar'
'Scarrozza, Marco'
'Stroppa, Alessandro'
'Picozzi, Silvia'
'Zhao, Jiong-Peng'
'Bu, Xian-He'
'Rodr\'iguez-Carvajal, Juan'
_publ_section_title
;
 Magnetic Structures of Heterometallic M(II)-M(III) Formate Compounds.
;
_journal_issue                   1
_journal_name_full               'Inorganic chemistry'
_journal_page_first              197
_journal_page_last               207
_journal_paper_doi               10.1021/acs.inorgchem.6b01866
_journal_volume                  56
_journal_year                    2017
_chemical_formula_sum            'C8 H14 Co Fe N O12'
_chemical_formula_weight         430.97
_chemical_name_systematic
;
 ?
;
_space_group_crystal_system      trigonal
_space_group_IT_number           163
_space_group_name_Hall           '-P 3 2c'
_space_group_name_H-M_alt        'P -3 1 c'
_symmetry_space_group_name_Hall  '-P 3 2c'
_symmetry_space_group_name_H-M   'P -3 1 c'
_atom_sites_solution_hydrogens   geom
_audit_creation_method           SHELXL-2014
_cell_angle_alpha                90
_cell_angle_beta                 90
_cell_angle_gamma                120
_cell_formula_units_Z            2
_cell_length_a                   8.21650(10)
_cell_length_b                   8.21650(10)
_cell_length_c                   13.6791(2)
_cell_measurement_reflns_used    6522
_cell_measurement_temperature    65(2)
_cell_measurement_theta_max      32.467
_cell_measurement_theta_min      5.579
_cell_volume                     799.764(18)
_computing_cell_refinement       'CrysAlis PRO software program'
_computing_data_collection       'CrysAlis PRO software program'
_computing_data_reduction        'CrysAlis PRO software program'
_computing_molecular_graphics    'Mercury (McRae, 2006)'
_computing_publication_material  'WINGX (Farrugia, 1999)'
_computing_structure_refinement  'SHELXL-2014 (Sheldrick, 2014)'
_computing_structure_solution    'SHELXL-2014 (Sheldrick, 2014)'
_diffrn_ambient_temperature      65(2)
_diffrn_measured_fraction_theta_full 0.789
_diffrn_measured_fraction_theta_max 0.850
_diffrn_measurement_device_type  'CRISTAL beamline, SOLEIL synchrotron'
_diffrn_radiation_type           synchrotron
_diffrn_radiation_wavelength     0.66951
_diffrn_reflns_av_R_equivalents  0.0407
_diffrn_reflns_av_unetI/netI     0.0172
_diffrn_reflns_Laue_measured_fraction_full 0.789
_diffrn_reflns_Laue_measured_fraction_max 0.850
_diffrn_reflns_limit_h_max       12
_diffrn_reflns_limit_h_min       -12
_diffrn_reflns_limit_k_max       13
_diffrn_reflns_limit_k_min       -13
_diffrn_reflns_limit_l_max       18
_diffrn_reflns_limit_l_min       -19
_diffrn_reflns_number            9159
_diffrn_reflns_point_group_measured_fraction_full 0.789
_diffrn_reflns_point_group_measured_fraction_max 0.850
_diffrn_reflns_theta_full        23.685
_diffrn_reflns_theta_max         32.467
_diffrn_reflns_theta_min         5.579
_diffrn_source                   synchrotron
_exptl_absorpt_coefficient_mu    1.617
_exptl_absorpt_correction_T_max  1.00000
_exptl_absorpt_correction_T_min  0.88813
_exptl_absorpt_correction_type   multi-scan
_exptl_absorpt_process_details
;
CrysAlisPro, Agilent Technologies,
Version 1.171.37.33 (release 27-03-2014 CrysAlis171 .NET)
(compiled Mar 27 2014,17:12:48)
Empirical absorption correction using spherical harmonics,
 implemented in SCALE3 ABSPACK scaling algorithm.
;
_exptl_crystal_colour            red
_exptl_crystal_density_diffrn    1.790
_exptl_crystal_description       prism
_exptl_crystal_F_000             436
_exptl_crystal_size_max          0.09
_exptl_crystal_size_mid          0.07
_exptl_crystal_size_min          0.06
_refine_diff_density_max         0.346
_refine_diff_density_min         -0.423
_refine_diff_density_rms         0.073
_refine_ls_extinction_method     none
_refine_ls_goodness_of_fit_ref   1.227
_refine_ls_hydrogen_treatment    refU
_refine_ls_matrix_type           full
_refine_ls_number_parameters     41
_refine_ls_number_reflns         991
_refine_ls_number_restraints     0
_refine_ls_restrained_S_all      1.227
_refine_ls_R_factor_all          0.0301
_refine_ls_R_factor_gt           0.0295
_refine_ls_shift/su_max          0.000
_refine_ls_shift/su_mean         0.000
_refine_ls_structure_factor_coef Fsqd
_refine_ls_weighting_details
'w=1/[\s^2^(Fo^2^)+(0.0609P)^2^+0.1936P] where P=(Fo^2^+2Fc^2^)/3'
_refine_ls_weighting_scheme      calc
_refine_ls_wR_factor_gt          0.0996
_refine_ls_wR_factor_ref         0.1000
_reflns_Friedel_coverage         0.000
_reflns_number_gt                959
_reflns_number_total             991
_reflns_threshold_expression     'I > 2\s(I)'
_cod_data_source_file            FeCo_65K.cif
_cod_data_source_block           shelx
_cod_original_cell_volume        799.76(2)
_cod_database_code               4345108
_shelx_space_group_comment
;
The symmetry employed for this shelxl refinement is uniquely defined
by the following loop, which should always be used as a source of
symmetry information in preference to the above space-group names.
They are only intended as comments.
;
_shelxl_version_number           2014-3
_shelx_res_file
;
TITL FeCo_warm3 in P-31c
CELL  0.66951   8.2165   8.2165  13.6791   90.000   90.000  120.000
ZERR     2.00   0.0001   0.0001   0.0002    0.000    0.000    0.000
LATT   1
SYMM  - Y,   X - Y,   Z
SYMM  - X + Y, - X,   Z
SYMM  - Y, - X, 1/2 - Z
SYMM  - X + Y,   Y, 1/2 - Z
SYMM    X,   X - Y, 1/2 - Z
SFAC  C        2.31000 20.84392  1.02000 10.20751   1.58860   0.56870 =
         0.86500  51.65125   0.21560   0.003   0.001     5.315   0.770  12.011
SFAC  H        0.49300 10.51091  0.32291 26.12573   0.14019   3.14236 =
         0.04081  57.79977   0.00304   0.000   0.000     0.000   0.320   1.008
SFAC  N       12.21261  0.00570  3.13220  9.89331   2.01250  28.99754 =
         1.16630   0.58260 -11.52901   0.005   0.003    10.897   0.700  14.007
SFAC  O        3.04850 13.27711  2.28680  5.70111   1.54630   0.32390 =
         0.86700  32.90894   0.25080   0.009   0.005    20.072   0.660  15.999
SFAC  FE      11.76951  4.76111  7.35731  0.30720   3.52220  15.35351 =
         2.30450  76.88058   1.03690   0.338   0.760  2867.351   1.260  55.845
SFAC  CO      12.28411  4.27910  7.34091  0.27840   4.00340  13.53591 =
         2.34880  71.16927   1.01180   0.346   0.876  3304.255   1.260  58.933
UNIT  16   28   2    24   2    2
MERG   2
FMAP   2
PLAN   20
ACTA
L.S.   8
WGHT    0.060900    0.193600
FVAR      20.64671
CO1   6    0.666667    0.333333    0.250000    10.16667    0.00842    0.00842 =
         0.01233    0.00000    0.00000    0.00421
FE1   5    1.000000    0.000000    0.000000    10.16667    0.00742    0.00742 =
         0.01017    0.00000    0.00000    0.00371
O1    4    0.883369    0.343441    0.168091    11.00000    0.01791    0.01568 =
         0.02584   -0.00594    0.00537    0.00765
O2    4    1.013031    0.208895    0.082885    11.00000    0.01446    0.01482 =
         0.02011   -0.00289    0.00234    0.00795
C1    1    0.873224    0.209838    0.120377    11.00000    0.01450    0.01529 =
         0.01888   -0.00391   -0.00023    0.00870
AFIX  43
H1    2    0.755347    0.104139    0.111808    11.00000    0.03568
AFIX   0
N1    3    1.277447    0.554893    0.250000    10.16700    0.03139    0.01375 =
         0.33692    0.00000   -0.07215    0.00688
C2    1    1.333333    0.666667    0.153705    10.33333    0.02549    0.02549 =
         0.47079    0.00000    0.00000    0.01274
HKLF    4

REM  FeCo_warm3 in P-31c
REM R1 =  0.0295 for     959 Fo > 4sig(Fo)  and  0.0301 for all     991 data
REM     41 parameters refined using      0 restraints

END

WGHT      0.0609      0.1936

REM Highest difference peak  0.346,  deepest hole -0.423,  1-sigma level  0.073
Q1    1   1.0017  0.0961  0.0460  11.00000  0.05    0.35
Q2    1   0.9398  0.2174  0.1007  11.00000  0.05    0.34
Q3    1   1.0000  0.0000  0.1444  10.33333  0.05    0.33
Q4    1   0.8723  0.2637  0.1471  11.00000  0.05    0.33
Q5    1   1.3406  0.5599  0.1782  11.00000  0.05    0.30
Q6    1   0.6076  0.2606  0.2897  11.00000  0.05    0.29
Q7    1   1.3333  0.6667  0.2500  10.16667  0.05    0.29
Q8    1   0.7927  0.3463  0.2002  11.00000  0.05    0.28
Q9    1   0.6667  0.3333  0.1081  10.33333  0.05    0.28
Q10   1   1.0025  0.1101 -0.0481  11.00000  0.05    0.27
Q11   1   0.9242  0.2012  0.0512  11.00000  0.05    0.25
Q12   1   1.3333  0.6667  0.0880  10.33333  0.05    0.24
Q13   1   1.4821  0.7557  0.1576  11.00000  0.05    0.24
Q14   1   0.6007  0.2013  0.2500  10.50000  0.05    0.23
Q15   1   0.9877  0.1966  0.2455  11.00000  0.05    0.23
Q16   1   0.8278  0.2778  0.2125  11.00000  0.05    0.23
Q17   1   1.1110  0.2483 -0.0016  11.00000  0.05    0.22
Q18   1   1.3530  0.6181  0.2932  11.00000  0.05    0.22
Q19   1   0.7264  0.0018  0.0454  11.00000  0.05    0.21
Q20   1   0.8700  0.2207  0.1999  11.00000  0.05    0.21
;
_shelx_res_checksum              3481
_shelx_hkl_file
;
   0   0  -3 251.423 111.384   1
   0   0   3 93.4856 110.877   1
   0   0  -5 773.892 189.927   1
   0   0   5-32.0222 120.211   1
   0   0  -6 71691.1 1857.44   1
   0   0   6 67797.2 1812.91   1
   0   0   7 91.4710 134.870   1
   0   0  -7 116.085 171.916   1
   0   0  -9-12.6251 163.117   1
   0   0   9 177.063 145.657   1
   0   0 -10 22474.9 1228.46   1
   0   0  10 28516.1 1338.46   1
   0   0 -11-66.1133 212.325   1
   0   0  11 130.633 174.799   1
   0   0 -13 25.8574 176.654   1
   1  -1  -4 6895.73 468.317   1
   0  -1   4 7464.64 463.783   2
  -1   1  -4 6192.70 430.679   1
   1   0  -4 6724.42 324.359   1
  -1   0   4 6221.28 316.371   1
   0  -1   4 5991.39 267.133   1
   1   0   4 6679.23 514.061   1
   1  -1  -4 6772.04 365.795   2
  -1   1   4 6353.10 478.323   1
  -1   0  -4 6825.47 513.590   1
   0   1  -4 7146.52 288.909   1
   0   1   4 7616.39 535.381   1
   1  -1   4 6176.94 423.700   1
   0  -1  -4 5782.70 487.683   1
  -1   0  -5 21281.0 973.682   1
  -1   1  -5 21092.8 866.122   1
   0  -1  -5 22126.3 1008.83   1
   1  -1   5 22561.8 893.037   1
   1  -1  -5 16636.2 716.108   2
  -1   1   5 22904.1 941.712   1
   1   0  -5 21741.7 708.850   1
   0   1   5 18359.7 942.142   1
  -1   0   5 17047.3 644.166   1
   1  -1  -5 19444.7 885.442   1
   0  -1   5 22836.4 647.498   1
   0  -1  -5 18347.3 908.133   2
   0   1  -5 19968.6 627.718   1
   1   0   5 19526.3 953.787   1
   1  -1  -6 56123.0 1704.94   1
   1   0   6 52166.8 1751.12   1
   0  -1  -6 50898.5 1704.89   2
  -1   0   6 52712.5 1362.06   1
  -1   1   6 46477.7 1573.37   1
   1   0  -6 58039.2 1422.37   1
   0  -1   6 53766.8 1302.94   1
   0  -1  -6 58287.1 1871.97   1
  -1   1  -6 55483.6 1640.49   1
   0   1  -6 56439.8 1337.05   1
   1  -1   6 53560.6 1612.17   1
   0   1   6 51593.2 1766.14   1
   1  -1  -6 55161.8 1516.15   2
  -1   0  -6 56565.4 1816.98   1
  -1   1   7 180758. 3712.22   1
   0  -1  -7 170935. 3914.30   1
   0   1   7 166412. 3828.11   1
   1  -1  -7 144749. 3575.01   1
  -1   1  -7 175432. 3661.45   1
  -1   0  -7 166844. 3852.86   1
   0  -1  -7 158929. 3775.50   2
   1  -1   7 167863. 3574.33   1
   1   0   7 161186. 3767.92   1
  -1   1  -8 70785.5 2119.04   1
   0  -1  -8 78692.6 2436.85   1
   1  -1   8 75695.1 2161.78   1
  -1   1   8 76613.2 2222.13   1
  -1   0   8 73131.4 1905.29   1
  -1   0  -8 72360.7 2357.70   1
   1  -1  -8 75107.6 2082.78   2
   0   1  -8 65316.6 1799.10   1
   1   0  -8 71270.2 1897.68   1
   0   1   8 69147.0 2274.98   1
   0  -1  -8 74796.2 2365.37   2
   0  -1   8 76683.9 1861.18   1
   1   0   8 78559.0 2389.80   1
   1  -1  -8 66939.3 2179.92   1
  -1   0  -9 345679. 6948.04   1
   1  -1 -11 218951. 5329.89   2
   1   0  11 283168. 5901.54   1
   1  -1 -11 254074. 5628.66   1
   0  -1 -11 255430. 5834.23   2
  -1   0  11 248806. 5139.63   1
  -1   0 -11 271462. 5895.20   1
   0  -1 -11 245977. 5763.69   1
   0   1  11 281536. 5932.29   1
   1   0 -12 80830.5 2582.52   1
  -1   0 -12 85550.0 3032.00   1
   1  -1 -12 95483.9 3002.63   1
  -1   1  12 89932.2 2934.46   1
  -1   1 -12 91793.6 2868.09   1
   0   1  12 100217. 3169.60   1
   1   0  12 96097.9 3076.35   1
   1  -1  12 87842.9 2771.48   1
   0  -1 -12 86339.9 3116.65   2
   0  -1 -12 90764.3 3093.64   1
   1  -1 -12 86024.1 2826.07   2
   0  -1 -13 211389. 5461.88   2
   0  -1 -13 229679. 5595.41   1
  -1   1  13 203266. 5157.20   1
   1   0  13 218078. 5373.51   1
  -1   1 -13 210174. 5094.53   1
   0   1  13 208774. 5348.34   1
   1  -1 -13 202758. 5178.85   1
  -1   0 -13 236406. 5590.82   1
   0  -1 -14 488473. 10105.3   1
  -1   0 -14 515315. 10062.4   1
   0  -1 -14 481895. 10227.8   2
  -1  -1 -15-55.6736 296.884   1
  -1  -1 -15-244.610 327.897   2
   1   1  15 147.231 255.593   1
   1   1  14 13459.8 1305.32   1
  -1  -1 -14 16612.8 1441.87   2
  -1  -1 -14 13704.5 1289.51   1
  -1  -1 -13 163.338 277.300   2
   1   1  13 215.587 244.690   1
  -1  -1 -13 109.336 199.445   1
  -1   2 -11 54.8273 152.159   1
  -1  -1 -11 179.721 254.463   1
   2  -1 -11 228.545 223.513   1
   1   1  11-101.929 217.193   1
  -1  -1 -11 341.473 382.579   2
  -2   1  11 37.9521 155.820   1
   1  -2  11 373.090 167.192   1
  -2   1  10 99901.2 2713.32   1
  -1   2 -10 93627.6 2499.18   1
   1  -2  10 88825.9 2397.67   1
   1   1  10 92377.9 3027.18   1
   2  -1 -10 73890.3 2075.55   2
  -1  -1 -10 90591.4 3113.51   2
  -1  -1 -10 89246.6 3064.51   1
   2  -1 -10 107333. 2784.14   1
   2  -1  -9 61.2990 91.7006   2
   2  -1  -9 47.9662 179.287   1
  -2   1   9 76.2068 153.791   1
   1   1   9-126.270 186.944   1
   1  -2   9-76.5474 131.370   1
  -1  -1  -9 21.7296 224.689   2
  -1  -1  -9 4.26764 234.298   1
   1   1   7-4.39566 191.983   1
   2  -1  -7 72.8829 69.6978   2
  -2   1   7 652.243 205.636   1
  -1  -1  -7 56.6990 241.511   1
   1  -2   7 519.462 187.068   1
  -1   2  -7-65.2439 117.362   1
   2  -1  -6 6560.54 531.357   1
  -2   1   6 6846.90 529.717   1
  -1  -1  -6 8709.34 754.079   1
   2  -1  -6 7074.92 313.749   2
   1  -2   6 9298.13 549.650   1
   1   1   6 9609.97 771.040   1
  -1   2  -6 10842.1 583.796   1
   1  -2   5-2.50776 100.239   1
  -1  -1  -5-356.463 254.318   2
  -1  -1  -5 221.446 230.369   1
  -1   2  -5 211.240 127.345   1
   1  -2   5 310.237 224.055   2
   1   1   5-132.094 162.236   1
  -2   1   5 16.0222 158.526   1
   2  -1  -5 207.527 154.397   1
  -1  -1  -3 198.942 174.257   2
   1  -2   3 260.238 138.231   1
  -1  -1  -3-127.449 212.203   1
   1   1   3 150.363 173.595   1
   2  -1  -3 109.547 69.8792   2
   2  -1  -3 495.499 168.412   1
  -1   2  -3 597.630 164.561   1
  -2   1   3 516.085 161.357   1
   1  -2   3 92.3731 197.706   2
   1   1   1 178.128 168.807   1
  -1   2  -1 71.6967 129.253   1
   1  -2   1 112.133 133.891   1
  -2   1   1-19.9139 174.505   1
  -1  -1  -1 27.5906 182.938   1
   1  -2   1 210.612 172.959   2
   2  -1  -1 160.609 178.344   1
  -1  -1  -1 31.0936 187.267   2
   1   1  -1-43.0517 115.463   1
  -1   2   1 496.874 179.838   1
  -1  -1   1 261.418 153.251   2
   1  -2  -1 103.348 130.514   1
  -2   1  -1 240.334 182.599   1
   1  -2  -1 263.846 178.812   2
  -1   2   3 47.6472 193.749   1
  -2   1  -3 98.7444 166.849   1
   2  -1   3 309.143 182.309   1
  -1  -1   3 156.485 133.755   2
   1  -2  -3 203.907 172.851   1
   1  -2  -3-130.539 159.713   2
  -1   2   5 324.693 239.082   1
  -2   1  -5 110.132 153.027   1
   2  -1   5 344.372 204.943   1
  -1  -1   5 248.958 136.486   2
   1  -2  -5-59.1776 233.247   1
   1  -2  -5 295.223 208.036   2
   1  -2  -6 18878.2 968.320   2
  -2   1  -6 20579.8 1108.97   1
   1  -2  -6 18169.9 1075.30   1
  -1   2   6 18199.0 1045.95   1
   2  -1   6 20216.4 1055.63   1
  -2   1  -7 156.029 201.894   1
   2  -1   7 91.5604 190.985   1
  -1   2   7 61.0272 189.875   1
   1  -2  -7 77.6712 160.796   2
   1  -2  -7 152.265 211.122   1
  -1  -1   9 105.539 56.8645   1
   1   1  -9 109.167 71.0294   1
   1  -2  -9 296.925 277.168   1
   2  -1   9-142.189 201.062   1
  -1   2   9 87.0277 205.493   1
   1  -2  -9 10.0782 153.123   2
  -2   1  -9 163.685 182.341   1
  -2   1 -10 207309. 4963.08   1
   1  -2 -10 185805. 4937.46   1
  -1   2  10 233994. 5185.57   1
   1  -2 -10 200826. 4796.63   2
   2  -1  10 217896. 5021.83   1
   1  -2 -11 342.420 283.979   1
  -2   1 -11 125.630 212.907   1
   2  -1  11 158.491 246.298   1
   1  -2 -11-67.9491 218.446   2
  -1   2  11 459.924 275.998   1
  -2   1 -13 32.2234 266.539   1
   2  -1  13 150.578 221.707   1
  -1   2  13 169.967 273.084   1
   1  -2 -13 86.3211 233.524   2
   1  -2 -13 186.199 253.329   1
   1  -2 -14 43236.2 2246.19   1
  -1   2  14 46329.0 2283.72   1
   2  -1  14 41025.5 2071.07   1
   0   2  -1 141194. 2788.31   1
   2   0   7 155077. 3945.06   1
  -2   2  -7 158145. 3655.48   1
   0  -2  -7 151592. 3877.39   2
   2  -2  -7 159848. 3796.74   1
   2  -2   7 155310. 3585.64   1
   2  -2  -7 152955. 3259.51   2
   0  -2  -7 153337. 3995.45   1
  -2   0  -7 165831. 4031.07   1
  -2   2   7 164740. 3770.36   1
   0   2   7 160722. 4009.08   1
   2   0  -8 5022.46 400.595   1
   0  -2   8 4573.47 267.440   1
   2   0   8 6675.53 726.903   1
  -2   0  -8 6149.83 699.714   1
   2  -2   8 5775.52 588.268   1
  -2   2  -8 5848.84 612.345   1
   0  -2  -8 5631.82 650.299   2
   2  -2  -8 5493.19 619.992   1
   0   2  -8 4590.37 287.492   1
   0  -2  -8 6068.81 724.741   1
  -2   0   8 6426.09 416.369   1
   0   2   8 5814.74 673.831   1
   2  -2  -8 5225.95 477.558   2
  -2   0  -9 87005.5 2780.20   1
   0  -2   9 71893.0 1343.26   1
   2  -2   9 87482.3 2417.00   1
   0   2  -9 75593.6 1430.66   1
   0   2   9 82557.4 2658.80   1
   0  -2  -9 79611.6 2644.49   1
  -2   2  -9 82308.6 2379.84   1
   2   0  -9 81238.3 1784.17   1
   2  -2  -9 69781.0 1966.59   2
  -2   2   9 67610.6 2234.20   1
  -2   0   9 88463.6 1821.79   1
   2   0   9 82774.4 2642.96   1
   2  -2  -9 86181.9 2558.95   1
   0  -2  -9 87927.3 2699.76   2
   2  -2 -10 353180. 7575.27   1
   0   2  10 414522. 8097.74   1
  -2   0 -11 414277. 8713.30   1
   0  -2 -11 406663. 8711.16   1
   0  -2 -12 107765. 3665.07   2
  -2   0 -12 111277. 3748.06   1
   0   2  12 127838. 3892.12   1
   2  -2  12 119544. 3400.38   1
  -2   2 -12 113341. 3466.55   1
   2  -2 -12 126704. 3766.80   1
  -2   2  12 126916. 3665.45   1
   2   0  12 109422. 3637.66   1
   0  -2 -12 102823. 3631.94   1
  -2   0 -13 149762. 4599.56   1
   2   0  13 163890. 4653.60   1
   0  -2 -13 153751. 4701.56   1
   0   2  13 158733. 4692.56   1
   2  -2 -13 159298. 4566.72   1
   0  -2 -13 159302. 4727.79   2
  -2   0 -14 287834. 6912.61   1
   0   2  14 288750. 6922.66   1
   0  -2 -14 275571. 6930.66   1
   0  -2 -14 287805. 6985.37   2
   2   0  15 3446.75 649.083   1
   0  -2 -15 4366.49 739.783   1
   0   2  15 4606.81 754.367   1
  -2   0 -15 3425.64 622.555   1
  -2   0 -16 4900.56 905.886   2
   0  -2 -16 4119.46 746.024   1
  -2  -1 -17 183258. 6056.62   2
   1   2  16 513.593 427.665   1
   2   1  16 358.088 389.752   1
  -2  -1 -16 685.081 419.418   1
  -2  -1 -16 154.918 475.408   2
  -1  -2 -16 792.785 467.482   2
  -1  -2 -16 106.040 299.504   1
  -2  -1 -15 222211. 6354.23   1
   2   1  15 245997. 6468.99   1
   1   2  15 218680. 6243.42   1
  -1  -2 -15 240722. 6734.63   2
  -1  -2 -15 225562. 6349.58   1
  -1  -2 -14 124439. 4309.13   2
  -2  -1 -14 121032. 4198.64   1
   2   1  14 110969. 3936.39   1
  -1  -2 -14 112943. 4077.13   1
  -2  -1 -14 119846. 4316.75   2
   1   2  14 108651. 3977.93   1
   1   2  13 30278.1 1914.11   1
  -2  -1 -13 30307.8 1923.77   1
  -1  -2 -13 32357.3 1991.87   1
  -2  -1 -13 33800.5 2100.99   2
   2   1  13 29717.9 1877.44   1
  -1  -2 -13 27212.5 1877.59   2
  -1  -2 -12 3736.03 667.545   2
  -1  -2 -12 2033.30 528.304   1
  -2  -1 -12 3060.71 572.125   2
   3  -2 -12 2940.73 499.665   1
   2   1  12 2735.84 599.333   1
  -2  -1 -12 3250.84 657.991   1
  -3   2  12 2727.75 469.180   1
   1   2  12 2544.65 567.589   1
   3  -2 -11 4565.51 624.678   1
   2  -3  11 3948.84 515.994   1
   1   2  11 3923.16 660.611   1
   3  -1 -11 4278.04 531.796   1
  -2   3 -11 4702.75 589.021   1
  -2  -1 -11 4318.57 692.369   1
  -1  -2 -11 4371.83 707.006   1
   2   1  11 3836.15 611.630   1
  -3   2  11 4655.79 601.419   1
  -2  -1 -11 5140.46 753.015   2
  -1  -2 -11 5420.80 791.740   2
   1   2   9 98337.2 3200.56   1
  -3   2   9 107981. 2950.28   1
  -1  -2  -9 106545. 3372.83   2
  -2   3  -9 102674. 2804.21   1
   1  -3   9 89837.2 2224.85   1
  -1  -2  -9 93389.3 3239.52   1
   3  -1  -9 124566. 2863.94   1
   2   1   9 98590.4 3268.43   1
   2  -3   9 106282. 2764.63   1
  -3   1   9 97647.4 2603.94   1
   3  -2  -9 100058. 2947.46   1
  -1   3  -9 101226. 2365.78   1
  -2  -1  -9 103777. 3381.86   1
  -1  -2  -2 159466. 3669.90   2
   2  -3   2 161629. 3439.63   1
   3  -2  -2 147053. 3425.64   1
  -2  -1  -2 147394. 3560.17   1
   1  -3   2 170891. 3624.93   2
  -3   1   2 142289. 3307.44   1
  -2  -1  -2 165255. 3624.58   2
   1   2   2 158988. 3617.28   1
  -1  -2  -2 167016. 3655.22   1
   2   1   2 156810. 3609.83   1
   1  -3   0 905.352 248.292   2
   2  -3   0 1314.93 276.810   2
  -3   2   0 1001.72 310.373   1
   3  -2   0 1093.43 279.415   1
   1   2   0 1360.94 243.762   1
  -2  -1   0 820.118 210.753   2
  -1   3   0 1071.63 264.721   1
   2   1   0 927.115 210.658   1
  -2  -1   0 941.168 244.622   1
  -1  -2   0 1722.62 294.526   2
  -1  -2   0 1191.14 234.960   1
   2  -3   0 1177.26 266.187   1
   1  -3   0 1088.11 257.785   1
  -2   3   0 1940.58 332.303   1
   3  -1   0 869.890 210.165   1
  -3   1   0 809.308 219.356   1
   1  -3  -1 198355. 4200.26   1
  -1  -2   1 210028. 4145.42   2
  -1   3   1 200144. 4213.39   1
  -1  -2   3 55607.9 1618.54   2
   2  -3  -3 50170.7 1798.07   1
  -1  -2   3 54282.3 1298.41   1
  -3   2  -3 51027.1 1762.28   1
   2   1  -3 43978.8 1306.15   1
  -2  -1   3 48687.6 1393.14   2
   3  -1   3 50481.7 1792.58   1
   1  -3  -3 50004.3 1759.16   2
  -1   3   3 59357.9 1934.17   1
   3  -2   3 51960.5 1786.28   1
  -2  -1   3 54554.4 1388.89   1
   2  -3  -3 49363.4 1623.79   2
  -2   3   3 61859.7 1957.55   1
  -3   1  -3 50905.7 1824.46   1
   1  -3  -3 52484.1 1867.85   1
   1   2  -3 53910.3 1320.59   1
  -3   1  -8 59012.7 2318.71   1
   3  -2   8 58723.6 2181.05   1
  -1  -2   8 57622.6 1923.02   2
  -1   3   8 54481.9 2224.81   1
  -3   2  -8 55400.8 2189.80   1
   1  -3  -8 51349.2 2142.84   2
   1  -3  -8 48658.6 2202.40   1
   2  -3  -8 53616.9 2202.44   1
   2  -3  -8 49673.0 1903.51   2
   3  -1   8 58678.4 2310.34   1
  -2   3   8 56518.0 2197.76   1
  -3   1 -10 265814. 6349.20   1
   1  -3 -10 270147. 6473.32   1
  -2   3  10 288163. 6371.45   1
   1  -3 -10 274981. 6283.21   2
  -1   3  10 279893. 6382.32   1
   2  -3 -10 271802. 5900.84   2
  -3   2 -10 283968. 6321.29   1
   2  -3 -10 257056. 6273.31   1
   3  -2  10 289524. 6280.60   1
   3  -2  11 83071.6 2945.87   1
  -1   3  11 71993.9 2877.74   1
  -3   2 -11 86031.6 3030.65   1
  -3   1 -11 83040.7 3094.68   1
   2  -3 -11 90695.9 2861.28   2
  -2   3  11 76526.0 2940.11   1
   1  -3 -11 89221.5 3267.65   1
   3  -1  11 85589.4 3080.18   1
   1  -3 -11 83372.7 3050.83   2
   2  -3 -11 80505.5 3038.63   1
   2  -3 -12 839.760 360.892   2
   3  -2  12 1423.94 444.253   1
  -3   2 -12 1549.80 426.933   1
   2  -3 -12 1712.00 497.662   1
  -1   3  12 1290.73 406.040   1
  -2   3  12 1342.90 432.057   1
   1  -3 -12 1268.67 505.254   2
   3  -1  12 1026.19 468.048   1
  -3   1 -12 1040.62 402.879   1
   1  -3 -12 1563.50 464.652   1
   1  -3 -13 33185.7 1990.70   2
   1  -3 -13 31649.2 1989.31   1
  -3   2 -13 30048.0 1816.23   1
  -2   3  13 31701.0 1891.14   1
   3  -1  13 32364.7 1874.19   1
  -3   1 -13 28666.0 1861.75   1
   2  -3 -13 34497.9 2035.96   1
  -1   3  13 35223.5 2068.91   1
   3  -2  13 34527.6 1881.22   1
  -2   3  14 255690. 6347.02   1
  -3   1 -14 243677. 6291.57   1
   1  -3 -14 248558. 6476.82   1
   2  -3 -14 211765. 6056.85   1
  -1   3  14 217595. 6101.90   1
  -3   2 -14 238043. 6091.53   1
   3  -1  14 233402. 6069.28   1
  -3   1 -15 44667.1 2454.09   1
   2  -3 -15 56427.4 2787.81   1
   1  -3 -15 42811.5 2491.67   1
   3  -1  15 46918.0 2448.71   1
  -1   3  15 53425.3 2690.54   1
   1  -3 -16 205093. 6085.12   1
   3   0   1 2265.59 355.672   1
   0   3   1 2586.36 388.172   1
   3   0  -1 2128.30 327.591   1
  -3   3   1 1824.43 362.984   1
   0  -3   1 2382.24 334.247   1
  -3   0   1 1836.25 317.340   1
   3  -3  -1 1862.23 377.693   1
   0  -3   1 2042.18 362.888   2
  -3   0  -1 2800.56 447.342   1
   3  -3  -1 1839.62 313.369   2
  -3   3  -1 2911.14 411.685   1
   0   3  -1 2552.90 353.604   1
   0  -3  -1 1851.07 361.938   2
   3  -3   1 2301.97 401.787   2
   3  -3   1 3003.35 421.092   1
   0  -3  -1 1874.94 343.373   1
   0  -3  -2 34318.4 1492.61   1
   0  -3   2 39805.0 1298.23   1
   0  -3  -2 37472.8 1552.50   2
   0  -3   2 39797.0 1493.27   2
  -3   0  -2 40934.7 1599.78   1
   3  -3  -2 36212.9 1363.24   2
   0   3   2 37817.7 1535.27   1
   3  -3  -2 34579.8 1482.91   1
  -3   0   2 34642.0 1302.06   1
  -3   0   2 37445.3 1204.80   2
   3  -3   2 39098.1 1583.54   2
  -3   3   2 38272.8 1532.70   1
   3   0   2 33952.9 1471.82   1
  -3   3  -2 35476.8 1483.93   1
   3  -3   2 37932.5 1522.90   1
   0   3  -2 35964.4 1264.20   1
   3   0  -2 34778.3 1292.34   1
   0  -3  -3 41876.9 1692.16   1
   0   3  -3 44479.0 1327.31   1
   3  -3  -3 38675.8 1393.16   2
   3  -3  -3 38686.3 1603.97   1
   3  -3   3 41414.9 1614.06   1
  -3   3   3 42828.4 1668.75   1
   3   0  -3 43174.7 1404.27   1
  -3   0   3 42063.8 1401.28   1
  -3   0   3 38308.0 1163.34   2
   0   3   3 42880.5 1711.65   1
  -3   0  -3 44458.7 1722.57   1
   0  -3   3 39722.4 1555.74   2
   0  -3   3 43936.8 1316.58   1
  -3   3  -3 41942.4 1614.73   1
   3   0   3 41191.6 1675.82   1
   0  -3  -3 39973.9 1679.57   2
   3  -3   3 40904.1 1733.38   2
  -3   0   5 17283.0 517.506   2
  -3   0  -5 17763.5 1163.60   1
   0   3  -5 18144.1 702.944   1
   0  -3  -5 17752.5 1148.30   2
   3  -3   5 17733.8 1041.00   1
  -3   3  -5 16296.5 1020.96   1
  -3   0   5 16909.4 787.096   1
   3  -3  -5 19738.5 1143.75   1
   3  -3  -5 18076.8 897.240   2
   3   0  -5 16356.6 798.387   1
   0  -3   5 18655.1 1045.98   2
   0  -3   5 18495.6 670.040   1
  -3   3   5 19468.3 1121.51   1
   3   0   5 18005.9 1138.20   1
   0   3   5 16723.8 1126.02   1
   0  -3  -5 18080.6 1170.65   1
   0  -3  -6 5063.62 643.552   2
   3  -3   6 7054.98 672.998   1
  -3   3   6 6845.82 673.436   1
   0  -3   6 5450.59 612.058   2
   0   3  -6 6287.45 349.005   1
   3   0   6 6134.53 710.023   1
  -3   0  -6 5502.00 681.233   1
  -3   0   6 7219.85 479.176   1
   3  -3  -6 5034.98 624.298   1
   0   3   6 6629.01 737.853   1
   3  -3  -6 4882.19 476.015   2
   0  -3  -6 4958.77 643.212   1
   3   0  -6 6448.22 494.760   1
   0  -3   6 6757.28 340.939   1
  -3   3  -6 6731.73 651.177   1
   3  -3   7 19260.6 1107.85   1
   3   0   7 16286.6 1186.49   1
  -3   3  -7 17040.7 1113.20   1
   0  -3   7 16212.1 1108.38   2
   3  -3  -7 17651.7 1154.33   1
   3   0  -7 17572.7 810.989   1
  -3   3   7 19936.2 1198.71   1
   0  -3  -7 18005.1 1274.29   1
  -3   0   7 17672.2 795.195   1
   3  -3  -7 16221.8 919.275   2
   0  -3  -7 16675.1 1182.35   2
  -3   0  -7 17363.3 1238.14   1
   0   3   7 19042.1 1260.84   1
  -3   0   9 12018.7 636.997   1
   3  -3  -9 13824.0 1092.45   1
   0  -3  -9 12872.2 1099.02   2
   3  -3   9 12616.8 960.592   1
  -3   3  -9 12400.0 1005.34   1
   0  -3  -9 11234.3 1069.80   1
  -3   0  -9 12207.9 1078.88   1
   3   0  -9 12816.4 673.843   1
   0   3   9 13190.2 1132.98   1
   3   0   9 13211.3 1128.43   1
   3  -3  -9 12525.9 804.093   2
  -3   3   9 15075.2 1119.19   1
   0   3  10 1767.90 444.992   1
  -3   3  10 1364.63 381.529   1
   3  -3 -10 1289.43 295.648   2
   0  -3 -10 1302.55 450.339   2
  -3   0 -10 1911.41 472.008   1
   0  -3 -10 2126.76 557.943   1
   3  -3 -10 1882.46 425.069   1
  -3   3 -10 1616.42 428.536   1
   3   0  10 1542.91 455.699   1
   0   3  11 1730.29 498.178   1
   3  -3 -11 1136.32 419.979   1
  -3   3  11 1035.95 299.529   1
  -3   0 -11 1106.78 408.907   1
   3  -3  11 1492.19 347.539   1
   0  -3 -11 1883.39 537.736   2
   3   0  11 1490.03 443.995   1
   0  -3 -11 1549.99 513.386   1
  -3   3 -11 1228.49 329.117   1
  -3   0 -12 545557. 11480.5   1
   0  -3 -12 540944. 11351.6   1
   3  -3 -13 237.374 233.405   1
   0  -3 -13-11.9145 284.829   1
  -3   0 -13-251.401 329.173   1
   0  -3 -13 688.992 397.060   2
  -3   3  13 201.236 284.790   1
   0   3  13-89.1007 234.061   1
   3   0  13 149.252 224.625   1
   0  -3 -14 154.360 330.886   1
  -3   0 -14-80.2020 284.234   1
   0  -3 -14 621.238 377.477   2
   3   0  14 53.4810 317.258   1
   3  -3 -14 218.044 322.664   1
   0   3  14 384.263 361.341   1
   3   0  15 930.596 430.392   1
   0  -3 -15 1324.09 579.677   1
   0  -3 -15 406.301 297.742   2
   0   3  15 771.360 352.162   1
  -3   0 -15 1081.25 461.919   1
   3   0  16 373532. 8889.31   1
   0   3  16 394403. 9137.99   1
  -3   0 -16 386191. 9115.55   1
   0  -3 -16 387902. 9256.55   1
  -3   0 -17 826.126 522.044   2
   0  -3 -17 1135.40 379.741   1
  -3   0 -18-237.331 395.495   2
  -2  -2 -17 36.9649 330.202   2
  -2  -2 -17-50.1036 300.323   1
   2   2  17-177.228 266.117   1
   2   2  16 568069. 12474.9   1
  -2  -2 -16 600434. 12782.0   1
  -2  -2 -15 282.526 333.919   2
  -2  -2 -15 34.2321 292.814   1
   2   2  15 461.394 369.449   1
  -2  -2 -14 163456. 5300.31   1
   2   2  14 174839. 5306.20   1
  -2  -2 -14 171487. 5440.20   2
  -2  -2 -13 155.189 256.662   1
  -2  -2 -13 628.923 414.010   2
   2   2  13 44.4600 261.725   1
   2   2  12 101707. 3738.01   1
  -2  -2 -12 96805.6 3735.25   1
  -2  -2 -11-71.8867 363.776   1
   2   2  11 110.992 241.398   1
  -2  -2 -11 913.930 402.141   2
  -4   2  11-66.4675 215.291   1
  -2  -2 -10 326670. 7463.70   2
  -2  -2 -10 339383. 7549.56   1
  -4   2  10 301989. 6528.57   1
  -2   4 -10 314561. 6186.88   1
   2   2  10 295402. 7112.74   1
  -4   2   9 0.66435 161.123   1
  -2   4  -9 230.865 180.720   1
   2   2   9 36.7069 312.618   1
  -2  -2  -9 84.2318 291.382   1
   2  -4   9-73.1755 150.185   1
  -2  -2  -9-59.6389 258.231   2
   4  -2  -7 44.7858 168.861   1
  -2  -2  -7-477.988 387.790   2
  -2   4  -7 475.455 226.567   1
   2  -4   7 520.382 195.253   1
   2  -4   7 261.506 346.119   2
  -4   2   7-62.1091 162.484   1
  -2  -2  -7 138.381 284.625   1
   2   2   7-98.4482 236.201   1
   2  -4   6 2456.78 486.107   2
   4  -2  -6 1506.14 349.194   1
   2   2   6 2055.93 477.309   1
   2  -4   6 1378.57 288.275   1
  -2  -2  -6 1859.83 461.186   1
  -4   2   6 2117.05 397.462   1
  -2  -2  -6 2088.71 474.026   2
  -2   4  -6 2136.89 355.108   1
  -2   4  -5 263.626 168.925   1
  -4   2   5 307.716 230.228   1
   2   2   5 152.010 276.423   1
   4  -2  -5 166.963 215.204   1
  -2  -2  -5 49.2973 293.923   2
   2  -4   5 324.668 173.363   1
   2  -4   5 349.473 281.400   2
  -2  -2  -5-105.918 252.989   1
  -2   4  -3 26.1651 164.813   1
  -2  -2  -3 211.205 285.508   1
   2   2   3-364.686 305.867   1
   2  -4   3 567.156 220.390   1
  -4   2   3 62.0911 186.053   1
   4  -2  -3-63.0240 217.414   1
  -2  -2  -3 537.567 292.087   2
   2  -4   3 1010.59 339.418   2
  -4   2   1 401.498 225.062   1
   2  -4   1 193.904 171.253   1
  -2  -2  -1 145.284 216.459   2
   4  -2  -1 390.119 197.537   1
  -2  -2  -1-159.623 209.983   1
   2  -4   1-38.1655 247.564   2
  -2   4  -1-17.5200 182.735   1
   2   2   1 92.3708 203.191   1
   2  -4  -1 315.025 264.601   1
  -4   2  -1 195.530 260.394   1
  -2   4   1-73.1522 190.838   1
   2   2  -1 18.7595 166.175   1
   4  -2   1 279.001 242.270   1
  -2  -2   1 517.441 251.998   2
   2  -4  -1 191.738 224.257   2
  -2  -2   1 264.662 185.744   1
  -2  -2   3 248.766 148.570   2
   2  -4  -3-43.9229 212.063   1
   4  -2   3 133.382 219.789   1
   2  -4  -3 584.059 277.962   2
  -2   4   3-112.464 229.873   1
  -4   2  -3-21.3511 228.516   1
  -2  -2   3 124.745 142.346   1
   2   2  -3 145.747 130.594   1
   2  -4  -5 148.812 216.907   2
  -2   4   5 335.810 306.474   1
   4  -2   5 39.8267 208.038   1
   2   2  -5 126.992 86.5002   1
  -4   2  -5-211.895 263.304   1
  -2  -2   5 325.877 101.097   1
   2  -4  -5 43.8902 240.446   1
   4  -2   6 2600.81 502.309   1
   2  -4  -6 4214.53 543.175   2
  -4   2  -6 2912.95 466.510   1
  -2  -2   6 3212.34 398.093   2
   2  -4  -6 3204.25 550.290   1
  -2   4   6 2819.62 524.868   1
  -2  -2   7 397.809 199.376   2
  -2   4   7-377.670 352.085   1
   2  -4  -7 253.824 247.876   2
   4  -2   7 229.554 276.202   1
   2  -4  -7 101.811 239.300   1
  -4   2  -7 18.6922 224.785   1
  -2   4   9-13.3393 242.205   1
  -4   2  -9 9.22564 259.039   1
   2  -4  -9-29.9722 199.489   2
   4  -2   9 231.195 262.081   1
   2  -4  -9-239.675 352.463   1
  -2   4  10 210163. 5593.58   1
   2  -4 -10 228339. 5511.54   2
   4  -2  10 241786. 5797.41   1
  -4   2 -10 233005. 5848.32   1
   2  -4 -10 210569. 5730.46   1
   2  -4 -11-33.1503 200.213   2
  -2   4  11 425.831 385.187   1
   2  -4 -11 490.822 382.763   1
  -4   2 -11-48.7325 224.838   1
   4  -2  11-176.277 317.291   1
  -2   4  12 96277.8 3599.27   1
   2  -4 -12 108692. 3806.75   1
   4  -2  12 104943. 3656.82   1
  -4   2 -12 92016.4 3522.65   1
   2  -4 -12 97391.9 3467.75   2
  -4   2 -13 156.469 224.874   1
   2  -4 -13-437.776 307.332   1
   4  -2  13-261.419 258.722   1
  -2   4  13 103.439 260.675   1
   4  -2  14 67988.7 3000.05   1
   2  -4 -14 69474.5 3181.70   1
  -2   4  14 76003.3 3243.95   1
  -4   2 -15 404.766 381.020   1
  -2   4  15 190.926 277.957   1
   2  -4 -15 9.03454 343.892   1
   2  -4 -16 686606. 14113.8   1
  -3  -1 -18 174834. 6119.35   2
  -1  -3 -17 27353.4 2088.45   1
  -3  -1 -17 23758.5 2089.47   2
  -3  -1 -17 24042.8 1968.93   1
   1   3  17 26457.6 2022.54   1
   3   1  17 23359.6 1914.47   1
  -3  -1 -16 2885.67 673.995   2
  -1  -3 -16 2322.35 680.155   2
   1   3  16 2076.18 614.892   1
   3   1  16 2109.75 633.833   1
  -3  -1 -16 2379.31 618.771   1
  -1  -3 -16 2599.90 659.623   1
   1   3  15 232466. 6553.16   1
  -1  -3 -15 220479. 6583.33   2
  -1  -3 -15 224712. 6477.29   1
  -3  -1 -15 227083. 6679.16   2
  -3  -1 -15 238514. 6648.20   1
   3   1  15 228293. 6453.07   1
  -3  -1 -14 137133. 4795.54   2
  -3  -1 -14 120426. 4409.14   1
   1   3  14 128677. 4415.26   1
   3   1  14 119008. 4277.04   1
  -1  -3 -14 128266. 4542.81   2
  -1  -3 -14 127892. 4517.28   1
  -1  -3 -13 322680. 7797.91   2
  -1  -3 -13 293098. 7519.90   1
   3   1  13 317149. 7594.04   1
  -3  -1 -13 303665. 7620.75   1
   1   3  13 287182. 7402.07   1
  -3  -1 -13 297617. 7646.59   2
   1   3  12 28262.6 1892.09   1
  -1  -3 -12 24178.0 1734.73   1
   4  -3 -12 29348.8 1771.84   1
  -1  -3 -12 26011.3 1814.73   2
   3   1  12 26626.5 1769.63   1
  -4   3  12 25917.0 1629.59   1
  -3  -1 -12 27451.2 1901.45   2
  -3  -1 -12 26559.0 1845.90   1
  -4   3  11 13460.1 1142.41   1
   3  -4  11 13426.7 1043.33   1
  -3  -1 -11 16757.8 1451.16   1
  -3   4 -11 16542.9 1168.53   1
  -3  -1 -11 15587.0 1375.00   2
   3   1  11 15521.0 1341.19   1
  -1  -3 -11 16331.7 1393.56   2
   1   3  11 18467.6 1429.67   1
   4  -3 -11 16407.2 1249.91   1
  -1  -3 -11 16638.0 1422.87   1
  -3  -1 -10 774534. 14529.2   1
  -3  -1  -9 16876.1 1366.71   2
  -1  -3  -9 16793.2 1321.48   2
   4  -3  -9 16324.6 1188.76   1
   3   1   9 14663.8 1238.59   1
  -4   1   9 14695.7 927.974   1
   1  -4   9 15483.5 1222.87   2
   1   3   9 14829.9 1222.14   1
  -3   4  -9 14886.4 1078.12   1
  -4   3   9 17876.6 1205.10   1
   3  -4   9 14453.7 1046.88   1
  -1  -3  -9 16744.5 1321.95   1
   4  -1  -9 17570.9 1022.89   1
  -3  -1  -9 15309.4 1326.71   1
   4  -3  -8 320985. 7084.72   1
  -3  -1  -8 369326. 7781.49   2
  -1  -3  -8 335343. 7523.25   2
  -3   4  -8 353073. 7079.71   1
  -3  -1  -8 360690. 7760.22   1
  -1  -3  -8 339386. 7602.09   1
   1   3   8 352616. 7613.92   1
   1   3   7 488681. 9676.92   1
  -1  -3  -4 27245.2 1495.90   1
  -1  -3  -4 28364.9 1530.66   2
   4  -1  -4 27338.2 1278.00   1
   4  -3  -4 29393.3 1464.66   1
   1  -4   4 28932.4 1421.32   2
  -3  -1  -4 29046.1 1545.05   1
   4  -3  -4 24668.4 1116.43   2
   3  -4   4 27184.6 1343.49   1
  -1   4  -4 25978.3 1165.45   1
  -3   4  -4 27665.0 1363.03   1
  -4   1   4 27843.1 1263.74   1
   3  -4   4 27715.3 1526.04   2
   3   1   4 26322.6 1489.30   1
   1   3   4 27728.7 1477.01   1
  -4   3   4 29978.9 1483.63   1
  -3  -1  -4 29270.9 1553.47   2
   4  -1   0 97742.6 2743.95   1
  -4   1   0 102580. 2823.86   1
   1  -4   0 95508.0 2817.39   2
  -1  -3   0 93737.7 2733.31   2
   3  -4   0 95722.5 2753.06   1
   3   1   0 91699.5 2642.65   1
  -3  -1   0 90137.7 2607.23   2
   4  -3   0 88062.9 2668.56   2
   1  -4   0 97037.4 2698.50   1
  -3   4   0 92942.7 2755.60   1
  -3  -1   0 89158.4 2608.27   1
   1   3   0 95269.2 2632.96   1
  -1   4   0 91334.2 2640.41   1
  -1  -3   0 93954.3 2633.74   1
  -4   3   0 98326.4 2843.30   1
   4  -3   0 92739.5 2798.14   1
   3  -4   0 94927.0 2775.48   2
  -4   1  -3 74888.9 2485.26   1
   4  -3   3 69242.4 2345.31   1
   3  -4  -3 65546.9 2188.71   2
   4  -1   3 69027.9 2387.56   1
  -3  -1   3 71773.7 2005.99   2
   1  -4  -3 69681.8 2412.34   2
   1   3  -3 70810.0 1924.70   1
  -1  -3   3 63024.9 2144.10   2
   3  -4  -3 70984.8 2435.31   1
  -4   3  -3 70195.4 2399.17   1
   3   1  -3 69134.5 1989.66   1
  -1   4   3 69925.1 2430.04   1
  -3   4   3 67965.0 2335.48   1
   1  -4  -3 72199.1 2468.88   1
  -3  -1   3 62805.2 1918.62   1
  -1  -3   3 67779.9 1860.97   1
   3   1  -5 55917.2 1630.13   1
  -1   4   5 61934.5 2373.49   1
   1   3  -5 59120.6 1462.72   1
   4  -3   5 58331.2 2201.85   1
  -1  -3   5 55203.0 1970.75   2
   1  -4  -5 60784.6 2279.39   2
  -1  -3   5 57598.7 1424.27   1
   3  -4  -5 58424.2 2062.05   2
  -3   4   5 62319.1 2321.99   1
  -3  -1   5 67665.9 1701.27   1
   1  -4  -5 64060.8 2423.66   1
  -4   3  -5 58472.7 2235.02   1
  -3  -1   5 61004.3 1648.72   2
  -4   1  -5 66842.9 2434.07   1
   3  -4  -5 58576.4 2317.35   1
   4  -1   5 62487.0 2339.07   1
  -4   1  -7 362862. 7606.85   1
   3  -4  -7 360091. 7522.66   1
  -4   3  -7 343732. 7355.21   1
   4  -3   7 346867. 7277.77   1
   4  -1   7 367558. 7568.70   1
   3  -4  -8 12129.0 924.413   2
  -3   4   8 11989.2 1031.94   1
  -1  -3   8 13817.6 991.020   2
   1  -4  -8 11640.3 1106.19   1
   1  -4  -8 12679.7 1065.65   2
  -4   1  -8 12593.4 1145.05   1
  -1   4   8 11855.1 1089.36   1
   3  -4  -8 11634.1 1057.33   1
   4  -3   8 12535.4 1018.21   1
   4  -1   8 11424.5 1055.86   1
  -4   3  -8 14764.5 1137.36   1
   4  -1  10 204646. 5565.15   1
   4  -3  10 215511. 5429.57   1
  -4   3 -10 216645. 5535.20   1
   1  -4 -10 190223. 5531.05   1
  -4   1 -10 217445. 5729.49   1
   3  -4 -10 227021. 5150.14   2
   3  -4 -10 236234. 5765.96   1
   1  -4 -10 216897. 5617.12   2
  -1   4  10 202946. 5548.06   1
  -3   4  10 221065. 5553.46   1
   4  -3  11 253842. 6018.36   1
  -3   4  11 253821. 6169.07   1
   4  -1  11 262440. 6329.43   1
  -4   3 -11 241899. 6072.66   1
   1  -4 -11 235421. 6238.86   1
  -1   4  11 211359. 5955.67   1
   3  -4 -11 275860. 6449.18   1
  -4   1 -11 231742. 6212.50   1
   1  -4 -11 227166. 6066.23   2
   3  -4 -11 234569. 5576.28   2
   1  -4 -12 10666.6 1164.87   1
   3  -4 -12 9722.90 1079.39   1
  -1   4  12 10246.1 1128.34   1
   1  -4 -12 11582.5 1193.88   2
  -4   3 -12 11141.7 1111.65   1
   4  -3  12 10442.1 1047.73   1
  -3   4  12 9970.17 1069.60   1
   4  -1  12 11195.6 1156.33   1
  -4   1 -12 10155.5 1130.17   1
  -1   4  13 13599.6 1328.20   1
  -4   1 -13 10957.4 1262.92   1
  -4   3 -13 12628.7 1218.03   1
   4  -1  13 12274.3 1247.35   1
   4  -3  13 12912.2 1206.72   1
   1  -4 -13 11487.0 1252.90   1
   1  -4 -13 11621.3 1263.62   2
   3  -4 -13 12295.4 1226.56   1
  -3   4  13 13777.7 1278.35   1
   4  -1  14 487160. 10054.9   1
   3  -4 -14 389133. 9615.73   1
  -3   4  14 419911. 9697.26   1
  -4   1 -14 450535. 10075.9   1
  -1   4  14 435925. 9935.26   1
   1  -4 -14 446495. 9966.85   2
   1  -4 -14 514050. 10418.1   1
  -4   1 -15 49318.2 2734.32   1
   3  -4 -15 53532.7 2831.20   1
   1  -4 -15 52113.7 2801.88   1
  -1   4  15 55903.8 2897.64   1
   4  -1  15 49331.8 2643.98   1
  -1   4  16 107083. 4195.08   1
   1  -4 -16 99471.7 4100.56   1
   4  -1  16 91333.2 3803.15   1
  -4   1 -16 95208.7 3938.75   1
   1  -4 -17 111289. 4482.50   1
  -4   4   0 88551.4 2809.01   1
  -4   0   0 79884.3 2574.69   1
   4  -4   0 88119.7 2709.24   2
   4   0   0 76690.9 2517.19   1
   0  -4   0 90468.7 2662.27   1
   0  -4   0 99600.3 2914.73   2
   0   4   0 86359.8 2627.64   1
   4  -4   0 94055.9 2837.47   1
   0   4   4 224475. 5244.18   1
   0   4  -4 205557. 4335.83   1
   4  -4  -4 207210. 4668.40   2
   0  -4  -4 211780. 5166.38   1
  -4   4  -4 223226. 5146.69   1
  -4   0  -4 235470. 5347.61   1
   0  -4   4 225459. 5031.50   2
   4  -4   4 213217. 5008.97   1
   4   0   4 216498. 5169.06   1
   0  -4  -4 221632. 5228.78   2
   4  -4  -4 225995. 5196.16   1
   4   0  -5 125686. 3200.83   1
   0  -4  -5 139128. 3959.43   1
  -4   4   5 143320. 3896.64   1
  -4   0  -5 135877. 3936.73   1
   4  -4  -5 129246. 3772.41   1
   0   4  -5 137647. 3021.61   1
   0   4   5 144693. 4023.10   1
   0  -4  -5 139601. 3947.95   2
   0  -4   5 141589. 3702.61   2
   4  -4  -5 127432. 3344.99   2
   4   0   5 150209. 4044.32   1
   0  -4   5 137169. 2990.85   1
   4  -4   5 148433. 3831.63   1
  -4   4  -5 138483. 3790.36   1
  -4   0   5 142152. 3287.55   1
   0  -4  -6 56896.3 2393.39   2
   4   0  -6 58551.0 1836.77   1
   0   4   6 56146.4 2363.19   1
   4  -4  -6 59322.8 2318.49   1
   0  -4   6 65554.1 2316.82   2
  -4   0   6 49874.2 1746.46   1
   4  -4   6 56689.1 2198.73   1
   0  -4   6 51599.4 1488.64   1
  -4   0  -6 57824.0 2471.83   1
   4  -4  -6 52298.8 1898.50   2
  -4   4  -6 58100.1 2233.20   1
   0  -4  -6 59525.0 2442.67   1
   0   4  -6 53753.5 1546.93   1
  -4   4   6 54999.5 2234.15   1
  -4   0   6 51584.1 1194.91   2
   4   0   6 55143.0 2369.83   1
   0   4  -7 7182.26 435.179   1
  -4   0   7 7880.96 598.466   1
   4   0   7 6756.07 839.591   1
   4  -4  -7 6286.30 773.528   1
  -4   4   7 6910.88 777.454   1
   0   4   7 7103.70 842.279   1
   4  -4  -7 10907.7 805.098   2
   4   0  -7 6963.01 579.866   1
  -4   0  -7 6498.50 834.476   1
   0  -4  -7 7042.03 845.443   1
  -4   4  -7 7140.12 800.786   1
   4  -4   7 7584.97 782.652   1
   0  -4   7 8333.75 859.327   2
   0  -4  -7 7818.31 872.010   2
  -4   0  -8 4476.87 700.324   1
  -4   0   8 4673.23 451.565   1
  -4   4   8 4521.33 624.148   1
  -4   4  -8 5142.22 700.354   1
   4  -4   8 5191.08 645.326   1
   4   0  -8 4071.19 422.279   1
   0   4   8 3733.19 654.476   1
   4   0   8 4590.45 728.689   1
   4  -4  -8 6271.03 757.266   1
   0  -4   8 4322.89 590.620   2
   4  -4  -8 4468.39 537.125   2
   0  -4  -8 4614.48 719.797   1
   0  -4  -8 4316.22 684.965   2
   4  -4  -9 90341.9 3237.05   1
   4   0   9 88625.6 3328.19   1
  -4   4   9 91025.3 3130.20   1
   4  -4  -9 89943.4 2659.54   2
   4  -4   9 96698.9 3126.11   1
   0  -4  -9 93794.0 3386.18   2
   0   4   9 87057.5 3281.13   1
   0  -4   9 100862. 3245.04   2
  -4   4  -9 88065.9 3082.21   1
  -4   0  -9 92528.7 3408.39   1
   0  -4  -9 83019.7 3300.66   1
   0  -4 -10 587203. 11730.6   1
   0  -4 -11 489102. 10245.5   1
  -4   0 -11 468742. 10154.0   1
   4  -4 -11 426264. 9683.82   1
   0   4  11 478360. 10084.7   1
  -4   4  11 530408. 10073.2   1
   4  -4  12 131288. 4069.69   1
  -4   0 -12 132390. 4545.02   1
   0  -4 -12 143644. 4639.95   2
   0   4  12 120325. 4312.47   1
  -4   4  12 140979. 4383.74   1
   4  -4 -12 121412. 4216.26   1
   4   0  12 129975. 4356.69   1
   0  -4 -12 133197. 4529.72   1
  -4   4 -12 129239. 4143.78   1
   0   4  13 303102. 7618.15   1
  -4   4  13 309832. 7410.70   1
   0  -4 -13 296165. 7622.28   1
   0  -4 -13 305677. 7730.07   2
   4   0  13 285092. 7350.08   1
  -4   0 -13 275274. 7506.69   1
   0  -4 -14 529456. 11418.2   2
   0   4  14 486471. 10843.0   1
  -4   0 -14 498932. 11052.2   1
   0  -4 -14 505751. 11097.7   1
   4  -4 -14 471050. 10730.2   1
   4   0  14 531878. 11104.9   1
   0  -4 -15 50480.1 2788.28   1
   0   4  15 42886.0 2545.08   1
  -4   0 -15 46456.4 2740.52   2
   4   0  15 50191.1 2691.36   1
  -4   0 -15 45400.6 2687.93   1
   0  -4 -15 48173.5 2832.78   2
   0  -4 -16 2981.31 732.941   1
   4   0  16 3172.71 760.642   1
  -4   0 -16 3950.23 841.712   2
  -4   0 -16 2575.45 648.034   1
   0   4  16 3231.08 749.247   1
   0  -4 -17 14556.2 1522.31   1
  -4   0 -17 11921.0 1369.99   1
  -4   0 -17 10457.6 1383.91   2
   4   0  17 12096.0 1368.67   1
   0   4  17 14236.0 1519.95   1
  -4   0 -18 24231.2 2090.67   2
   0  -4 -18 28516.9 2231.51   1
  -4   0 -19 24124.2 2158.88   2
  -2  -3 -18 137653. 5120.84   1
  -3  -2 -18 129270. 5133.86   2
   3   2  18 127491. 4902.25   1
   2   3  18 130361. 4997.09   1
  -3  -2 -18 122714. 4875.65   1
  -2  -3 -17 66818.2 3519.52   2
  -2  -3 -17 62936.7 3319.77   1
   2   3  17 60854.6 3204.84   1
  -3  -2 -17 60168.1 3316.84   2
   3   2  17 73278.7 3500.46   1
  -3  -2 -17 61973.2 3269.33   1
  -3  -2 -16 41895.1 2656.43   2
   3   2  16 34793.5 2385.16   1
  -3  -2 -16 41847.9 2628.26   1
  -2  -3 -16 42300.0 2730.39   2
   2   3  16 35586.5 2411.32   1
  -2  -3 -16 38307.5 2513.61   1
   2   3  15 33592.0 2311.15   1
  -2  -3 -15 34815.2 2327.21   1
  -3  -2 -15 37241.6 2441.85   1
  -3  -2 -15 35533.1 2369.82   2
  -2  -3 -15 36288.5 2486.31   2
   3   2  15 34614.2 2295.67   1
  -2  -3 -14 226207. 6610.24   1
  -3  -2 -14 239751. 6810.06   2
   2   3  14 238470. 6655.51   1
   3   2  14 244432. 6698.40   1
  -2  -3 -14 255709. 6987.15   2
  -3  -2 -14 220781. 6607.23   1
  -3  -2 -13 34755.2 2243.67   2
  -2  -3 -13 27217.0 2002.52   1
   3   2  13 31786.1 2079.64   1
  -2  -3 -13 30057.1 2081.10   2
   2   3  13 27799.1 1972.09   1
  -3  -2 -13 31967.2 2142.83   1
  -3  -2 -12 10345.9 1200.38   2
  -3  -2 -12 9113.67 1164.63   1
   2   3  12 10169.6 1157.66   1
   3   2  12 10617.9 1185.29   1
  -2  -3 -12 10343.9 1202.78   1
  -2  -3 -12 11503.5 1207.69   2
  -3  -2 -11 201126. 5872.10   1
   2   3  11 181902. 5487.84   1
  -3  -2 -11 214808. 5987.92   2
   5  -3 -11 224816. 5532.50   1
  -2  -3 -11 205484. 5865.91   1
  -5   3  11 210767. 5345.33   1
  -2  -3 -11 194229. 5691.64   2
   3   2  11 206085. 5757.67   1
   3   2  10 288888. 7099.80   1
   5  -2 -10 282340. 6359.31   1
  -3  -2 -10 286902. 7235.73   1
  -3  -2 -10 274162. 7148.00   2
   2   3  10 300666. 7213.85   1
  -2  -3 -10 302927. 7235.67   2
  -2  -3 -10 303620. 7287.55   1
  -5   3  10 285147. 6588.43   1
  -3   5 -10 271577. 6198.44   1
  -5   2  10 300228. 6402.61   1
   5  -3 -10 315170. 6820.92   1
   2  -5   9 315958. 7503.32   2
  -3  -2  -9 337149. 7842.97   1
   2   3   9 355611. 7817.55   1
   3   2   9 329026. 7600.85   1
   3  -5   9 326324. 6765.87   1
  -2  -3  -9 340103. 7777.19   1
  -3  -2  -9 353756. 7912.33   2
   5  -3  -9 344162. 7283.28   1
  -5   3   9 303538. 6975.63   1
  -5   2   9 346552. 6955.03   1
  -2  -3  -9 297057. 7493.40   2
   2   3   8 62793.1 2727.61   1
  -5   2   8 75377.5 2505.52   1
   2  -5   8 67906.4 2773.71   2
  -5   3   8 61889.7 2458.01   1
  -2  -3  -8 63977.8 2780.06   1
  -3   5  -8 67275.8 2390.47   1
  -2   5  -8 67640.1 2210.37   1
  -3  -2  -8 59434.4 2735.39   1
   3  -5   8 67415.4 2840.61   2
  -3  -2  -8 60337.8 2738.76   2
   3   2   8 68660.2 2792.20   1
   5  -3  -8 66769.9 2533.46   1
   3  -5   8 69909.0 2399.61   1
   5  -2  -8 60017.4 2302.15   1
   2  -5   8 61703.6 2076.62   1
  -2  -3  -8 64625.3 2793.05   2
  -3  -2  -7 284372. 6569.33   2
  -2  -3  -7 255419. 6329.99   2
   2   3   7 256799. 6345.66   1
   2  -5   7 274920. 5482.16   1
   3  -5   7 272795. 6484.31   2
   5  -2  -7 239109. 5663.67   1
   3   2   7 260142. 6342.40   1
   2  -5   7 261598. 6266.58   2
  -3  -2  -7 258248. 6427.51   1
  -2  -3  -7 254480. 6351.86   1
  -5   2   7 265719. 5757.48   1
  -5   3   7 302429. 6171.62   1
   5  -3  -7 261463. 5986.55   1
  -5   3   5 293964. 6565.12   1
  -3  -2  -5 339592. 7231.53   1
   3  -5   5 320753. 6543.21   1
  -2  -3  -5 317937. 7068.11   1
   3   2   5 312153. 7004.16   1
  -2  -3  -5 331676. 7162.10   2
  -5   2   4 206305. 4828.86   1
   3  -5   4 203542. 4792.49   1
   5  -2  -4 215747. 4885.60   1
  -3  -2  -4 222977. 5316.84   1
   2   3   4 195854. 5072.95   1
  -5   3   4 186394. 4783.24   1
  -2  -3  -4 222858. 5317.69   2
   3   2   4 207038. 5176.86   1
  -3  -2  -4 204398. 5118.29   2
  -2  -3  -4 215951. 5199.48   1
   2  -5   4 213578. 5095.16   2
   3  -5   4 219586. 5230.21   2
   5  -3  -4 205322. 4994.28   1
  -2   5  -4 196248. 4618.16   1
  -3   5  -4 208428. 4858.71   1
  -2  -3  -3 219016. 5196.98   2
   3  -5   3 221848. 5203.67   2
   3  -5   3 202092. 4743.91   1
   2   3   3 205248. 5055.74   1
   5  -2  -3 228677. 5003.21   1
   2  -5   3 205504. 4665.74   1
   5  -3  -3 202226. 4961.06   1
  -3  -2  -3 199817. 4997.10   1
  -5   3   3 203244. 4903.43   1
   3   2   3 210868. 5108.07   1
   2  -5   3 213803. 5037.94   2
  -3   5  -3 209607. 4871.69   1
  -2   5  -3 183897. 4595.11   1
  -2  -3  -3 207986. 5039.67   1
  -3  -2  -3 202301. 5004.58   2
  -5   2   3 222210. 4960.48   1
  -5   3   1 114137. 3258.52   1
  -2   5  -1 94825.5 2904.67   1
  -2  -3  -1 97785.0 2993.87   1
   3  -5   1 100001. 2999.83   1
   5  -2  -1 106555. 3134.30   1
   3   2   1 96648.3 3012.26   1
  -3  -2  -1 107010. 3085.11   1
  -3  -2  -1 98607.5 3013.10   2
   5  -3  -1 100646. 3092.45   1
   2   3   1 99636.5 3020.56   1
   3  -5   1 104689. 3185.76   2
  -2  -3  -1 102474. 3113.59   2
   2  -5   1 99964.1 3134.81   2
   2  -5   1 100779. 2974.87   1
  -5   2   1 92259.3 2923.60   1
  -3   5  -1 96946.2 3036.68   1
  -2   5   0 38734.6 1770.72   1
  -3  -2   0 39195.7 1728.98   2
  -2  -3   0 39043.0 1697.17   1
   2   3   0 39006.7 1715.94   1
  -3  -2   0 43101.0 1755.59   1
   3  -5   0 40232.4 1827.74   2
   2  -5   0 37456.0 1810.35   2
   5  -3   0 38878.3 1809.80   1
   2  -5   0 38983.8 1770.74   1
   3   2   0 33409.4 1620.75   1
  -5   3   0 46218.1 1978.15   1
  -2  -3   0 43128.3 1842.65   2
   3  -5   0 41169.0 1824.71   1
   5  -2   0 34916.5 1709.40   1
  -5   2   0 42174.4 1829.36   1
  -3   5   0 38200.7 1771.47   1
  -2   5   1 228485. 5374.68   1
   5  -3   1 247948. 5545.01   1
  -5   3  -1 241601. 5544.62   1
   3  -5  -1 246204. 5520.55   1
   3   2  -1 245781. 5225.66   1
  -3   5   1 243210. 5461.88   1
   3  -5  -1 235108. 5418.59   2
  -5   2  -1 215196. 5315.95   1
  -3  -2   1 220343. 5108.87   2
  -2  -3   1 244777. 5338.79   2
  -3  -2   1 251405. 5181.84   1
   2  -5  -1 242162. 5413.70   1
   2  -5  -1 233616. 5440.03   2
   5  -2   1 245473. 5499.97   1
  -2  -3   1 238019. 5088.90   1
  -3  -2   4 85607.8 2533.43   2
  -3   5   4 93172.8 3096.10   1
   2  -5  -4 83542.5 2896.25   2
  -2  -3   4 96982.2 2371.59   1
  -2  -3   4 88375.0 2695.97   2
   5  -3   4 94450.8 3053.40   1
  -5   3  -4 93464.4 3107.38   1
   3  -5  -4 93993.1 3106.72   1
   2  -5  -4 95667.2 3149.27   1
  -2   5   4 100461. 3147.68   1
  -5   2  -4 88350.8 3028.21   1
   3  -5  -4 90323.9 2907.80   2
   2   3  -4 92302.7 2377.55   1
   5  -2   4 91735.9 3030.34   1
   3   2  -4 91333.6 2442.97   1
  -3  -2   4 77642.8 2278.34   1
   2  -5  -7 425980. 8736.43   1
   3  -5  -7 424071. 8598.83   1
  -2   5   7 419786. 8606.22   1
   2  -5  -7 420730. 8480.12   2
  -2   5   8 63012.5 2703.18   1
   5  -2   8 54853.4 2521.40   1
  -3   5   8 62692.4 2672.78   1
   2  -5  -8 67875.2 2810.21   1
   3  -5  -8 66631.8 2564.99   2
  -2  -3   8 61117.8 2226.07   2
   3  -5  -8 67086.8 2793.33   1
   5  -3   8 62287.4 2602.69   1
  -5   2  -8 64143.9 2744.16   1
   2  -5  -8 64456.7 2634.36   2
  -5   3  -8 67462.2 2715.71   1
   2  -5  -9 71169.3 3016.41   1
   3  -5  -9 79283.0 2870.68   2
   5  -2   9 70248.5 2916.29   1
   3  -5  -9 75432.6 3009.35   1
   5  -3   9 72387.4 2874.92   1
  -5   2  -9 69075.9 2947.14   1
  -5   3  -9 75751.6 3011.26   1
  -3   5   9 74833.7 2959.74   1
   2  -5  -9 73420.3 2920.04   2
  -2   5   9 69986.2 2931.02   1
  -5   2 -10 423617. 9160.19   1
   5  -3  10 417314. 8846.09   1
   2  -5 -10 428387. 8903.07   2
   3  -5 -10 407529. 9041.14   1
   5  -2  10 393509. 8812.16   1
   2  -5 -10 432793. 9208.28   1
  -5   3 -10 415374. 9028.58   1
  -2   5  10 409703. 8997.10   1
   3  -5 -10 416929. 8664.47   2
   5  -3  11 34535.4 2007.67   1
   3  -5 -11 35098.5 1935.10   2
   3  -5 -11 37272.0 2170.67   1
   2  -5 -11 33667.9 2115.63   1
  -5   2 -11 32541.6 2068.25   1
   5  -2  11 31798.0 2000.02   1
  -3   5  11 31637.1 1942.21   1
   2  -5 -11 31753.5 1965.63   2
  -5   3 -11 35155.9 2102.74   1
  -2   5  11 31500.9 2002.72   1
   5  -2  12 58186.0 2733.43   1
  -5   3 -12 52976.8 2702.29   1
  -3   5  12 59648.6 2818.28   1
   5  -3  12 54100.6 2614.71   1
   3  -5 -12 48040.5 2685.97   1
   2  -5 -12 57444.8 2833.98   1
  -5   2 -12 55694.1 2794.14   1
  -2   5  12 57019.0 2783.54   1
   2  -5 -12 55818.3 2766.65   2
  -2   5  13 119681. 4348.38   1
   2  -5 -13 118678. 4411.59   1
  -3   5  13 121447. 4404.25   1
   3  -5 -13 113115. 4305.72   1
   2  -5 -13 123209. 4340.88   2
   5  -3  13 139480. 4493.55   1
  -5   2 -13 124290. 4423.66   1
   5  -2  13 131274. 4498.15   1
  -5   3 -13 128378. 4425.85   1
   3  -5 -14 166004. 5396.04   1
   5  -3  14 176735. 5355.04   1
  -5   3 -14 170875. 5356.70   1
  -5   2 -14 166419. 5366.85   1
  -3   5  14 187531. 5600.22   1
   5  -2  14 180538. 5495.75   1
   2  -5 -14 180132. 5646.59   1
   3  -5 -15 110667. 4308.57   1
  -3   5  15 105588. 4195.63   1
   2  -5 -15 105368. 4287.79   1
  -5   2 -15 103845. 4212.00   1
   5  -2  15 105376. 4142.56   1
  -2   5  15 110046. 4273.99   1
  -5   2 -16 9082.54 1207.74   1
  -2   5  16 12531.6 1394.15   1
   2  -5 -16 13447.8 1454.71   1
   3  -5 -16 11101.4 1346.91   1
   2  -5 -17 42735.6 2701.44   1
  -4  -1 -19 1962.29 679.096   2
  -4  -1 -18 3279.76 838.464   2
   1   4  18 2366.62 657.014   1
  -1  -4 -18 2140.36 617.170   1
  -4  -1 -18 2828.44 722.154   1
   4   1  17 2178.98 632.073   1
  -4  -1 -17 2423.68 614.090   1
  -1  -4 -17 1870.35 599.580   1
  -4  -1 -17 2538.68 691.478   2
   1   4  17 1721.55 583.630   1
   4   1  16 116109. 4590.33   1
  -4  -1 -16 122044. 4724.24   1
  -4  -1 -16 129787. 4948.49   2
  -1  -4 -16 125349. 4897.32   2
   1   4  16 127969. 4732.95   1
   4   1  15 1521.50 541.342   1
  -1  -4 -15 1289.43 586.793   1
  -4  -1 -15 1725.95 628.527   2
  -4  -1 -15 1009.34 374.351   1
  -1  -4 -15 1999.32 717.946   2
   1   4  15 1841.77 624.767   1
   1   4  14 5975.19 932.959   1
   4   1  14 5160.21 922.171   1
  -1  -4 -14 4064.95 770.505   1
  -4  -1 -14 5814.13 1011.15   2
  -1  -4 -14 5413.58 1023.69   2
  -4  -1 -14 4997.18 914.041   1
  -4  -1 -13 451.267 402.835   1
  -1  -4 -13-120.433 319.405   2
   1   4  13-209.706 404.231   1
   5  -4 -13 223.129 356.836   1
  -1  -4 -13 329.779 344.710   1
  -4  -1 -13 321.790 279.007   2
   4   1  13-199.735 401.308   1
  -1  -4 -11 677.178 318.974   2
  -4  -1 -11 814.925 362.912   2
  -1  -4 -11 1352.46 494.451   1
  -4   5 -11 1196.28 396.606   1
  -4  -1 -11 2622.36 645.173   1
   4  -5  11 1461.66 387.120   1
   5  -4 -11 1196.77 433.639   1
   4   1  11 878.321 424.393   1
  -5   4  11 1318.99 416.982   1
   1   4  11 1301.33 489.228   1
   1  -5  10 9550.70 1072.18   2
  -5   4  10 7269.55 852.860   1
   1   4  10 8354.60 1021.49   1
   5  -4 -10 7795.51 891.093   1
  -4   5 -10 9286.89 966.272   1
  -4  -1 -10 8298.23 1037.25   1
   4   1  10 7805.08 956.559   1
  -1  -4 -10 8000.48 986.553   2
   4  -5  10 8532.85 876.795   1
  -4  -1 -10 8952.77 1053.54   2
  -1  -4 -10 8110.90 1003.41   1
   1   4   9 9696.14 1039.34   1
   5  -1  -9 9686.24 813.927   1
  -1  -4  -9 9591.61 1072.10   1
  -4   5  -9 10349.6 984.309   1
   4   1   9 9859.18 1078.62   1
  -4  -1  -9 8867.48 1043.76   2
   4  -5   9 10531.9 951.598   1
  -4  -1  -9 8698.38 1052.24   1
   5  -4  -9 9996.08 1029.34   1
   1  -5   9 10364.5 1074.91   2
  -5   4   9 8473.25 955.801   1
  -1  -4  -9 9651.06 1089.94   2
  -4  -1  -8 346962. 7821.12   2
   1  -5   8 306790. 7252.47   2
   5  -4  -8 323100. 7287.36   1
   1   4   8 321722. 7560.82   1
   4   1   8 332071. 7621.02   1
  -1  -4  -8 326219. 7623.17   1
  -5   4   8 324623. 7255.83   1
  -4  -1  -8 336075. 7602.01   1
  -4   5  -8 332449. 7194.30   1
  -1  -4  -8 311362. 7534.17   2
   4  -5   8 352269. 7192.65   1
   1  -5   7 5024.32 501.737   1
  -5   1   7 5734.57 624.371   1
   1  -5   7 4964.62 679.658   2
   4   1   7 4595.28 734.018   1
   5  -4  -7 4816.46 677.416   1
   1   4   7 6314.20 792.417   1
  -4  -1  -7 4374.61 765.995   2
   5  -4  -7 5113.35 516.919   2
   5  -1  -7 5314.76 610.943   1
   4  -5   7 5404.71 679.031   1
  -1   5  -7 5113.72 518.368   1
  -4  -1  -7 5125.72 744.975   1
  -5   4   7 4233.36 686.033   1
  -4   5  -7 5469.32 689.128   1
  -1  -4  -7 4712.32 781.309   2
  -1  -4  -7 5056.78 774.872   1
  -1   5  -6 29887.4 1331.86   1
   4  -5   6 26809.5 1529.78   1
   5  -1  -6 29797.1 1458.28   1
  -5   4   6 33708.6 1750.44   1
   4  -5   6 28694.5 1823.68   2
   1   4   6 27219.0 1691.91   1
  -4  -1  -6 28076.9 1721.20   2
   4   1   6 23280.3 1606.95   1
   1  -5   6 27828.1 1270.51   1
  -4  -1  -6 23905.5 1633.00   1
  -5   1   6 27763.0 1385.87   1
   1  -5   6 28344.4 1623.50   2
   5  -4  -6 29458.7 1353.24   2
  -4   5  -6 29813.4 1642.35   1
  -1  -4  -6 28228.8 1748.04   2
  -1  -4  -6 29839.7 1786.63   1
  -5   4   5 37728.6 1864.42   1
  -4  -1  -5 36170.3 1980.26   1
  -4   5  -5 40314.6 1925.26   1
   4  -5   5 43080.7 2155.79   2
  -4  -1  -5 46918.0 2145.38   2
   5  -4  -5 38775.3 1619.81   2
   4   1   5 41258.4 2068.81   1
  -5   1   5 45996.3 1822.50   1
  -5   1   5 31220.6 1179.67   2
   4  -5   5 44461.5 1927.64   1
   1   4   5 41880.1 2021.30   1
  -1  -4  -5 41576.3 2071.16   1
  -1  -4  -5 42416.4 2056.53   2
   1  -5   5 43348.1 1651.69   1
  -1   5  -5 45903.6 1695.88   1
   1  -5   5 45165.5 2043.60   2
   5  -4  -5 37154.6 1883.16   1
   5  -1  -5 44069.3 1801.19   1
   5  -4  -3 5386.02 725.504   1
  -5   4   3 6273.29 760.872   1
  -4  -1  -3 5909.88 753.045   1
   4  -5   3 5633.04 744.782   2
  -4   5  -3 6182.05 705.721   1
  -1   5  -3 4962.66 568.076   1
  -1  -4  -3 6170.06 717.790   1
   5  -4  -3 6524.04 659.185   2
   4  -5   3 5919.72 696.264   1
  -5   1   3 4767.79 614.076   1
   1  -5   3 4995.64 585.183   1
   1   4   3 5801.62 735.631   1
   4   1   3 5731.39 711.930   1
   5  -1  -3 6238.05 699.731   1
  -4  -1  -3 5757.99 749.924   2
  -1  -4  -3 4901.13 671.673   2
   1  -5   3 5700.52 727.285   2
  -4  -1  -2 67480.3 2466.16   2
   1  -5   2 61326.9 2415.96   2
   5  -1  -2 59640.8 2289.68   1
  -5   4   2 72861.2 2581.16   1
   1  -5   2 58510.2 2156.10   1
   4  -5   2 66951.5 2443.55   1
  -4  -1  -2 65982.3 2494.68   1
   1   4   2 64031.1 2462.01   1
   4   1   2 62634.7 2450.86   1
  -5   1   2 76654.4 2514.62   1
  -1  -4  -2 67815.5 2478.65   1
   4  -5   2 67450.1 2561.91   2
  -1   5  -2 67622.0 2296.52   1
   5  -4  -2 64028.5 2314.85   2
   5  -4  -2 63271.0 2463.99   1
  -1  -4  -2 68291.3 2533.92   2
  -4   5  -2 64934.4 2435.08   1
   1   4   1 23.1110 225.719   1
   5  -1  -1 254.608 210.966   1
   1  -5   1 292.561 192.258   1
   5  -4  -1 775.171 379.613   1
  -4  -1  -1 102.597 272.372   1
  -1  -4  -1 93.6418 269.256   2
  -5   4   1 313.794 336.276   1
  -1  -4  -1 428.925 294.072   1
   4  -5   1 209.093 203.046   1
   5  -4  -1 267.820 223.101   2
  -1   5  -1 237.485 245.066   1
   4   1   1 87.8372 208.906   1
  -5   1   1 955.267 348.325   1
  -4   5  -1 202.245 255.120   1
  -4  -1  -1 108.342 212.435   2
   4  -5   1 342.137 293.306   2
   1  -5   1-220.181 242.195   2
   1   4  -1 20284.2 1209.66   1
   4  -5  -1 18318.2 1237.52   2
  -1  -4   1 21210.2 1181.91   1
   5  -4   1 19166.9 1305.94   1
   4  -5  -1 22315.3 1391.99   1
  -5   4  -1 20885.2 1350.12   1
   5  -1   1 20922.6 1318.27   1
  -4  -1   1 24967.8 1329.31   1
  -5   1  -1 20887.6 1321.10   1
   1  -5  -1 19355.2 1272.30   1
  -1   5   1 21701.2 1341.54   1
  -4  -1   1 21920.8 1215.90   2
   4   1  -1 23525.7 1306.72   1
  -1  -4   1 19525.1 1253.73   2
  -4   5   1 21721.1 1362.18   1
   1  -5  -1 20001.3 1330.38   2
  -5   4  -2 151415. 4136.65   1
   5  -1   2 141623. 3964.46   1
  -5   1  -2 145061. 4010.54   1
   1  -5  -2 150759. 4095.53   1
   4  -5  -2 156056. 4144.80   1
  -1  -4   2 155039. 3702.39   1
   4   1  -2 161492. 3856.33   1
  -4  -1   2 141724. 3602.72   2
  -1   5   2 144908. 4023.69   1
  -4  -1   2 132191. 3589.76   1
   5  -4   2 156956. 4117.59   1
   4  -5  -2 152636. 4009.16   2
   1   4  -2 148783. 3667.46   1
   1  -5  -2 146085. 4055.59   2
  -4   5   2 139741. 3998.64   1
  -1  -4   2 143706. 3912.42   2
  -1  -4   3 11939.2 821.990   1
  -1  -4   3 10807.4 923.984   2
  -4  -1   3 11591.2 854.796   1
   4  -5  -3 11272.6 959.144   2
  -5   1  -3 11092.3 1002.82   1
   1  -5  -3 12740.0 1079.97   1
   5  -1   3 12516.0 1044.40   1
   1   4  -3 11493.7 798.426   1
  -1   5   3 12466.6 1029.42   1
   1  -5  -3 15308.0 1198.42   2
   4   1  -3 13540.5 930.083   1
   4  -5  -3 12580.4 1059.60   1
  -5   4  -3 11594.8 1010.06   1
  -4  -1   3 10765.4 815.473   2
   5  -4   3 13998.2 1086.40   1
  -4   5   3 13453.9 1090.05   1
   5  -4   5 10652.4 982.085   1
  -4  -1   5 9284.02 691.721   2
   4   1  -5 10407.3 760.965   1
  -4   5   5 9603.65 968.650   1
  -1  -4   5 10609.4 907.597   2
   1   4  -5 9100.23 638.747   1
   5  -1   5 8857.55 928.294   1
  -1   5   5 11305.1 1065.37   1
   1  -5  -5 11205.2 1015.96   2
   1  -5  -5 9079.42 974.218   1
  -5   1  -5 10226.8 1022.24   1
   4  -5  -5 10264.8 897.873   2
  -5   4  -5 8582.17 864.039   1
   4  -5  -5 9719.56 973.139   1
  -1  -4   5 9649.25 633.420   1
  -4  -1   5 10865.4 767.170   1
   4  -5  -6 40815.1 2057.11   1
  -4   5   6 46593.3 2133.00   1
   1  -5  -6 43182.1 2119.22   1
   4   1  -6 41167.7 1513.27   1
  -4  -1   6 37122.8 1344.10   2
  -4  -1   6 52028.1 1645.74   1
  -1  -4   6 44510.2 1942.42   2
   5  -1   6 45791.9 2177.71   1
   4  -5  -6 41737.8 1883.04   2
   5  -4   6 43149.2 2011.13   1
  -5   4  -6 41801.1 2066.23   1
  -1  -4   6 36990.5 1206.47   1
  -5   1  -6 37848.1 2032.91   1
   1  -5  -6 38680.8 2019.47   2
   1   4  -6 37043.8 1244.03   1
  -1   5   6 45847.9 2185.03   1
  -4   5   7 38962.7 2019.45   1
   4  -5  -7 44244.1 1964.74   2
   4   1  -7 43750.8 1470.54   1
  -1  -4   7 42312.2 1968.97   2
   5  -4   7 43502.8 2079.93   1
   5  -1   7 39486.6 2100.27   1
  -5   1  -7 41642.4 2162.34   1
   4  -5  -7 40914.0 2132.98   1
  -5   4  -7 40750.9 2070.88   1
  -1   5   7 41803.4 2171.54   1
   1  -5  -7 42675.4 2119.44   2
   1  -5  -7 45683.4 2262.47   1
   1  -5  -8 393200. 8542.94   1
   5  -1   8 365621. 8291.35   1
   5  -4   8 389412. 8146.27   1
  -1   5   8 380451. 8468.38   1
   4  -5  -8 407816. 8556.46   1
  -5   1  -8 382451. 8466.79   1
   1  -5  -8 388191. 8400.76   2
  -1  -4   8 366580. 7871.86   2
   4  -5  -9 5263.00 788.340   1
  -1  -4   9 5713.54 721.604   2
   4  -5  -9 5954.78 698.812   2
   1  -5  -9 4921.23 767.210   2
  -5   1  -9 5665.62 834.480   1
  -1   5   9 4112.17 755.510   1
   5  -4   9 4737.71 687.048   1
  -5   4  -9 4566.30 700.651   1
   1  -5  -9 5105.79 806.035   1
   5  -1   9 5638.45 802.536   1
  -4   5   9 5236.45 754.792   1
   4  -5 -10 14309.6 1143.71   2
  -4   5  10 14476.6 1280.67   1
   5  -4  10 18003.8 1391.67   1
   1  -5 -10 12821.9 1273.47   1
   5  -1  10 14989.9 1355.02   1
  -1   5  10 15831.7 1395.60   1
  -1  -4  10 19077.7 1362.25   2
  -5   1 -10 16264.8 1427.65   1
   1  -5 -10 15644.5 1368.51   2
  -5   4 -10 16092.5 1320.69   1
   4  -5 -10 12617.6 1212.24   1
  -5   4 -11 3769.31 683.740   1
   1  -5 -11 3907.51 755.648   1
   4  -5 -11 3431.63 622.685   1
  -4   5  11 4719.51 787.937   1
  -5   1 -11 4055.72 744.051   1
   5  -1  11 3824.90 729.372   1
   1  -5 -11 4618.15 836.136   2
   5  -4  11 3629.21 619.282   1
  -1   5  11 4023.69 737.765   1
  -1   5  13 401.734 426.252   1
  -5   4 -13-105.850 316.863   1
   5  -1  13 495.208 294.872   1
   1  -5 -13-21.8138 333.852   1
   5  -4  13-148.721 300.562   1
  -4   5  13 195.343 291.726   1
   4  -5 -13 262.205 298.045   1
   1  -5 -13 548.339 432.845   2
  -5   1 -13 854.281 520.085   1
   1  -5 -14 13005.1 1438.84   2
   4  -5 -14 15198.3 1478.86   1
  -5   1 -14 12678.6 1405.59   1
   1  -5 -14 14605.2 1463.52   1
  -4   5  14 14182.5 1402.25   1
  -1   5  14 15015.9 1499.49   1
   5  -1  14 14309.2 1422.51   1
   4  -5 -15 1263.06 542.819   1
   1  -5 -15 1657.09 617.774   1
  -1   5  15 1244.84 522.096   1
  -5   1 -15 1443.37 569.607   1
   5  -1  15 657.047 380.507   1
  -1   5  16 225811. 6660.36   1
  -5   1 -16 222115. 6696.56   1
   5  -1  16 220771. 6590.91   1
   1  -5 -16 213657. 6613.03   1
   1  -5 -17 1109.93 478.369   1
  -5   1 -17 976.720 466.550   1
  -1   5  17 857.954 472.913   1
   1  -5 -18 13037.8 1529.74   1
  -5   1 -18 11480.4 1530.83   2
  -5   1 -19 946.084 545.120   2
   5  -5   0 260358. 5910.76   2
   5  -5   0 264467. 6039.12   1
   0  -5   0 264603. 5754.02   1
  -5   5   0 267178. 6043.03   1
   0  -5   0 266456. 6011.94   2
   0   5   0 259398. 5822.46   1
   0  -5  -3 429268. 8881.40   2
   5   0  -4 17445.1 1125.20   1
   0   5  -4 13482.7 940.553   1
   0  -5  -4 16039.5 1236.69   2
   0  -5   4 16821.8 1017.15   1
   0   5   4 15733.4 1258.45   1
  -5   5   4 16051.0 1262.00   1
   5  -5   4 16551.0 1200.70   1
   5   0   4 15778.0 1221.30   1
   5  -5  -4 14833.6 1244.89   1
  -5   0   4 16661.8 1074.11   1
   0  -5   4 18278.0 1284.16   2
  -5   5  -4 14527.3 1205.53   1
  -5   0  -4 14950.1 1232.88   1
   0  -5  -4 19390.2 1387.64   1
  -5   0   4 14581.9 921.400   2
  -5   0   5 26734.1 1167.74   2
   0  -5   5 27028.2 1607.11   2
  -5   5  -5 29372.2 1695.78   1
   5  -5   5 28458.7 1657.77   1
   0  -5  -5 29947.5 1763.02   1
   5  -5  -5 26390.6 1626.25   1
   0  -5   5 27029.7 1272.37   1
   5  -5  -5 26679.5 1481.25   2
   0   5   5 25853.9 1686.94   1
  -5   0  -5 28838.2 1753.69   1
   0  -5  -5 24804.4 1639.65   2
   0   5  -5 29653.3 1333.15   1
   5   0  -5 30620.5 1478.35   1
  -5   0   5 30229.3 1462.38   1
  -5   5   5 28861.0 1689.34   1
   5   0   5 28928.9 1733.49   1
   5  -5  -6 1992.39 516.722   1
   0   5   6 2738.27 636.958   1
  -5   5  -6 1786.24 456.660   1
   0  -5   6 2104.47 347.743   1
  -5   0   6 1840.54 364.544   1
   0   5  -6 2410.65 377.229   1
  -5   0  -6 2558.23 589.080   1
   5   0   6 1876.92 524.644   1
   0  -5   6 4166.69 647.347   2
   0  -5  -6 1318.51 408.474   1
   5  -5  -6 2038.12 443.844   2
   0  -5  -6 2742.91 632.481   2
   5  -5   6 2233.73 525.538   1
   5   0  -6 2582.55 412.826   1
  -5   5   6 2524.74 518.064   1
  -5   0   7 1329.64 322.659   1
   5   0   7 1209.83 450.854   1
   0  -5  -7 1668.74 510.502   1
   5  -5  -7 835.592 383.469   1
  -5   0  -7 1748.24 552.225   1
  -5   5   7 1593.41 436.384   1
   0  -5   7 1564.00 422.313   2
   5  -5  -7 1537.03 339.793   2
  -5   5  -7 2545.25 583.928   1
   0  -5  -7 524.466 302.422   2
   5  -5   7 1808.73 480.417   1
   0   5   7 857.011 354.809   1
   5   0  -7 1331.26 285.131   1
  -5   5  -8 3638.70 621.015   1
  -5   0  -8 4336.38 739.037   1
  -5   5   8 4383.45 712.154   1
   5  -5   8 4571.57 683.603   1
   0  -5  -8 4283.00 738.718   1
   0  -5   8 3430.88 616.679   2
   5  -5  -8 3129.47 563.582   2
   5   0   8 4610.81 760.636   1
   5  -5  -8 4346.12 718.930   1
   0   5   8 4641.87 705.645   1
   0  -5  -8 4855.02 803.668   2
   5  -5  -9 123741. 4131.57   1
   5  -5   9 120448. 3893.85   1
   0  -5  -9 119218. 4218.14   1
   5   0   9 119680. 4162.24   1
  -5   5   9 130954. 4144.91   1
  -5   0  -9 122068. 4236.43   1
   0   5   9 130933. 4297.56   1
   0  -5  -9 130057. 4258.24   2
  -5   5  -9 123997. 4049.77   1
   0  -5  11 368277. 8485.80   2
   0  -5 -11 376430. 8812.67   1
   5  -5 -11 409180. 8820.77   1
   5   0  11 337867. 8484.65   1
  -5   0 -11 356405. 8608.70   1
  -5   5  11 338771. 8276.15   1
  -5   5 -11 366037. 8344.25   1
   5  -5  11 381086. 8292.39   1
   0   5  11 365153. 8668.82   1
   0  -5 -11 372452. 8735.51   2
   0  -5 -12 144211. 4849.78   2
  -5   0 -12 132782. 4705.28   1
   5  -5 -12 125581. 4478.13   1
  -5   5  12 136664. 4561.10   1
   5  -5  12 129437. 4290.50   1
   0   5  12 126806. 4532.48   1
  -5   5 -12 135165. 4473.28   1
   5   0  12 126299. 4501.34   1
   0  -5 -12 144924. 4839.83   1
   0  -5 -13 245709. 6879.28   2
  -5   5  13 227187. 6529.29   1
  -5   0 -13 238017. 6820.26   1
   0   5  13 223694. 6587.30   1
   0  -5 -13 263167. 7088.71   1
   5  -5 -13 238901. 6664.90   1
   5   0  13 253698. 6777.27   1
   0  -5 -14 390016. 9876.18   1
   0   5  14 437877. 10074.4   1
  -5   0 -14 395376. 9900.94   1
  -5   0 -14 421480. 10057.4   2
   5   0  14 425901. 9975.59   1
   0  -5 -14 445070. 10300.4   2
   0  -5 -15 49841.5 3048.13   2
   0   5  15 47843.7 2819.91   1
   5   0  15 57081.7 3038.66   1
  -5   0 -15 54984.6 3076.30   2
   0  -5 -15 57196.4 3091.21   1
  -5   0 -15 53865.3 3006.60   1
  -5   0 -16 5093.93 1010.83   2
   0   5  16 4314.74 845.077   1
  -5   0 -16 5867.64 1017.46   1
   5   0  16 3045.13 743.508   1
   0  -5 -16 5417.00 994.438   1
   5   0  17 8189.39 1180.37   1
   0  -5 -17 9680.78 1307.79   1
   0   5  17 8084.23 1155.86   1
  -5   0 -17 9659.17 1308.96   1
  -5   0 -17 8230.05 1212.74   2
   0   5  18 9028.98 1256.21   1
   0  -5 -18 8481.04 1250.34   1
  -5   0 -18 9173.57 1289.68   1
  -5   0 -18 7935.72 1237.68   2
  -5   0 -19 6962.51 1196.77   2
  -3  -3 -19 6.19423 244.549   1
  -3  -3 -18 4788.41 972.575   2
  -3  -3 -18 5899.99 1024.41   1
   3   3  18 5182.39 998.831   1
   3   3  17 376.883 285.101   1
  -3  -3 -17-242.130 311.457   1
  -3  -3 -17-9.71796 371.750   2
   3   3  16 319293. 8528.59   1
  -3  -3 -16 323003. 8802.03   2
  -3  -3 -15-375.458 448.324   1
   3   3  15 7.43565 254.960   1
  -3  -3 -15-190.667 347.945   2
  -3  -3 -14 252748. 7207.40   1
   3   3  14 260731. 7158.66   1
  -3  -3 -14 246420. 7122.89   2
  -3  -3 -13-356.987 396.547   1
   3   3  13 224.884 304.483   1
   3   3  12 234102. 6653.28   1
  -3  -3 -12 248811. 6884.07   1
  -3  -3 -11 410.836 413.300   2
  -3  -3 -11 7.18968 303.376   1
   3   3  11 421.720 382.655   1
  -3  -3 -10 624632. 12682.8   1
  -3  -3  -9 216.474 314.130   2
  -6   3   9 478.043 377.419   1
  -3  -3  -9 234.405 393.715   1
   6  -3  -9 79.6712 245.642   1
   3  -6   9 138.253 280.070   2
   3   3   9 366.133 306.729   1
   3  -6   7-85.8001 230.137   1
  -3  -3  -7 483.961 371.873   2
   3   3   7 611.388 437.316   1
  -6   3   7 27.7491 210.454   1
  -3  -3  -7 118.341 296.229   1
   3  -6   7 295.733 266.142   2
   6  -3  -7 146.014 240.804   1
  -3   6  -7-2.03848 228.251   1
  -3  -3  -6 131570. 4187.43   1
   3   3   6 129160. 4172.52   1
   3  -6   6 141226. 3833.78   1
  -3  -3  -6 118385. 3980.94   2
   6  -3  -6 140524. 4005.93   1
  -6   3   6 125230. 3785.37   1
  -3   6  -6 132713. 3763.19   1
   3  -6   6 127347. 4064.32   2
   3   3   5 62.8216 287.295   1
  -3  -3  -5 276.244 283.470   2
  -3   6  -5 273.978 240.778   1
  -6   3   5-52.8404 243.383   1
  -3  -3  -5-120.448 293.288   1
   3  -6   5 522.332 365.803   2
   3  -6   5-79.7433 262.912   1
   6  -3  -5 184.430 242.847   1
   3  -6   3-39.4935 267.963   2
  -3   6  -3 208.815 218.900   1
  -6   3   3 116.028 268.373   1
  -3  -3  -3-594.842 343.897   2
   3   3   3 148.700 291.229   1
  -3  -3  -3-20.9827 235.823   1
   6  -3  -3 154.184 312.110   1
   3  -6   2 307781. 6770.45   2
  -3  -3  -2 307384. 6694.11   2
   6  -3  -2 302840. 6612.39   1
   3   3   2 283216. 6500.26   1
  -3   6  -2 289862. 6453.98   1
  -3   6  -1-123.861 283.045   1
  -6   3   1 9.42497 256.477   1
   3  -6   1-63.5941 283.428   1
   3  -6   1-172.981 265.184   2
   3   3   1-425.277 325.829   1
  -3  -3  -1 61.7832 256.562   2
  -3  -3  -1-62.7518 232.815   1
   6  -3  -1 329.749 242.699   1
   3   3   0 168187. 4359.67   1
   3  -6   0 168901. 4444.08   1
  -3  -3   0 151888. 4215.78   1
   3  -6   0 169486. 4557.81   2
   6  -3   0 170449. 4545.89   1
  -3   6   0 159543. 4354.77   1
  -3  -3   0 175259. 4462.65   2
  -6   3   0 149792. 4330.88   1
  -3  -3   1 11.9451 253.371   2
   6  -3   1 216.345 246.263   1
  -6   3  -1-155.056 274.863   1
  -3   6   1 508.871 298.391   1
   3  -6  -1-301.094 297.045   2
  -3  -3   1 166.132 229.729   1
   3   3  -1-110.088 206.800   1
   3  -6  -1 25.6321 258.554   1
  -3   6   2 349281. 7663.28   1
   3  -6  -2 370145. 7756.81   2
   3   3  -3 279.683 235.409   1
   3  -6  -3 403.127 311.535   2
  -3  -3   3 97.6989 168.895   1
  -3   6   3 210.036 272.836   1
   3  -6  -3-79.2074 245.154   1
  -6   3  -3 70.9859 277.638   1
   6  -3   3-233.518 269.741   1
  -3  -3   3-9.43089 221.767   2
  -3  -3   5 14.7646 120.623   1
  -6   3  -5 449.011 345.876   1
   3   3  -5 922.301 250.688   1
  -3   6   5 132.513 350.445   1
   6  -3   5-90.4011 297.329   1
  -3  -3   5 233.120 242.314   2
   3  -6  -5 174.515 279.581   1
   3  -6  -5 41.9428 279.284   2
   3  -6  -6 95113.8 3482.14   1
  -3   6   6 96955.1 3494.07   1
   6  -3   6 96270.8 3399.16   1
  -6   3  -6 95989.3 3480.74   1
  -3  -3   6 102270. 3048.45   2
   3  -6  -6 97421.3 3402.68   2
   3  -6  -7 153.235 284.301   2
   3  -6  -7-308.105 339.618   1
  -3   6   7 827.059 384.105   1
  -6   3  -7 66.5538 249.823   1
   6  -3   7-278.688 322.544   1
  -3  -3   7 32.3931 181.524   2
   3  -6  -9 184.963 220.748   2
  -6   3  -9-266.695 278.901   1
   3  -6  -9 847.010 413.430   1
   6  -3   9 289.864 354.903   1
  -3   6   9-56.5738 266.426   1
   3  -6 -10 473198. 10165.4   1
   6  -3  10 453691. 9931.66   1
  -6   3 -10 455600. 10045.2   1
   3  -6 -10 459876. 9848.96   2
   3  -6 -11 139.839 340.340   1
   6  -3  11-132.045 290.961   1
  -3   6  11 159.638 325.570   1
  -6   3 -11-103.693 319.561   1
   3  -6 -12 376007. 8824.04   2
   6  -3  12 387852. 8984.41   1
  -6   3 -12 364640. 8969.16   1
   3  -6 -12 371838. 9049.96   1
   3  -6 -13 448.056 450.242   1
  -3   6  13-141.106 272.536   1
  -6   3 -13 487.892 365.711   1
   6  -3  13 273.270 363.201   1
  -3   6  14 177330. 5671.63   1
  -6   3 -14 161290. 5514.15   1
   3  -6 -14 156323. 5439.13   1
   6  -3  14 172434. 5568.97   1
  -3   6  15 582.685 446.499   1
   3  -6 -15-548.748 359.265   1
   6  -3  15-92.2402 337.540   1
  -6   3 -15 308.254 356.693   1
   3  -6 -16 188349. 6250.50   1
  -3   6  16 202840. 6398.10   1
   3  -6 -17 290.945 384.742   1
  -2  -4 -19 69662.9 3640.84   1
  -4  -2 -19 65770.2 3590.64   1
  -4  -2 -19 64875.4 3711.24   2
  -2  -4 -18 95966.0 4288.70   1
   2   4  18 86643.3 4049.82   1
  -4  -2 -18 91523.5 4217.96   1
   4   2  18 86645.4 4029.08   1
  -2  -4 -17 14858.4 1689.58   2
   2   4  17 14955.8 1574.76   1
   4   2  17 15197.1 1586.29   1
  -4  -2 -17 14847.8 1660.52   1
  -2  -4 -17 17543.8 1746.82   1
  -4  -2 -17 14903.7 1625.17   2
   4   2  16 67256.8 3446.19   1
  -2  -4 -16 72087.7 3579.70   1
   2   4  16 69061.0 3430.83   1
  -4  -2 -16 77265.6 3680.41   1
  -2  -4 -16 70609.5 3631.88   2
  -4  -2 -16 73196.4 3631.04   2
  -2  -4 -15 20684.7 1876.39   2
  -2  -4 -15 17513.0 1728.08   1
  -4  -2 -15 20904.8 1857.82   2
   4   2  15 16781.6 1656.29   1
   2   4  15 18189.1 1730.80   1
  -4  -2 -15 18523.7 1759.51   1
   2   4  14 192271. 6184.73   1
  -4  -2 -14 217903. 6487.04   1
   4   2  14 217462. 6370.45   1
  -2  -4 -14 205520. 6361.48   1
  -2  -4 -14 237166. 6794.97   2
  -4  -2 -14 216471. 6576.32   2
  -2  -4 -13 60917.1 3164.40   2
  -4  -2 -13 60924.0 3095.20   1
   2   4  13 63904.3 3126.15   1
  -2  -4 -13 58470.9 3047.00   1
   4   2  13 60177.7 3053.25   1
  -4  -2 -13 66918.2 3276.12   2
  -4  -2 -12 32727.3 2248.91   2
  -2  -4 -12 35617.5 2264.14   1
  -4  -2 -12 31232.5 2110.50   1
   4   2  12 33036.1 2159.37   1
  -2  -4 -12 31636.1 2195.27   2
   2   4  12 30751.5 2119.66   1
   6  -4 -12 30544.1 2001.69   1
  -2  -4 -11 125744. 4458.96   2
   4   2  11 132131. 4461.05   1
  -2  -4 -11 125922. 4421.35   1
   2   4  11 112260. 4212.83   1
   6  -4 -11 134128. 4304.03   1
  -6   4  11 120703. 4092.12   1
  -4  -2 -11 114768. 4356.98   1
  -4  -2 -11 113085. 4324.26   2
  -2  -4 -10 288837. 7562.93   1
   2  -6  10 319825. 7734.76   2
   2   4  10 293094. 7516.64   1
   4   2  10 312144. 7663.47   1
  -2  -4 -10 300648. 7729.96   2
   6  -4 -10 330044. 7487.93   1
  -4  -2 -10 306569. 7688.34   2
  -4  -2 -10 306960. 7695.29   1
  -4   6 -10 307581. 7135.35   1
  -6   4  10 336404. 7452.83   1
  -2  -4  -9 292060. 7342.84   2
   2  -6   9 283679. 7126.39   2
  -6   4   9 298465. 6978.44   1
  -4  -2  -9 282018. 7276.58   1
   4   2   9 298390. 7304.07   1
   6  -2  -9 297855. 6607.25   1
  -2  -4  -9 298474. 7377.69   1
   6  -4  -9 299838. 7008.75   1
   2   4   9 285991. 7192.73   1
  -4   6  -9 294196. 6792.06   1
   4  -6   9 281254. 6555.77   1
  -4  -2  -9 284968. 7329.72   2
  -6   4   8 18484.1 1389.44   1
   2  -6   8 18726.2 1494.77   2
   4  -6   8 22689.2 1451.77   1
   6  -2  -8 20428.1 1366.92   1
  -2  -4  -8 19907.8 1576.89   1
   4  -6   8 23127.7 1695.50   2
  -6   2   8 19364.3 1336.41   1
  -4  -2  -8 19917.2 1589.88   1
   6  -4  -8 20663.0 1479.65   1
   4   2   8 18467.9 1513.33   1
  -4  -2  -8 21192.6 1623.25   2
  -4   6  -8 20605.3 1421.28   1
   2   4   8 19279.8 1534.70   1
  -2  -4  -8 22184.4 1657.41   2
   6  -2  -7 289894. 6112.13   1
  -2  -4  -7 246251. 6364.57   2
   2  -6   7 243210. 6176.57   2
   2   4   7 219225. 6131.13   1
   4  -6   7 248672. 5903.61   1
  -2  -4  -7 221338. 6209.93   1
  -4  -2  -7 246876. 6387.15   2
   2  -6   7 258706. 5550.36   1
  -4  -2  -7 236776. 6328.00   1
  -2   6  -7 253730. 5603.57   1
   6  -4  -7 229617. 5971.50   1
  -4   6  -7 257200. 6072.57   1
  -6   4   7 269751. 6218.53   1
   4  -6   7 243552. 6420.53   2
  -6   2   7 275209. 5995.69   1
   4   2   7 257115. 6398.98   1
  -2   6  -5 203154. 4758.53   1
   6  -2  -5 157728. 4560.28   1
   2  -6   5 187838. 5033.26   2
   4   2   5 185979. 5106.93   1
   6  -4  -5 183291. 4969.72   1
  -6   4   5 192223. 4986.80   1
   2   4   5 198746. 5260.74   1
   4  -6   5 202928. 5354.70   2
  -2  -4  -5 183737. 5167.01   2
  -2  -4  -5 176395. 5054.11   1
  -4  -2  -5 186216. 5139.10   1
  -6   2   5 182508. 4735.91   1
  -4  -2  -5 191361. 5226.91   2
   4  -6   5 208773. 5016.56   1
  -4   6  -5 186840. 4894.65   1
   2  -6   5 194994. 4629.12   1
   4  -6   4 615349. 11919.2   2
   6  -4  -3 343472. 7461.46   1
   4  -6   3 359984. 7367.13   1
   2  -6   3 338978. 7106.53   1
   2   4   3 336157. 7469.89   1
  -2  -4  -3 368917. 7741.63   2
  -2  -4  -3 355323. 7569.54   1
  -4  -2  -3 363272. 7563.41   1
  -6   4   3 298038. 7157.35   1
   4   2   3 331551. 7505.86   1
   6  -2  -3 343768. 7278.69   1
   2  -6   3 346224. 7511.59   2
   4  -6   3 349799. 7708.02   2
  -2   6  -3 337393. 7106.43   1
  -4  -2  -3 336371. 7410.97   2
  -2  -4  -1 57350.8 2357.75   1
   6  -2  -1 55457.6 2349.88   1
  -4  -2  -1 58402.9 2357.92   1
   2   4   1 54662.0 2356.49   1
   2  -6   1 58859.8 2485.77   2
   4  -6   1 59968.5 2515.83   2
   4  -6   1 55564.4 2363.61   1
  -4   6  -1 62731.9 2486.95   1
  -2   6  -1 59266.9 2341.79   1
   6  -4  -1 53007.0 2374.67   1
   4   2   1 57491.7 2372.63   1
  -6   4   1 54337.4 2398.27   1
  -6   2   1 61433.5 2465.60   1
  -4  -2  -1 54726.0 2291.69   2
   2  -6   1 61004.6 2381.56   1
  -2  -4  -1 63049.4 2503.88   2
   2   4   0 1993.95 444.695   1
  -2  -4   0 1722.24 449.034   2
  -2  -4   0 1919.73 431.341   1
  -4  -2   0 1317.41 332.494   2
  -4   6   0 1408.82 401.216   1
   6  -2   0 1599.50 433.446   1
  -4  -2   0 2218.32 496.916   1
   2  -6   0 1894.59 429.244   1
   6  -4   0 1675.99 449.233   1
  -2   6   0 1768.22 436.207   1
   4   2   0 1595.10 397.905   1
  -6   2   0 1527.72 477.569   1
  -6   4   0 1575.80 455.512   1
   4  -6   0 1811.24 505.948   2
   2  -6   0 1997.76 536.847   2
   4  -6   0 1812.73 420.315   1
  -4   6   1 26768.4 1593.71   1
   4   2  -1 23024.6 1395.10   1
   2  -6  -1 22890.1 1481.98   1
  -2   6   1 23591.6 1496.72   1
   4  -6  -1 24584.6 1567.18   1
  -2  -4   1 23836.3 1365.44   1
  -4  -2   1 26495.6 1494.02   2
   2   4  -1 22474.6 1353.95   1
  -4  -2   1 25942.5 1468.80   1
   6  -2   1 22898.6 1501.33   1
   6  -4   1 23980.2 1529.99   1
  -2  -4   1 23589.8 1492.23   2
   2  -6  -1 26840.8 1621.23   2
  -6   2  -1 24699.1 1546.02   1
   4  -6  -1 25601.5 1588.33   2
  -6   4  -1 25442.0 1602.17   1
  -2  -4   4 1429.73 422.028   2
  -4  -2   4 860.975 283.880   2
   2   4  -4 2433.66 393.914   1
   2  -6  -4 1166.88 498.507   2
   4  -6  -4 1054.11 453.459   1
  -4   6   4 989.929 412.811   1
   6  -2   4 1261.60 448.782   1
   6  -4   4 1206.78 448.368   1
  -4  -2   4 900.979 290.221   1
  -6   2  -4 885.341 419.428   1
   4  -6  -4 808.566 308.669   2
   2  -6  -4 1261.40 448.657   1
  -2   6   4 462.908 284.879   1
  -6   4  -4 1141.71 409.159   1
  -2   6   6 516713. 10465.1   1
   6  -4   6 504183. 10272.6   1
   6  -2   7 57061.8 2581.46   1
  -2   6   7 57197.9 2652.43   1
  -4   6   7 52463.5 2497.14   1
   2  -6  -7 53062.7 2603.10   1
   6  -4   7 56495.7 2518.75   1
   4  -6  -7 52342.0 2514.82   1
  -6   4  -7 49738.8 2462.92   1
  -6   2  -7 48452.9 2497.57   1
  -2  -4   7 51567.7 2198.61   2
   4  -6  -7 57184.4 2444.72   2
   2  -6  -7 54627.9 2571.84   2
   2  -6  -8 218638. 5943.73   1
  -4   6   8 222796. 5890.87   1
   4  -6  -8 202606. 5751.17   1
  -2   6   8 209416. 5818.59   1
   2  -6  -8 224937. 5868.29   2
  -2  -4   8 232071. 5447.03   2
  -6   2  -8 205346. 5818.66   1
   6  -4   8 213721. 5679.28   1
  -6   4  -8 207629. 5733.82   1
   4  -6  -8 230860. 5717.78   2
   6  -2   8 210057. 5761.36   1
   2  -6  -9 60650.0 2880.91   1
   6  -4   9 58485.5 2690.07   1
   4  -6  -9 57905.2 2811.85   1
  -4   6   9 61380.7 2794.51   1
   6  -2   9 53170.5 2630.92   1
  -2   6   9 60045.8 2769.22   1
   4  -6  -9 61249.7 2649.26   2
   2  -6  -9 55855.5 2686.05   2
  -6   2  -9 55882.1 2760.85   1
  -6   4  -9 59949.4 2776.66   1
  -4   6  10 395238. 9540.01   1
   6  -2  10 461713. 9924.64   1
   2  -6 -10 459902. 9851.49   2
   4  -6 -10 493575. 9736.93   2
  -2   6  10 463896. 9968.19   1
  -6   4 -10 468319. 9968.89   1
  -6   2 -10 468174. 10077.9   1
   2  -6 -10 427384. 9883.18   1
   4  -6 -10 417255. 9738.49   1
  -2   6  11 121490. 4368.17   1
   2  -6 -11 125291. 4391.14   2
   2  -6 -11 117187. 4378.04   1
   6  -2  11 127128. 4445.80   1
   6  -4  11 127202. 4362.21   1
  -6   4 -11 115087. 4307.15   1
   4  -6 -11 129436. 4531.72   1
  -4   6  11 126785. 4428.57   1
  -6   2 -11 132184. 4518.49   1
  -6   2 -12 32915.4 2220.43   1
   6  -2  12 34709.5 2226.35   1
   2  -6 -12 37203.9 2293.72   2
   2  -6 -12 32032.3 2206.51   1
  -2   6  12 36651.2 2298.47   1
   4  -6 -12 37120.9 2316.91   1
  -6   4 -12 36108.8 2269.47   1
  -4   6  12 35947.0 2277.30   1
   6  -4  12 38659.9 2315.63   1
   4  -6 -13 62381.7 3185.46   1
  -2   6  13 71049.3 3302.56   1
  -6   2 -13 66380.3 3274.66   1
   6  -2  13 62807.9 3132.86   1
   6  -4  13 65939.9 3175.44   1
   2  -6 -13 68439.1 3323.43   1
  -6   4 -13 68077.1 3247.31   1
   2  -6 -13 73172.0 3366.75   2
  -4   6  13 75382.9 3382.97   1
  -2   6  14 166988. 5541.75   1
   6  -2  14 172525. 5640.91   1
   6  -4  14 175707. 5608.57   1
  -4   6  14 179649. 5706.66   1
  -6   2 -14 166686. 5568.67   1
  -6   4 -14 169530. 5557.47   1
   2  -6 -14 169974. 5650.59   1
   4  -6 -14 163113. 5591.64   1
   6  -2  15 64590.3 3312.32   1
  -6   2 -15 70406.3 3464.41   1
  -4   6  15 65157.1 3333.05   1
   4  -6 -15 69270.1 3457.71   1
  -2   6  15 70433.0 3419.31   1
   2  -6 -15 64496.6 3346.27   1
  -6   2 -16 1124.33 506.587   1
  -2   6  16 1117.53 482.767   1
   6  -2  16 1546.11 591.155   1
   4  -6 -16 2055.37 701.345   1
   2  -6 -16 1908.50 629.482   1
  -2   6  17 62758.8 3283.56   1
   2  -6 -17 50627.1 3064.71   1
   2  -6 -18 85492.5 4092.22   1
  -1  -5 -19 9014.14 1335.16   1
  -5  -1 -19 5604.32 1065.31   2
   1   5  18 71086.9 3642.76   1
  -1  -5 -18 70447.1 3670.27   1
  -5  -1 -18 60193.3 3477.83   2
  -5  -1 -18 73576.7 3772.14   1
   5   1  18 67074.9 3494.16   1
  -5  -1 -17 15411.3 1678.39   2
  -1  -5 -17 13737.3 1599.71   1
   1   5  17 13872.2 1569.66   1
  -5  -1 -17 13620.2 1559.46   1
   5   1  17 12066.9 1432.31   1
  -1  -5 -16 6088.49 1043.23   1
  -1  -5 -16 5545.64 1086.42   2
   5   1  16 5285.15 966.019   1
   1   5  16 5993.91 1014.97   1
  -5  -1 -16 6897.78 1105.88   1
  -5  -1 -16 7869.41 1167.33   2
   5   1  15 90588.7 3972.10   1
   1   5  15 77350.5 3693.18   1
  -1  -5 -15 82745.7 3900.79   1
  -5  -1 -15 91083.8 4056.68   2
  -1  -5 -15 96327.5 4190.67   2
  -5  -1 -15 96024.9 4094.32   1
  -5  -1 -14 214437. 6451.13   1
   5   1  14 211074. 6336.79   1
  -1  -5 -14 200060. 6291.24   1
  -5  -1 -14 192628. 6268.45   2
   1   5  14 209293. 6277.46   1
  -1  -5 -14 204592. 6472.67   2
  -5  -1 -13 132412. 4960.27   2
   5   1  13 147966. 5023.65   1
  -1  -5 -13 132049. 4881.04   1
   1   5  13 152980. 5134.10   1
  -5  -1 -13 152442. 5216.33   1
  -1  -5 -13 137256. 5078.35   2
  -5  -1 -12 66931.9 3201.64   2
   1   5  12 70743.5 3279.92   1
  -1  -5 -12 71722.0 3366.57   1
   5   1  12 66526.0 3222.38   1
  -5  -1 -12 66463.3 3271.32   1
  -1  -5 -12 73966.6 3384.90   2
  -6   5  12 68850.7 3142.67   1
  -6   5  11 77872.2 3315.36   1
   1  -6  11 85773.2 3559.31   2
  -5  -1 -11 76278.9 3478.65   1
  -5  -1 -11 81513.7 3622.27   2
   1   5  11 77422.7 3440.63   1
  -5   6 -11 78389.0 3230.36   1
  -1  -5 -11 78473.1 3495.00   1
   5   1  11 80249.4 3461.51   1
  -1  -5 -11 78673.6 3471.70   2
  -5  -1 -10 586866. 12010.4   1
  -1  -5 -10 553727. 11817.9   1
   1   5  10 549084. 11718.4   1
  -1  -5 -10 583086. 11949.3   2
  -5  -1  -9 54970.2 2780.67   2
  -1  -5  -9 55833.5 2732.55   1
  -1  -5  -9 57735.5 2821.50   2
  -5   6  -9 56118.2 2622.75   1
  -5  -1  -9 55023.7 2695.60   1
  -6   5   9 54605.2 2595.94   1
   1  -6   9 59466.0 2747.54   2
   5   1   9 52109.1 2638.49   1
   1   5   9 51794.2 2606.83   1
   6  -5  -9 51365.8 2555.98   1
   5  -6   9 53678.8 2465.83   1
  -5   6  -8 58135.9 2629.15   1
   1   5   8 64431.8 2916.54   1
   6  -5  -8 65789.7 2871.36   1
  -5  -1  -8 60442.1 2875.05   2
  -6   5   8 64633.0 2760.42   1
  -1  -5  -8 57540.3 2821.99   1
   6  -1  -8 60941.0 2382.56   1
   5  -6   8 66445.2 2728.50   1
   1  -6   8 63451.6 2797.51   2
   5   1   8 65122.5 2946.53   1
  -5  -1  -8 63349.9 2849.67   1
  -1  -5  -8 59232.5 2832.71   2
  -1  -5  -7 240765. 6148.93   1
  -5  -1  -7 205690. 5867.40   2
   6  -1  -7 241683. 5446.29   1
   5   1   7 241944. 6148.48   1
  -5   6  -7 221895. 5732.39   1
   1   5   7 219319. 5906.08   1
  -1  -5  -7 215304. 5959.03   2
   6  -5  -7 196206. 5584.94   1
  -6   5   7 235305. 5892.32   1
  -6   1   7 190615. 5036.79   1
   1  -6   7 239830. 5961.39   2
  -5  -1  -7 214562. 5900.24   1
   5  -6   7 229154. 5708.60   1
  -6   1   6 67249.3 2464.33   1
  -6   5   6 60950.2 2636.20   1
  -5   6  -6 56380.8 2543.38   1
  -1  -5  -6 60481.8 2723.72   1
   5  -6   6 54083.4 2432.44   1
   1   5   6 54450.6 2617.53   1
  -5  -1  -6 58591.6 2697.95   2
   5   1   6 55943.7 2646.11   1
  -1   6  -6 69569.0 2363.44   1
   1  -6   6 54574.9 2077.28   1
   6  -5  -6 57595.4 2591.72   1
   6  -1  -6 69519.5 2519.90   1
   6  -5  -6 60702.8 2369.29   2
   1  -6   6 54291.4 2499.45   2
   5  -6   6 56890.2 2786.37   2
  -1  -5  -6 57275.5 2630.04   2
  -5  -1  -6 62988.1 2777.58   1
   6  -1  -5 285777. 6465.73   1
   5   1   5 286679. 7002.31   1
  -1  -5  -5 315545. 7150.24   1
   1  -6   5 289546. 6167.64   1
   6  -5  -5 303437. 6960.75   1
   5  -6   5 276440. 6649.55   1
   5  -6   5 303389. 7324.37   2
   1  -6   5 308107. 6967.18   2
  -5   6  -5 290272. 6838.09   1
  -5  -1  -5 283719. 6936.95   1
  -1  -5  -5 301318. 7139.93   2
  -6   1   5 294242. 6484.94   1
   1   5   5 288098. 7023.72   1
  -6   5   5 292179. 6857.02   1
  -5  -1  -5 318179. 7200.36   2
   5  -6   4 2256.45 460.720   1
   6  -1  -4 2051.14 464.749   1
   6  -5  -4 2601.04 516.373   1
  -1  -5  -4 2206.83 553.864   2
  -5  -1  -4 1520.71 409.587   2
  -5   6  -4 1826.86 446.031   1
   5   1   4 2143.90 494.184   1
   1  -6   4 1441.07 420.722   2
  -6   5   4 2158.51 521.806   1
  -6   1   4 1880.40 430.657   1
   5  -6   4 3311.30 643.338   2
  -1   6  -4 2296.76 441.298   1
   1   5   4 1537.89 434.022   1
  -1  -5  -4 2060.45 527.360   1
  -6   1   4 1747.83 347.105   2
   1  -6   4 2306.18 414.640   1
  -5  -1  -4 2580.02 559.639   1
   6  -5  -4 2311.96 472.953   2
   6  -1  -3 31074.4 1722.97   1
  -6   5   3 33738.9 1886.64   1
   5  -6   3 38617.3 1944.76   1
   1   5   3 30224.3 1848.03   1
  -5  -1  -3 36339.7 1972.53   2
  -1  -5  -3 36964.0 1985.49   2
   6  -5  -3 33422.5 1906.19   1
   5   1   3 36356.7 1979.76   1
  -1  -5  -3 35244.4 1937.00   1
   1  -6   3 35611.6 1927.23   2
   5  -6   3 39983.7 2110.03   2
   6  -5  -3 39481.8 1930.01   2
  -5  -1  -3 35806.2 1959.61   1
  -6   1   3 32410.6 1601.30   2
  -6   1   3 39793.5 1886.84   1
   1  -6   3 39578.1 1806.35   1
  -1   6  -3 37544.7 1781.72   1
  -5   6  -3 36148.1 1925.30   1
  -5  -1  -1 183233. 4839.09   2
  -6   5   1 182192. 5057.39   1
   6  -1  -1 221030. 5157.30   1
   6  -5  -1 216639. 5167.22   2
   1  -6   1 184991. 4750.11   1
  -1  -5  -1 187116. 4870.87   1
   5  -6   1 188582. 4952.24   1
  -5  -1  -1 181450. 4885.66   1
   5   1   1 181156. 4886.29   1
  -6   1   1 205653. 4989.21   1
   5  -6   1 186823. 5057.54   2
   1  -6   1 179496. 4956.65   2
  -1  -5  -1 174582. 4898.94   2
   1   5   1 178252. 4863.50   1
  -1   6  -1 185392. 4794.62   1
  -5   6  -1 171165. 4865.99   1
   6  -5  -1 183508. 4970.90   1
   5  -6   0 340783. 7560.48   2
   6  -1   0 305533. 7228.95   1
  -6   5   0 338925. 7559.48   1
   5  -6   0 362559. 7610.31   1
   6  -5   0 334523. 7536.49   1
  -1   6   0 343936. 7401.27   1
  -5   6   0 359961. 7756.33   1
   1  -6   0 360794. 7654.39   2
  -1  -5   0 350278. 7371.53   1
  -6   1   0 354974. 7455.80   1
  -1  -5   0 330011. 7496.08   2
   6  -1   3 219660. 5550.46   1
  -6   5  -3 220513. 5585.18   1
  -6   1  -3 217127. 5570.20   1
   5  -6  -3 210009. 5482.61   1
   6  -5   3 208343. 5432.05   1
   5   1  -3 201747. 5022.41   1
  -1   6   3 214779. 5569.51   1
  -1  -5   3 221667. 4972.47   1
  -5  -1   3 193468. 4949.53   1
  -1  -5   3 200527. 5259.57   2
   5  -6  -3 210613. 5390.92   2
   1  -6  -3 215824. 5603.30   2
  -5  -1   3 237140. 5170.94   2
  -5   6   3 226370. 5602.61   1
   1  -6  -3 208514. 5511.23   1
   1   5  -3 224859. 5069.85   1
  -6   5  -4 20769.0 1490.67   1
   1  -6  -4 19952.8 1479.07   1
   1   5  -4 21316.9 1241.16   1
   6  -1   4 25289.3 1598.32   1
   5   1  -4 28438.6 1484.84   1
  -6   1  -4 19728.6 1468.91   1
  -5  -1   4 31136.5 1546.63   1
   1  -6  -4 21449.7 1529.83   2
   6  -5   4 23638.2 1537.98   1
  -1  -5   4 22390.5 1248.15   1
   5  -6  -4 25184.1 1540.16   2
  -1   6   4 23822.2 1590.62   1
  -1  -5   4 21994.3 1480.08   2
  -5   6   4 23687.8 1585.29   1
   5  -6  -4 22613.9 1537.95   1
  -5  -1   4 21508.0 1269.35   2
  -6   1  -5 3056.47 679.199   1
   5  -6  -5 3253.78 662.579   1
  -6   5  -5 2436.01 556.418   1
  -1   6   5 2743.14 552.659   1
  -5  -1   5 3691.07 520.730   1
   6  -1   5 2750.01 592.311   1
  -1  -5   5 2881.64 420.378   1
  -5   6   5 3413.07 642.565   1
   5  -6  -5 3124.29 589.202   2
  -1  -5   5 2719.57 543.038   2
   1  -6  -5 3146.08 590.058   2
   1   5  -5 3424.42 458.239   1
   6  -5   5 2965.09 583.641   1
  -5  -1   5 3462.86 500.616   2
   1  -6  -5 2498.55 632.404   1
   5   1  -5 3059.07 489.162   1
   1  -6  -6 244125. 6275.31   1
   6  -5   6 234290. 5969.16   1
   5  -6  -6 246154. 6292.57   1
   1  -6  -6 252758. 6315.69   2
   6  -1   6 241820. 6190.64   1
  -5   6   6 220328. 6018.72   1
   5  -6  -6 246196. 5892.69   2
  -1   6   6 253736. 6372.33   1
  -6   5  -6 243348. 6163.43   1
  -5  -1   6 231331. 5248.36   1
  -6   1  -6 258877. 6393.78   1
  -1  -5   6 259951. 6023.73   2
   6  -5   7 112694. 3777.08   1
  -5   6   7 121252. 3999.73   1
  -1  -5   7 118177. 3746.80   2
   1  -6  -7 108936. 3921.36   1
   6  -1   7 116101. 3967.92   1
  -1   6   7 115955. 4028.39   1
  -6   1  -7 105542. 3909.24   1
   5  -6  -7 118232. 3701.76   2
   5  -6  -7 109165. 3850.91   1
  -6   5  -7 112685. 3879.20   1
   1  -6  -7 115157. 3996.20   2
   1  -6  -8 38750.3 2266.74   1
   6  -1   8 42169.1 2309.90   1
  -5   6   8 40757.9 2233.41   1
   1  -6  -8 41700.2 2314.36   2
  -1   6   8 43100.6 2370.64   1
  -1  -5   8 38661.3 2072.37   2
  -6   1  -8 41678.7 2355.13   1
   6  -5   8 41684.2 2204.21   1
   5  -6  -8 41042.2 2059.94   2
  -6   5  -8 39711.2 2227.52   1
   5  -6  -8 41622.0 2275.22   1
  -5   6   9 365824. 8178.85   1
   5  -6  -9 334175. 8066.89   1
   6  -1   9 331831. 8047.00   1
   5  -6  -9 352387. 7598.57   2
   1  -6  -9 343137. 8206.17   1
  -1   6   9 321928. 8004.37   1
  -1  -5   9 335825. 7694.56   2
  -6   1  -9 324136. 8094.93   1
   1  -6  -9 341427. 8146.95   2
   6  -5   9 352667. 7965.13   1
  -6   5  -9 349289. 8105.65   1
   5  -6 -10 451852. 9948.88   1
   6  -1  10 432360. 9830.10   1
  -6   1 -10 461663. 10070.9   1
  -6   5 -10 446507. 9796.43   1
   1  -6 -10 453261. 9959.18   2
   1  -6 -10 411590. 9769.10   1
   6  -5  10 456248. 9726.86   1
  -1   6  10 439954. 9915.08   1
  -5   6  10 456009. 9816.70   1
   6  -1  11 131057. 4651.80   1
   5  -6 -11 131251. 4670.98   1
  -6   1 -11 151162. 4990.15   1
   1  -6 -11 134313. 4748.11   1
  -1   6  11 141903. 4832.56   1
   1  -6 -11 142253. 4903.37   2
  -6   5 -11 146579. 4803.84   1
  -5   6  11 134613. 4595.23   1
   6  -5  11 162415. 4867.43   1
   5  -6 -12 35308.7 2287.00   1
  -5   6  12 37641.4 2294.44   1
   1  -6 -12 34120.5 2255.91   2
   6  -5  12 38225.5 2288.10   1
  -1   6  12 32928.4 2235.75   1
  -6   1 -12 34369.8 2308.07   1
   1  -6 -12 34828.4 2306.58   1
   6  -1  12 33218.7 2206.15   1
  -6   5 -12 34038.3 2246.48   1
  -5   6  13 68471.1 3196.12   1
   6  -5  13 59787.6 2994.66   1
  -1   6  13 55842.4 2973.98   1
  -6   1 -13 62027.9 3118.88   1
  -6   5 -13 58343.6 2995.57   1
   1  -6 -13 63873.6 3234.45   2
   1  -6 -13 63014.5 3204.50   1
   5  -6 -13 67857.6 3300.79   1
   6  -1  13 60211.4 3129.63   1
   1  -6 -14 259205. 7493.55   1
   6  -1  14 277312. 7581.12   1
   5  -6 -14 293540. 7817.61   1
  -1   6  14 277603. 7549.06   1
  -6   1 -14 264123. 7525.14   1
  -5   6  14 315525. 7945.32   1
   1  -6 -14 243045. 7699.29   2
   1  -6 -15 53391.6 3045.59   1
  -6   1 -15 53661.8 3066.89   1
   6  -1  15 52854.9 2943.42   1
   5  -6 -15 50049.0 2994.01   1
  -1   6  16 28544.1 2167.15   1
  -6   1 -16 32142.1 2394.09   1
   1  -6 -16 25713.7 2136.49   1
   6  -1  16 27768.6 2170.83   1
  -6   1 -17 42697.4 2785.61   2
  -1   6  17 41710.5 2721.65   1
  -6   1 -17 40961.2 2753.27   1
   6  -1  17 43282.5 2727.11   1
   1  -6 -17 41622.6 2777.63   1
   1  -6 -18 43253.1 2894.50   1
  -1   6  18 46170.3 2914.42   1
  -6   1 -19 8281.87 1301.45   2
   0  -6  -1 3943.71 709.724   2
   6   0   1 4809.81 741.406   1
   0  -6   1 5598.88 842.507   2
   6  -6  -1 5990.48 824.932   1
   0   6  -1 5288.13 728.546   1
   6  -6   1 5227.27 764.634   2
   0   6   1 5760.82 786.298   1
  -6   6  -1 4608.84 711.208   1
   0  -6   1 5915.43 748.081   1
  -6   0   1 5363.52 775.232   1
  -6   0  -1 6189.75 816.531   1
   6   0  -1 7089.40 858.458   1
   0  -6  -1 5437.12 747.036   1
   6  -6   1 5322.78 789.922   1
   6  -6  -1 4913.26 736.929   2
  -6   6   1 4767.67 744.262   1
  -6   0  -1 5553.41 754.083   2
  -6   0   1 4886.77 713.421   2
   6   0   2 2799.95 556.463   1
   6  -6   2 1501.71 484.021   1
  -6   0   2 1045.82 292.463   2
  -6   0   2 1513.95 444.806   1
  -6   0  -2 1500.23 466.950   1
   6  -6  -2 902.514 373.452   2
   0  -6   2 1780.61 491.733   1
   0  -6  -2 2006.38 485.149   1
  -6   6   2 1142.94 413.280   1
   6  -6  -2 1501.39 455.988   1
   0   6   2 1101.16 384.028   1
  -6   0  -2 1602.73 415.050   2
   0   6  -2 1851.31 452.877   1
  -6   6  -2 938.662 399.352   1
   0  -6  -2 1422.79 506.682   2
   6  -6   2 1504.11 496.596   2
   6   0  -2 1765.29 432.277   1
   0  -6   2 1084.29 410.513   2
   0  -6   3 16109.7 1171.97   1
   6  -6  -3 13865.8 1203.92   2
   6  -6   3 14572.2 1334.18   2
   0   6  -3 14686.4 1128.77   1
   0   6   3 14630.8 1265.63   1
   6   0  -3 12822.2 1103.49   1
  -6   0  -3 12237.6 1211.37   1
  -6   0   3 17426.5 1237.46   1
   6  -6   3 15262.6 1272.39   1
   6   0   3 15969.1 1333.52   1
  -6   6   3 16356.4 1328.12   1
   6  -6  -3 12938.8 1209.99   1
   0  -6   3 12306.2 1186.79   2
  -6   6  -3 14101.6 1232.83   1
   0  -6  -3 12215.0 1211.93   2
   0  -6  -3 14749.5 1283.36   1
  -6   0   3 11776.5 1007.09   2
   6  -6  -4 364743. 8318.70   1
   0  -6  -4 371065. 8447.75   2
   6  -6  -4 408816. 8293.21   2
   0  -6  -4 397240. 8634.61   1
   6   0   4 378048. 8442.34   1
  -6   6   4 380324. 8441.64   1
   0   6   4 380026. 8482.30   1
   6  -6   4 367808. 8274.14   1
  -6   0  -4 386672. 8553.62   1
   0  -6   4 397256. 8439.31   2
  -6   6  -4 373796. 8407.83   1
  -6   0  -5 2779.04 581.383   1
   6  -6  -5 3619.10 594.741   2
   6   0   5 3442.39 621.507   1
   0   6   5 3405.74 695.646   1
  -6   0   5 3349.13 560.378   1
   0  -6   5 3480.64 523.941   1
  -6   6   5 3218.97 654.747   1
   6  -6  -5 2378.39 572.508   1
   0  -6  -5 3217.77 663.086   2
   0   6  -5 3181.01 495.799   1
   0  -6  -5 3696.95 741.306   1
  -6   6  -5 3339.16 613.026   1
   6  -6   5 2981.52 628.335   1
   0  -6   5 3963.51 693.319   2
   6   0  -5 2903.03 502.100   1
   0  -6   6 11693.3 1118.86   2
  -6   6   6 10729.8 1116.65   1
   6  -6   6 10457.1 1064.59   1
   0  -6  -6 11353.2 1215.53   1
   6  -6  -6 9041.49 1052.79   1
  -6   6  -6 9387.34 1026.31   1
   6   0  -6 9698.05 906.521   1
   0   6   6 11122.9 1153.81   1
  -6   0  -6 11666.6 1170.45   1
  -6   0   6 11472.5 975.934   1
   6  -6  -6 10077.9 1013.75   2
   6   0   6 10154.1 1129.23   1
   0  -6  -6 10292.4 1150.86   2
  -6   6   7 6366.27 873.530   1
  -6   6  -7 5931.77 826.822   1
   0  -6  -7 6210.65 888.453   2
   6  -6   7 6044.41 838.374   1
   0  -6  -7 6920.11 945.609   1
   0   6   7 4561.05 806.517   1
   6  -6  -7 5944.58 840.976   1
   6   0   7 5727.10 866.290   1
   6  -6  -7 6266.08 788.737   2
  -6   0  -7 5476.66 856.841   1
   0  -6   7 6662.58 861.493   2
  -6   0  -8 641038. 12921.3   1
  -6   0  -9 3553.49 751.654   1
   0   6   9 4311.60 767.577   1
  -6   6  -9 3888.94 757.622   1
  -6   6   9 2696.42 601.035   1
   0  -6  -9 4315.90 789.184   2
   0  -6  -9 4717.67 814.900   1
   6  -6   9 3869.44 713.934   1
   6  -6  -9 4213.32 742.946   1
   6   0   9 4978.70 877.717   1
   0  -6   9 4556.89 778.429   2
   0  -6 -10 1635.73 516.554   2
  -6   0 -10 1792.79 582.376   1
  -6   6 -10 1820.43 524.647   1
   0  -6 -10 1055.12 418.248   1
   6  -6 -10 1788.86 528.506   1
  -6   6  10 1852.95 535.156   1
   6  -6  10 1496.60 470.415   1
   0  -6  10 1906.49 543.968   2
   6   0  10 1220.81 477.611   1
   0   6  10 1433.09 435.830   1
  -6   6 -11 1746.11 525.865   1
   6   0  11 2096.52 630.079   1
   6  -6 -11 1400.54 537.474   1
   0  -6 -11 1907.06 628.919   2
   0   6  11 1847.25 613.712   1
   0  -6 -11 791.223 438.585   1
   6  -6  11 2123.43 550.233   1
  -6   0 -11 1542.13 501.328   1
  -6   6  11 1608.40 496.913   1
  -6   6  12 605302. 12458.5   1
  -6   0 -12 572789. 12468.7   2
   0  -6 -12 607777. 12608.2   1
   0  -6 -12 559648. 12427.6   2
   0   6  12 574112. 12392.1   1
  -6   0 -12 563366. 12416.7   1
   6  -6 -12 643149. 12651.7   1
  -6   6 -12 588360. 12238.5   1
   6   0  12 527024. 12092.2   1
   6  -6 -13 1095.98 453.185   1
  -6   6  13-298.515 412.441   1
   0  -6 -13 62.3240 339.417   1
   6   0  13 324.106 450.303   1
   0  -6 -13 15.4285 372.649   2
  -6   0 -13 339.048 415.125   1
   0   6  13 843.858 488.955   1
  -6   0 -13 663.144 569.048   2
  -6   0 -14 472.981 372.394   2
   6  -6 -14 260.842 267.770   1
   0  -6 -14 1014.50 533.587   1
   6   0  14 466.561 425.560   1
  -6   0 -14 831.639 515.827   1
   0   6  14 698.644 415.937   1
   0   6  15-236.509 437.381   1
  -6   0 -15 637.272 590.760   1
   0  -6 -15 165.367 388.154   2
  -6   0 -15-136.649 357.711   2
   6   0  15 941.957 501.935   1
   0  -6 -15 605.215 431.240   1
   0  -6 -16 199836. 6371.30   1
   0   6  16 212000. 6529.33   1
  -6   0 -16 196043. 6482.51   1
  -6   0 -16 198790. 6481.91   2
  -6   0 -17 1847.34 592.605   2
   6   0  17 1409.00 567.909   1
   0  -6 -17 1294.53 528.100   1
  -6   0 -17 110.275 361.515   1
   0   6  17 1401.68 560.191   1
   6   0  18-92.1517 360.347   1
  -6   0 -18 69.6358 426.285   2
   0   6  18 378.849 408.277   1
   0  -6 -18-72.7386 387.750   1
  -6   0 -18 111.801 265.600   1
  -4  -3 -18 144209. 5663.45   2
   4   3  18 150517. 5564.00   1
  -3  -4 -18 156783. 5677.82   1
  -4  -3 -18 167724. 5893.41   1
   3   4  18 150049. 5598.55   1
  -3  -4 -18 142869. 5726.47   2
   3   4  17 71696.8 3622.27   1
  -4  -3 -17 77757.0 3866.29   2
  -3  -4 -17 74279.1 3711.18   1
   4   3  17 64650.1 3483.66   1
  -4  -3 -17 74340.1 3739.18   1
  -3  -4 -17 61810.2 3537.35   2
  -4  -3 -16 81771.3 3920.77   2
   4   3  16 77857.1 3736.43   1
  -3  -4 -16 83903.7 3963.22   1
  -4  -3 -16 78972.1 3826.10   1
   3   4  16 85238.2 3894.59   1
  -3  -4 -16 72181.0 3745.41   2
   3   4  15 5218.14 984.527   1
   4   3  15 5713.75 977.005   1
  -3  -4 -15 6480.15 1080.16   1
  -4  -3 -15 6756.64 1079.65   1
  -3  -4 -15 4399.96 900.247   2
  -4  -3 -15 6056.78 969.529   2
  -3  -4 -14 192211. 6335.06   2
  -4  -3 -14 212375. 6489.23   2
  -3  -4 -14 195912. 6217.06   1
  -4  -3 -14 196051. 6275.99   1
   3   4  14 184944. 6050.16   1
   4   3  14 223623. 6489.97   1
  -4  -3 -13 7953.57 1161.09   2
  -3  -4 -13 7167.58 1102.12   2
   3   4  13 8255.28 1163.86   1
   4   3  13 8712.39 1172.61   1
  -3  -4 -13 7739.08 1126.62   1
  -4  -3 -13 7824.97 1123.09   1
  -4  -3 -12 11715.3 1350.67   1
  -3  -4 -12 12075.2 1346.41   1
   3   4  12 10655.7 1269.51   1
   4   3  12 9657.28 1192.45   1
  -3  -4 -12 14232.4 1528.37   2
  -4  -3 -12 13250.8 1408.45   2
  -4  -3 -11 139493. 4880.45   2
   4   3  11 141842. 4789.75   1
  -3  -4 -11 135939. 4764.07   1
   3   4  11 139692. 4827.32   1
  -3  -4 -11 142861. 4867.65   2
  -3  -4 -10 79336.5 3532.43   2
   4   3  10 75137.9 3370.52   1
   3  -7  10 83501.4 3639.18   2
  -3  -4 -10 80186.5 3514.34   1
  -4  -3 -10 76292.7 3447.50   1
   3   4  10 74256.4 3365.67   1
  -7   4  10 83255.4 3309.76   1
  -4  -3 -10 81120.3 3524.53   2
  -7   4   9 312312. 7048.25   1
   3   4   9 270257. 7033.95   1
  -3  -4  -9 254402. 6967.68   1
  -3  -4  -9 254160. 6994.96   2
   7  -3  -9 251598. 6476.55   1
  -4  -3  -9 262992. 7019.04   1
  -4  -3  -9 262509. 7019.33   2
   7  -4  -9 271921. 6784.62   1
   4   3   9 260296. 6922.33   1
   3  -7   9 252919. 6909.58   2
   4  -7   9 240617. 6902.55   2
  -7   3   9 316340. 6947.34   1
   4  -7   8 3054.94 572.054   1
  -7   3   8 2924.78 583.711   1
  -7   4   8 3410.04 643.731   1
   3   4   8 3076.56 667.391   1
  -4   7  -8 2856.64 568.678   1
  -4  -3  -8 2453.64 564.848   2
   7  -4  -8 2800.40 583.446   1
   4   3   8 2680.12 620.253   1
  -3  -4  -8 2623.59 617.339   1
  -4  -3  -8 3111.89 706.513   1
   7  -3  -8 3172.33 639.867   1
  -3  -4  -8 2093.10 565.702   2
   4  -7   8 2906.70 679.622   2
   3  -7   8 3429.74 698.673   2
  -3  -4  -7 235695. 6468.73   2
  -4  -3  -7 248349. 6553.87   2
   7  -4  -7 278488. 6554.87   1
  -7   4   7 273920. 6466.16   1
   7  -3  -7 241101. 6135.36   1
  -3  -4  -7 250008. 6639.62   1
   3  -7   7 237171. 6416.99   2
   4  -7   7 263681. 6233.49   1
   4  -7   7 243617. 6551.04   2
   3   4   7 248387. 6543.65   1
   4   3   7 240236. 6516.48   1
  -7   3   7 215147. 5888.93   1
  -4   7  -7 257133. 6314.48   1
  -4  -3  -7 264878. 6756.39   1
  -3   7  -7 265466. 6159.78   1
   3  -7   7 266741. 6063.59   1
  -7   3   5 172639. 4769.76   1
   4  -7   5 165918. 4643.74   1
  -3   7  -5 154154. 4521.02   1
  -3  -4  -5 180963. 5087.00   1
   4   3   5 161659. 4866.43   1
  -4  -3  -5 170344. 5002.79   1
   3   4   5 170574. 4997.24   1
   3  -7   5 168368. 4526.53   1
   7  -4  -5 183944. 4940.77   1
  -4   7  -5 153569. 4585.86   1
   7  -3  -5 142409. 4471.50   1
  -4  -3  -5 158082. 4843.70   2
  -7   4   5 168322. 4776.48   1
  -3  -4  -5 163492. 4870.87   2
   3  -7   5 164444. 4886.32   2
   4  -7   5 155202. 4789.31   2
  -4  -3  -4 419731. 8984.43   2
   7  -3  -4 400534. 8744.77   1
   3   4   4 439496. 9120.05   1
  -3  -4  -4 414791. 9001.75   1
   4  -7   4 445275. 8830.03   1
   7  -4  -4 390603. 8760.87   1
   4  -7   4 425294. 9122.43   2
  -3  -4  -4 439385. 9228.08   2
   4   3   4 422321. 9037.75   1
  -7   3   4 378855. 8531.47   1
   3  -7   4 438475. 9115.52   2
  -4  -3  -4 390759. 8881.28   1
   4  -7   3 68527.1 2697.06   1
   7  -3  -3 75943.7 2924.29   1
  -3   7  -3 66994.1 2684.89   1
  -4  -3  -3 68430.0 2854.15   1
  -7   3   3 59898.3 2628.48   1
   3   4   3 63794.4 2769.30   1
  -3  -4  -3 63249.8 2723.41   1
   4   3   3 64335.5 2761.67   1
   4  -7   3 65577.0 2876.13   2
   7  -4  -3 62489.3 2716.14   1
  -3  -4  -3 72020.6 2922.67   2
  -7   4   3 64578.3 2733.60   1
   3  -7   3 66124.3 2832.49   2
  -4  -3  -3 65995.3 2837.29   2
   3  -7   3 62916.2 2597.04   1
  -4   7  -3 60613.4 2650.98   1
   3  -7   2 451887. 9298.56   2
  -3  -4  -2 439019. 9124.53   1
  -4  -3  -2 445442. 9178.32   1
   7  -4  -2 430066. 9150.27   1
  -4   7  -2 436874. 9115.65   1
  -7   3   2 432976. 9026.39   1
   3  -7   2 456704. 9055.04   1
   7  -3  -1 63020.2 2667.24   1
  -3   7  -1 64040.4 2678.03   1
  -4   7  -1 67011.9 2733.97   1
  -3  -4  -1 72721.8 2845.74   2
   3  -7   1 62983.4 2612.24   1
  -7   3   1 69288.4 2782.29   1
   3   4   1 64518.1 2677.13   1
  -3  -4  -1 67460.8 2693.88   1
   4  -7   1 73150.0 2959.48   2
  -4  -3  -1 64080.8 2687.39   2
  -4  -3  -1 60650.4 2628.24   1
   7  -4  -1 64901.8 2747.67   1
  -7   4   1 59685.4 2667.61   1
   3  -7   1 63524.5 2749.38   2
   4   3   1 64154.0 2690.47   1
   4  -7   1 65054.4 2668.61   1
   7  -3   0 17604.7 1373.54   1
   3   4   0 19944.9 1417.94   1
  -4   7   0 18045.1 1413.75   1
   7  -4   0 18715.2 1433.91   1
   4  -7   0 18832.6 1383.42   1
  -7   4   0 22524.4 1531.30   1
   4  -7   0 18092.9 1432.07   2
  -3  -4   0 19725.3 1393.92   1
  -4  -3   0 20100.7 1386.98   1
  -3  -4   0 20350.4 1446.46   2
  -7   3   0 18541.4 1430.07   1
   3  -7   0 17163.2 1377.40   2
   4   3   0 19273.6 1408.81   1
  -3   7   0 18971.3 1407.57   1
   3  -7   0 17663.4 1349.62   1
  -4  -3   0 17422.8 1349.29   2
   7  -4   1 118936. 3890.10   1
  -7   4  -1 114549. 3792.99   1
   4  -7  -1 118783. 3800.73   1
   3   4  -1 118772. 3654.44   1
   3  -7  -1 113548. 3761.20   1
  -4   7   1 115945. 3845.93   1
  -3  -4   1 120435. 3769.47   2
   4   3  -1 110749. 3569.31   1
  -3  -4   1 120462. 3657.00   1
   7  -3   1 112838. 3756.77   1
  -4  -3   1 115646. 3590.33   1
   4  -7  -1 111597. 3810.87   2
   3  -7  -1 111968. 3804.29   2
  -3   7   1 113113. 3763.60   1
  -4  -3   1 120988. 3711.39   2
  -4  -3   2 200856. 5214.14   2
   7  -4   2 203135. 5469.36   1
   3  -7  -2 200805. 5494.61   2
  -3  -4   2 202391. 5312.30   2
  -4   7   2 183590. 5280.30   1
  -3   7   2 197353. 5405.76   1
  -3  -4   2 219377. 5154.44   1
   3   4  -2 200347. 5054.66   1
   7  -3   2 182038. 5268.88   1
  -7   4  -2 220369. 5671.62   1
  -7   3  -2 227006. 5726.58   1
   4  -7  -2 198124. 5403.72   2
   4  -7  -2 208586. 5491.96   1
   4   3  -2 190322. 5012.27   1
   3  -7  -2 207976. 5444.81   1
  -4  -3   2 216535. 5177.14   1
   4  -7  -3 287293. 6910.83   2
  -7   4  -3 289019. 6988.84   1
  -4   7   3 270194. 6749.36   1
   3  -7  -3 274669. 6848.58   1
  -3   7   3 284909. 6907.14   1
  -4  -3   3 310917. 6493.71   1
  -3  -4   3 294422. 6305.59   1
   3   4  -3 305097. 6434.86   1
   4  -7  -3 279116. 6908.99   1
   7  -3   3 295919. 6918.54   1
  -7   3  -3 248019. 6643.81   1
   7  -4   3 270195. 6772.44   1
   3  -7  -3 283970. 6883.68   2
  -3  -4   3 311849. 6808.89   2
  -4  -3   3 296751. 6638.55   2
   4  -7  -4 10737.7 1141.76   1
  -4   7   4 10852.7 1128.80   1
  -3  -4   4 9716.43 868.207   1
   7  -4   4 9399.79 1030.71   1
  -4  -3   4 12472.3 968.808   1
  -7   4  -4 10544.1 1142.16   1
   3  -7  -4 10716.0 1118.07   1
   3   4  -4 12180.9 961.191   1
   7  -3   4 12929.7 1188.21   1
   4  -7  -4 11514.6 1171.74   2
  -7   3  -4 11731.5 1166.16   1
   4   3  -4 11839.5 972.677   1
   3  -7  -4 11747.0 1189.16   2
  -3   7   4 12505.6 1192.35   1
  -4  -3   4 11567.7 1004.42   2
  -3  -4   4 10785.1 1023.88   2
   4  -7  -5 524048. 10866.1   1
   3  -7  -7 201425. 5669.06   2
   4  -7  -7 196188. 5721.04   1
   3  -7  -7 207118. 5784.81   1
  -3   7   7 189271. 5608.87   1
   7  -4   7 195620. 5531.29   1
   7  -3   7 202000. 5625.64   1
  -4   7   7 212826. 5746.69   1
  -7   4  -7 194418. 5639.02   1
  -3  -4   7 196483. 5203.77   2
   4  -7  -7 202085. 5657.36   2
  -7   3  -7 207897. 5819.98   1
   4  -7  -8 296338. 7265.22   2
   3  -7  -8 290289. 7347.20   1
  -4   7   8 276630. 7215.32   1
  -3   7   8 309916. 7516.63   1
   4  -7  -8 305943. 7527.72   1
   7  -3   8 279940. 7145.42   1
   7  -4   8 293478. 7261.61   1
  -7   3  -8 301853. 7506.01   1
  -7   4  -8 276552. 7189.78   1
   3  -7  -8 290385. 7293.78   2
   3  -7  -9 3267.71 706.095   2
   4  -7  -9 4021.23 783.589   2
  -7   3  -9 2612.63 653.390   1
   4  -7  -9 3522.39 747.697   1
   3  -7  -9 2733.78 645.499   1
   7  -3   9 2404.55 611.177   1
   7  -4   9 2539.03 641.889   1
  -4   7   9 4020.80 736.995   1
  -3   7   9 3664.95 734.923   1
  -7   4  -9 3462.45 700.309   1
   7  -4  10 314310. 7839.37   1
   7  -3  10 323260. 7993.94   1
   3  -7 -10 297618. 7867.26   1
  -3   7  10 295920. 7784.16   1
  -7   3 -10 317111. 8073.79   1
  -7   4 -10 326826. 8111.73   1
   4  -7 -10 324516. 8151.50   1
   4  -7 -10 326157. 7928.74   2
   3  -7 -10 345562. 8174.71   2
  -4   7  10 336655. 8120.40   1
   3  -7 -11 24426.2 1920.97   1
  -4   7  11 27458.9 2032.55   1
  -3   7  11 28872.9 2019.98   1
   7  -4  11 26283.6 1930.49   1
   4  -7 -11 28148.5 1970.27   2
  -7   3 -11 26609.8 2015.11   1
  -7   4 -11 27388.8 2043.86   1
   4  -7 -11 28257.5 2065.24   1
   3  -7 -11 27102.8 1981.13   2
   7  -3  11 28796.6 2001.82   1
   3  -7 -12 15317.0 1511.59   2
   4  -7 -12 14093.9 1489.93   1
   3  -7 -12 13605.4 1438.37   1
  -4   7  12 14530.2 1449.48   1
   7  -4  12 16009.5 1539.59   1
  -3   7  12 14133.7 1414.90   1
  -7   3 -12 12932.2 1447.82   1
  -7   4 -12 13392.9 1438.29   1
   7  -3  12 14305.3 1490.04   1
   7  -4  13 133533. 4905.01   1
  -7   3 -13 134516. 4959.45   1
   7  -3  13 145556. 5068.34   1
   3  -7 -13 133036. 4935.55   1
  -4   7  13 122560. 4714.90   1
  -3   7  13 148253. 5080.07   1
   4  -7 -13 134109. 4943.66   1
  -7   4 -13 140026. 5048.15   1
  -3   7  14 55163.3 2969.11   1
   7  -3  14 54682.1 3023.28   1
  -7   3 -14 54353.9 3020.61   1
  -7   4 -14 50258.0 2954.39   1
   3  -7 -14 57862.9 3097.07   1
  -4   7  14 47005.4 2833.51   1
   7  -4  14 51318.8 2919.00   1
   4  -7 -14 50192.8 2931.47   1
   7  -3  15 81939.1 3888.07   1
   3  -7 -15 75877.3 3739.43   1
  -4   7  15 94944.4 4115.52   1
  -3   7  15 82571.3 3839.80   1
  -7   3 -15 85157.8 3983.72   1
  -7   4 -15 90764.2 4073.36   1
   4  -7 -15 91761.4 4088.59   1
   4  -7 -16 1082.63 534.475   1
   3  -7 -16 671.305 412.545   1
  -4   7  16 405.641 397.350   1
   7  -3  16 635.913 362.351   1
  -3   7  16 830.492 421.689   1
  -7   3 -16 628.971 378.254   1
   3  -7 -17 41303.3 2806.34   1
  -3   7  17 36432.0 2624.99   1
   4  -7 -17 37884.8 2698.91   1
  -2  -5 -18-6.33861 295.481   1
   5   2  18-25.4237 284.428   1
  -5  -2 -18-125.264 365.377   2
  -5  -2 -18 727.402 458.016   1
   2   5  18-194.826 349.518   1
  -2  -5 -17 5699.90 1092.04   2
   5   2  17 4428.88 907.144   1
   2   5  17 5244.17 1029.10   1
  -2  -5 -17 5664.27 1062.59   1
  -5  -2 -17 4583.89 937.913   1
  -5  -2 -17 7505.19 1190.29   2
   2   5  16 301730. 8290.43   1
  -5  -2 -16 326529. 8660.82   1
  -2  -5 -16 307460. 8487.19   1
  -2  -5 -16 290567. 8451.15   2
  -5  -2 -16 324835. 8650.00   2
   5   2  16 288109. 8159.12   1
  -5  -2 -15 2982.68 798.709   2
   2   5  15 2758.47 726.222   1
  -5  -2 -15 2744.77 774.520   1
  -2  -5 -15 2922.05 727.061   2
  -2  -5 -15 2516.36 638.987   1
   5   2  15 2167.07 593.918   1
  -5  -2 -14 2604.26 690.063   2
  -2  -5 -14 2322.87 640.331   1
  -5  -2 -14 2939.23 806.104   1
   2   5  14 3254.74 780.212   1
   5   2  14 3530.40 793.043   1
  -2  -5 -14 2735.62 714.591   2
   5   2  13 409.746 280.469   1
  -2  -5 -13 399.847 363.221   2
  -5  -2 -13 264.557 329.821   1
   2   5  13 19.1636 366.143   1
  -5  -2 -13 1127.64 536.653   2
  -2  -5 -13 750.414 445.979   1
  -5  -2 -12 184828. 5840.46   2
  -2  -5 -12 177938. 5811.10   2
  -2  -5 -12 178330. 5825.89   1
   5   2  12 167500. 5592.39   1
   7  -5 -12 195347. 5909.83   1
  -5  -2 -12 196538. 6053.25   1
   2   5  12 185399. 5797.03   1
   2   5  11 718.962 489.493   1
  -2  -5 -11 1124.95 558.212   2
   2  -7  11 885.464 496.743   2
  -7   5  11 727.002 392.197   1
   7  -5 -11 508.188 255.931   1
   5   2  11 1124.50 446.538   1
  -5  -2 -11 811.214 396.346   1
  -5  -2 -11 1422.13 522.846   2
  -2  -5 -11 672.171 470.840   1
  -2  -5 -10 23536.7 1863.53   2
   7  -5 -10 27106.9 1902.20   1
   5   2  10 26286.8 1876.03   1
  -5  -2 -10 24415.6 1917.80   1
   2   5  10 25190.5 1856.63   1
  -7   5  10 24111.1 1779.64   1
  -5  -2 -10 25026.8 1904.68   2
  -2  -5 -10 23667.2 1831.10   1
   2  -7  10 22485.2 1823.78   2
  -7   5   9 10444.1 1100.45   1
  -2  -5  -9 7737.21 1074.17   2
   7  -5  -9 7554.52 980.076   1
  -2  -5  -9 7007.13 997.740   1
   2  -7   9 7811.02 1112.84   2
   5   2   9 6893.52 976.607   1
   2   5   9 8717.70 1138.33   1
   5  -7   9 9051.01 978.012   1
  -5   7  -9 8181.43 991.786   1
  -5  -2  -9 8139.05 1090.33   1
  -5  -2  -9 7310.11 1036.29   2
   5   2   7 2484.02 622.380   1
  -7   2   7 2277.80 473.156   1
   2   5   7 2268.91 566.312   1
  -5   7  -7 1629.88 439.707   1
  -5  -2  -7 1899.45 551.077   2
  -2  -5  -7 2367.90 613.875   2
  -7   5   7 2235.58 578.322   1
  -2  -5  -7 1808.29 560.206   1
   5  -7   7 1797.75 455.535   1
   7  -2  -7 1776.71 424.731   1
  -5  -2  -7 2549.84 582.932   1
   7  -5  -7 1957.12 545.790   1
   5  -7   7 2355.35 633.572   2
   2  -7   7 1973.11 560.872   2
  -5  -2  -6 17945.6 1544.39   2
   7  -2  -6 19423.9 1425.02   1
  -2   7  -6 20674.8 1411.97   1
   7  -5  -6 20288.1 1532.25   1
  -5   7  -6 21801.4 1573.45   1
  -2  -5  -6 19536.9 1514.03   1
  -5  -2  -6 20600.2 1634.82   1
   5  -7   6 17387.1 1369.24   1
  -2  -5  -6 19277.7 1572.35   2
   2   5   6 19653.6 1586.27   1
   2  -7   6 19640.7 1364.71   1
  -7   2   6 22525.9 1485.84   1
  -7   5   6 20554.6 1546.51   1
   2  -7   6 20194.2 1543.74   2
   5  -7   6 22818.3 1705.61   2
   5   2   6 18377.0 1531.59   1
   5   2   5 28002.4 1899.93   1
  -5  -2  -5 27683.7 1813.05   2
   7  -5  -5 27669.1 1819.82   1
  -2   7  -5 28064.6 1635.85   1
  -2  -5  -5 25347.3 1742.59   1
  -7   2   5 28744.8 1720.77   1
  -5  -2  -5 25395.8 1755.92   1
   2   5   5 28647.0 1864.48   1
   5  -7   5 23550.4 1797.48   2
  -7   5   5 23907.9 1620.34   1
   2  -7   5 26590.2 1787.92   2
   5  -7   5 26506.7 1700.70   1
  -5   7  -5 28052.7 1789.74   1
  -2  -5  -5 26698.2 1801.81   2
   7  -2  -5 29299.6 1775.67   1
   5  -7   3 2233.33 534.132   1
   2   5   3 2339.52 556.295   1
   5  -7   3 2057.36 563.411   2
   7  -2  -3 1524.81 397.141   1
  -7   2   3 1955.54 418.349   1
   2  -7   3 1934.68 461.686   1
   5   2   3 2614.05 605.917   1
   2  -7   3 2139.33 514.100   2
  -2   7  -3 2426.27 533.614   1
  -5   7  -3 3080.80 595.399   1
  -2  -5  -3 1901.93 473.526   1
  -2  -5  -3 2168.12 538.130   2
  -7   5   3 2335.45 498.992   1
  -5  -2  -3 1288.01 459.459   1
  -5  -2  -3 1900.22 497.011   2
   7  -5  -3 2107.68 497.421   1
   7  -5  -2 1411.62 492.701   1
   7  -2  -2 1169.79 375.379   1
  -7   5   2 1795.59 508.578   1
   2  -7   2 1530.23 483.943   2
  -5   7  -2 1650.36 468.024   1
  -5  -2  -2 980.556 425.166   1
   5  -7   2 1324.92 460.647   1
   2  -7   2 703.828 299.429   1
  -2   7  -2 1136.10 429.909   1
  -2  -5  -2 1256.09 383.152   1
   5  -7   2 971.742 380.682   2
   5   2   2 1332.56 446.223   1
   2   5   2 541.586 249.635   1
  -5  -2  -2 1586.56 481.476   2
  -2  -5  -2 1615.19 520.586   2
  -7   2   2 1594.67 415.216   1
  -2  -5  -1 980.424 450.736   2
   5  -7   1 391.684 367.483   2
  -5  -2  -1-260.917 243.373   2
  -7   5   1 760.613 403.998   1
   7  -2  -1-16.6366 296.626   1
  -5   7  -1-174.002 346.294   1
   7  -5  -1 233.043 288.838   1
   2  -7   1 152.485 273.467   1
  -2  -5  -1 514.732 303.263   1
  -2   7  -1 171.752 265.818   1
   5   2   1 437.857 314.466   1
  -5  -2  -1 752.711 387.918   1
   5  -7   1 760.722 409.325   1
   2  -7   1-152.213 278.778   2
   2   5   1 132.736 277.232   1
  -7   2   1 432.491 225.863   1
   2   5  -1 1731.71 456.345   1
  -2  -5   1 1617.16 471.582   2
  -5  -2   1 1210.87 304.443   2
  -7   5  -1 1546.63 442.665   1
   7  -2   1 1539.60 433.480   1
   5  -7  -1 1441.67 485.909   1
   2  -7  -1 1821.85 460.684   1
  -5   7   1 1647.35 511.190   1
   2  -7  -1 1639.16 464.627   2
  -2  -5   1 1797.56 474.745   1
   7  -5   1 1323.75 378.710   1
  -2   7   1 1734.63 456.493   1
   5   2  -1 1734.40 435.459   1
  -5  -2   1 2139.28 448.841   1
   5  -7  -1 1525.99 496.216   2
  -7   2  -1 1130.48 392.515   1
   2  -7  -2 976.972 384.293   1
  -7   5  -2 1061.86 449.645   1
  -5  -2   2 593.326 279.772   2
   5  -7  -2 2253.86 551.869   1
   7  -5   2 1326.84 454.033   1
  -5   7   2 830.991 324.774   1
  -2  -5   2 1085.29 347.725   1
  -2   7   2 1147.97 423.235   1
   7  -2   2 964.669 395.636   1
   5   2  -2 1260.02 353.626   1
  -5  -2   2 1230.38 370.334   1
   2   5  -2 882.804 330.082   1
  -7   2  -2 919.845 375.579   1
   2  -7  -2 574.437 272.318   2
  -2  -5   2 597.825 275.339   2
   5  -7  -2 576.936 312.286   2
  -2  -5   3 5659.13 792.537   2
   5   2  -3 5729.88 724.021   1
  -5  -2   3 4685.37 696.006   2
   5  -7  -3 6347.09 832.605   1
  -2  -5   3 5606.48 708.293   1
   2  -7  -3 5442.89 802.747   1
  -7   2  -3 5677.29 820.330   1
  -5   7   3 6809.05 911.616   1
   5  -7  -3 5901.35 826.437   2
   2   5  -3 7135.98 791.952   1
  -5  -2   3 6252.50 719.927   1
   7  -2   3 6387.11 838.381   1
   7  -5   3 6658.45 911.149   1
  -7   5  -3 5879.70 822.774   1
  -2   7   3 6048.78 869.339   1
   2  -7  -3 6084.14 832.717   2
   2  -7  -4 618845. 12058.9   1
  -7   2  -4 601867. 12008.1   1
   5  -7  -4 587269. 11908.1   2
   7  -5   5 10330.4 1052.85   1
  -5   7   5 9535.15 1087.80   1
   5  -7  -5 10389.5 1084.03   2
   7  -2   5 11962.4 1150.82   1
   5  -7  -5 9766.44 1087.51   1
   2  -7  -5 9351.28 1083.69   1
  -2   7   5 9950.25 1097.84   1
  -7   5  -5 9045.16 1054.67   1
  -7   2  -5 11695.6 1159.38   1
   5   2  -5 12865.5 1010.42   1
   2  -7  -5 11188.3 1160.11   2
  -5  -2   5 10467.0 941.035   2
  -2  -5   5 10637.1 1055.68   2
  -2  -5   6 1830.90 477.204   2
   7  -5   6 1420.20 481.072   1
   7  -2   6 2212.02 610.947   1
  -5   7   6 2492.49 563.598   1
  -2   7   6 1603.85 489.888   1
   2  -7  -6 1589.58 543.477   2
   2  -7  -6 1013.89 483.485   1
  -7   5  -6 2030.44 541.128   1
   5  -7  -6 1119.53 473.028   1
  -7   2  -6 1378.46 474.773   1
   5  -7  -6 1392.82 426.599   2
  -2  -5   7 23017.9 1577.37   2
  -5   7   7 20303.0 1594.77   1
   2  -7  -7 21791.7 1653.76   1
   2  -7  -7 20586.3 1639.83   2
  -2   7   7 21408.7 1616.70   1
   7  -2   7 21055.3 1641.38   1
  -7   5  -7 20134.7 1592.84   1
   5  -7  -7 18111.3 1459.66   2
   7  -5   7 22504.1 1628.83   1
  -7   2  -7 23694.5 1747.40   1
   5  -7  -7 22423.7 1692.07   1
  -7   2  -9 6232.15 987.100   1
   7  -5   9 6767.88 940.826   1
   5  -7  -9 4555.05 850.189   1
   2  -7  -9 5138.04 860.401   1
   5  -7  -9 5905.25 891.716   2
  -5   7   9 5174.94 866.952   1
   7  -2   9 5382.64 843.351   1
  -2   7   9 6238.12 943.079   1
  -7   5  -9 5855.59 912.899   1
   2  -7  -9 4892.50 819.774   2
   2  -7 -10 10431.4 1268.78   1
   7  -2  10 9926.00 1204.81   1
  -5   7  10 11261.9 1231.67   1
  -2   7  10 11067.6 1290.37   1
   7  -5  10 9574.91 1130.19   1
  -7   2 -10 13722.7 1348.61   1
  -7   5 -10 10670.4 1219.50   1
   5  -7 -10 11851.5 1289.20   1
   2  -7 -10 10188.5 1221.39   2
  -7   2 -11 1777.79 586.356   1
   5  -7 -11 2078.60 610.773   1
   2  -7 -11 1461.65 589.967   2
   7  -5  11 1478.12 557.099   1
  -2   7  11 1865.23 651.608   1
   2  -7 -11 2153.51 645.231   1
  -5   7  11 1514.66 512.630   1
   7  -2  11 2231.54 625.006   1
  -7   5 -11 2011.12 590.930   1
   2  -7 -12 198077. 6230.95   1
  -5   7  12 205410. 6150.91   1
  -2   7  12 194202. 6039.72   1
   7  -2  12 211667. 6278.42   1
   7  -5  12 209188. 6210.42   1
  -7   2 -12 201943. 6253.73   1
  -7   5 -12 198397. 6206.13   1
   5  -7 -12 188666. 6088.19   1
   2  -7 -12 216461. 6429.81   2
   2  -7 -13 377.497 380.580   2
   5  -7 -13-135.926 452.046   1
   7  -5  13 329.127 354.278   1
  -5   7  13-149.696 376.588   1
  -7   2 -13 369.678 313.751   1
   7  -2  13-135.986 421.481   1
  -2   7  13 52.6508 304.702   1
   2  -7 -13 171.812 317.018   1
  -7   5 -13 686.792 473.671   1
   2  -7 -14 1434.70 594.073   1
  -5   7  14 543.301 408.530   1
  -2   7  14 1063.09 516.851   1
   7  -2  14 788.474 367.145   1
  -7   2 -14 1056.15 440.728   1
  -7   5 -14 961.586 457.120   1
   5  -7 -14 1961.04 668.237   1
   5  -7 -15 2635.81 696.830   1
   2  -7 -15 1953.83 596.481   1
  -5   7  15 2914.56 716.647   1
   7  -2  15 1595.88 603.679   1
  -7   2 -15 2032.66 600.920   1
  -2   7  15 2383.48 658.658   1
   5  -7 -16 259710. 7685.64   1
   2  -7 -16 256264. 7509.67   1
  -7   2 -16 234332. 7354.42   1
   7  -2  16 235665. 7242.00   1
  -2   7  16 247130. 7293.10   1
   2  -7 -17 1091.68 494.556   1
  -7   2 -17 1513.59 638.233   1
  -2   7  17 916.423 429.220   1
  -2   7  18 4274.62 812.239   1
   2  -7 -18 3229.28 807.703   1
  -6  -1 -17 102510. 4491.51   2
  -6  -1 -17 91974.1 4293.31   1
  -1  -6 -17 95713.3 4312.08   1
   6   1  17 91718.8 4175.33   1
   1   6  17 104947. 4473.09   1
  -1  -6 -16 792.261 566.624   2
  -6  -1 -16 1178.70 481.644   2
  -1  -6 -16 1811.64 607.934   1
  -6  -1 -16 1621.32 625.162   1
   6   1  16 842.543 399.800   1
   1   6  16 929.407 430.706   1
  -6  -1 -15 75302.5 3738.38   2
   6   1  15 71213.4 3557.85   1
  -1  -6 -15 82761.3 3840.17   1
  -6  -1 -15 70359.6 3600.63   1
   1   6  15 82414.0 3809.78   1
  -1  -6 -15 65448.0 3593.92   2
  -6  -1 -14 134193. 4992.14   2
  -1  -6 -14 125341. 4965.03   2
   6   1  14 116053. 4612.77   1
  -1  -6 -14 127184. 4888.60   1
  -6  -1 -14 131581. 4981.43   1
   1   6  14 132764. 4867.79   1
   7  -6 -13 23837.4 1956.29   1
   6   1  13 23532.2 1929.00   1
  -1  -6 -13 22635.7 1870.33   1
  -6  -1 -13 25145.5 2013.79   2
  -6  -1 -13 21241.8 1858.28   1
   1   6  13 21097.7 1885.41   1
  -1  -6 -13 20226.6 1864.75   2
  -7   6  12 25163.2 1986.05   1
  -6  -1 -12 31355.4 2244.28   2
  -1  -6 -12 28261.1 2088.11   1
  -6  -1 -12 28284.5 2155.24   1
   1   6  12 28176.0 2080.72   1
  -1  -6 -12 25065.0 2058.88   2
   7  -6 -12 25259.5 2043.51   1
   6   1  12 28884.5 2050.07   1
  -7   6  11 27167.9 1999.38   1
  -6  -1 -11 23899.0 1970.05   2
   1  -7  11 22678.5 1883.50   2
  -1  -6 -11 24007.3 1878.13   1
  -6  -1 -11 21061.0 1843.44   1
   1   6  11 25456.1 1960.32   1
   6   1  11 24355.7 1895.10   1
   7  -6 -11 24998.2 1859.72   1
  -1  -6 -11 22985.2 1906.31   2
  -7   6  10 219836. 6292.47   1
  -6  -1 -10 217218. 6398.83   2
  -6  -1 -10 209576. 6276.76   1
  -6   7 -10 228981. 6316.86   1
   1   6  10 213693. 6333.26   1
  -1  -6 -10 219111. 6356.19   2
   1  -7  10 227278. 6463.63   2
   6  -7  10 222788. 6156.29   1
  -1  -6 -10 209403. 6319.73   1
   6   1  10 220176. 6299.59   1
   7  -6 -10 215715. 6257.34   1
  -1  -6  -9 76541.3 3452.74   1
   6   1   9 82667.5 3528.36   1
  -6  -1  -9 76813.1 3394.46   1
   1   6   9 76086.7 3440.23   1
  -6   7  -9 86400.4 3518.27   1
  -7   6   9 69444.4 3225.20   1
  -1  -6  -9 84676.0 3624.53   2
   1  -7   9 84687.8 3534.09   2
  -6  -1  -9 81425.1 3540.30   2
   7  -6  -9 81037.8 3433.66   1
   6  -7   9 87992.7 3453.38   1
  -6  -1  -8 141711. 4939.20   2
   6  -7   8 151598. 4754.37   1
  -1  -6  -8 161410. 5177.13   2
  -1  -6  -8 156960. 5088.24   1
  -6  -1  -8 150844. 4925.32   1
   1   6   8 148651. 4983.47   1
  -6   7  -8 155012. 4891.06   1
  -7   6   8 174432. 5187.66   1
   1  -7   8 169193. 5154.79   2
   7  -6  -8 154777. 4909.67   1
   6   1   8 165148. 5122.89   1
  -7   6   7 164520. 4957.42   1
   6   1   7 140827. 4790.25   1
  -6  -1  -7 164528. 5055.73   2
  -1  -6  -7 151720. 4963.76   1
   6  -7   7 168928. 4942.93   1
  -6   7  -7 155008. 4856.03   1
  -6  -1  -7 156161. 4994.52   1
   1   6   7 146316. 4897.01   1
   1  -7   7 164967. 4984.10   2
   7  -6  -7 141934. 4724.86   1
   7  -1  -7 152132. 4457.93   1
  -1  -6  -7 152756. 4969.43   2
  -7   6   5 163800. 5227.61   1
  -6  -1  -5 189637. 5523.36   2
  -1   7  -5 214000. 5256.54   1
   1  -7   5 183939. 4924.95   1
  -1  -6  -5 201176. 5659.54   1
   1  -7   5 190494. 5476.44   2
   7  -6  -5 196221. 5454.99   2
   7  -6  -5 205397. 5654.79   1
  -1  -6  -5 196594. 5676.40   2
   6  -7   5 191835. 5412.23   1
  -6  -1  -5 229866. 5977.45   1
   1   6   5 195978. 5650.53   1
   7  -1  -5 206613. 5339.65   1
   6   1   5 204895. 5678.95   1
  -7   1   5 209131. 5316.66   1
  -6   7  -5 191041. 5518.45   1
   6  -7   5 200338. 5812.98   2
   7  -6  -4 12687.7 1255.65   1
  -6  -1  -4 12177.4 1212.84   2
   1  -7   4 10373.9 990.220   1
  -1  -6  -4 11461.8 1177.86   1
  -7   6   4 12316.8 1208.19   1
   7  -6  -4 12429.5 1151.23   2
  -6  -1  -4 12824.4 1256.34   1
   7  -1  -4 11603.3 1097.79   1
  -7   1   4 11838.4 1114.67   1
   6  -7   4 10910.1 1122.41   1
   1  -7   4 11596.4 1141.30   2
  -1   7  -4 11551.5 1041.13   1
   1   6   4 12048.4 1182.87   1
   6   1   4 11678.7 1225.96   1
  -6   7  -4 11100.0 1159.68   1
  -1  -6  -4 14359.6 1291.42   2
   6  -7   4 11265.2 1227.10   2
  -6  -1  -3 429492. 9406.18   2
   7  -6  -3 423846. 9418.18   1
   1  -7   3 438446. 8980.27   1
  -1   7  -3 466628. 9168.77   1
  -1  -6  -3 435066. 9439.58   1
   1   6   3 433355. 9452.09   1
   6   1   3 453696. 9573.17   1
  -6  -1  -3 426746. 9415.33   1
   1  -7   3 433995. 9423.36   2
  -6   7  -3 425696. 9417.89   1
   6  -7   3 454129. 9767.63   2
  -1  -6  -3 443407. 9576.54   2
  -7   6   3 446294. 9529.26   1
  -6  -1  -2 223523. 5754.47   2
   7  -6  -2 205990. 5702.44   1
  -7   1   2 215315. 5396.68   2
   6  -7   2 213298. 5826.46   2
   1  -7   2 208857. 5362.99   1
  -1   7  -2 214983. 5491.92   1
   6  -7   2 215435. 5691.17   1
   7  -1  -2 202034. 5449.72   1
   6   1   2 196529. 5566.01   1
  -1  -6  -2 206964. 5678.76   2
  -7   1   2 216430. 5567.37   1
  -1  -6  -2 208418. 5667.36   1
   7  -6  -2 213182. 5699.86   2
  -7   6   2 211917. 5717.84   1
  -6  -1  -2 213039. 5682.62   1
   1   6   2 197987. 5611.64   1
   1  -7   2 191085. 5532.87   2
  -6   7  -2 204616. 5640.09   1
  -6   7  -1 420039. 9100.31   1
   7  -6  -1 433031. 9179.92   1
  -1  -6  -1 416471. 9103.44   2
   6  -7   1 423754. 9075.61   1
  -1   7  -1 419642. 8867.21   1
  -1  -6  -1 404486. 8920.00   1
   1   6   1 413096. 8980.25   1
  -6  -1  -1 431399. 9033.59   1
  -7   1   1 428483. 8956.64   1
  -7   1   1 423214. 8790.40   2
   6  -7   1 408669. 9134.15   2
   1  -7   1 415773. 9042.06   2
  -7   6   0 45518.4 2361.88   1
   6   1   0 46328.0 2295.32   1
  -6  -1   0 47430.4 2308.58   1
  -6   7   0 43548.8 2324.95   1
  -1  -6   0 46047.1 2254.49   1
  -1   7   0 43504.0 2238.51   1
   1  -7   0 46061.9 2263.19   1
   6  -7   0 42215.9 2271.30   2
   1   6   0 45389.0 2248.23   1
   6  -7   0 43848.3 2294.15   1
   7  -1   0 41228.8 2211.79   1
   7  -6   0 46665.8 2353.23   1
  -6  -1   0 41846.5 2141.32   2
  -7   1   0 44287.0 2274.76   1
  -1  -6   0 43870.1 2319.29   2
   1  -7   0 43814.8 2312.13   2
  -6  -1   1 13759.6 1215.92   2
  -6   7   1 13065.6 1257.50   1
  -7   6  -1 11340.7 1183.90   1
   6   1  -1 11515.4 1130.44   1
  -1  -6   1 14147.5 1189.87   1
  -1   7   1 12711.7 1208.11   1
   1   6  -1 13599.0 1183.95   1
   7  -1   1 12766.0 1192.50   1
   1  -7  -1 12456.8 1128.30   1
  -6  -1   1 12223.3 1136.15   1
   7  -6   1 12774.6 1213.90   1
  -7   1  -1 12751.0 1198.90   1
   6  -7  -1 13193.5 1224.94   1
   6  -7  -1 13982.2 1284.36   2
  -1  -6   1 12578.0 1201.89   2
   1  -7  -1 11388.6 1165.85   2
  -1   7   3 1401.29 455.640   1
  -6  -1   3 2131.57 446.841   1
   6   1  -3 1505.13 431.760   1
  -6  -1   3 1330.91 424.777   2
  -6   7   3 1005.96 437.553   1
  -1  -6   3 1642.43 457.904   1
   1  -7  -3 1069.45 398.130   1
   6  -7  -3 1413.31 484.203   2
   1   6  -3 1235.40 379.935   1
   7  -6   3 1680.05 514.716   1
   6  -7  -3 1357.54 515.061   1
  -7   6  -3 878.945 428.337   1
   1  -7  -3 1827.09 597.772   2
  -7   1  -3 1484.89 561.182   1
  -1  -6   3 909.053 403.402   2
   7  -1   3 905.021 364.875   1
  -6   7   4 187948. 5451.85   1
  -1  -6   4 186647. 4833.67   1
   1   6  -4 209115. 5057.23   1
   6   1  -4 205400. 5242.32   1
   7  -6   4 198859. 5436.24   1
   1  -7  -4 186820. 5455.74   1
  -7   6  -4 194172. 5481.97   1
   7  -1   4 211689. 5696.85   1
  -1   7   4 196605. 5580.92   1
   6  -7  -4 189706. 5477.33   1
   6  -7  -4 181679. 5234.27   2
  -6  -1   4 176312. 4900.20   1
  -7   1  -4 199691. 5605.63   1
  -1  -6   4 194760. 5372.76   2
   1  -7  -4 189148. 5496.44   2
  -6  -1   4 183438. 4865.39   2
   7  -6   5 227367. 6028.78   1
   6   1  -5 241275. 5675.05   1
   7  -1   5 195234. 5845.24   1
  -1   7   5 223080. 6146.21   1
  -6  -1   5 217399. 5441.96   1
  -7   1  -5 235537. 6247.54   1
  -7   6  -5 220913. 5991.33   1
   6  -7  -5 238739. 6030.32   2
   1  -7  -5 218086. 6100.47   2
  -6   7   5 236797. 6225.19   1
   1  -7  -5 223928. 6159.92   1
   6  -7  -5 222763. 6146.26   1
  -1  -6   5 234356. 6042.63   2
  -6   7   6 480187. 9961.87   1
  -1  -6   6 456354. 9737.93   2
   1  -7  -6 454891. 9923.27   1
   7  -1   6 426620. 9696.95   1
  -1   7   6 441497. 9831.23   1
   7  -6   6 469066. 9768.21   1
  -7   1  -6 424584. 9774.84   1
   6  -7  -6 447127. 9827.13   1
   1  -7  -6 450306. 9890.24   2
  -7   6  -6 438978. 9704.87   1
  -7   6  -7 399211. 9090.63   1
   6  -7  -7 401229. 9136.79   1
   1  -7  -7 402946. 9215.91   1
  -1   7   7 395169. 9173.41   1
  -7   1  -7 352365. 8976.61   1
   1  -7  -7 399332. 9205.09   2
  -1  -6   7 431579. 9133.86   2
   6  -7  -7 386880. 8825.88   2
   7  -1   7 405497. 9160.60   1
   7  -6   7 382614. 8828.55   1
  -6   7   7 416230. 9198.65   1
  -7   6  -8 460.083 303.498   1
   1  -7  -8 296.780 404.211   2
   6  -7  -8 2221.93 630.459   1
   7  -1   8 718.906 431.189   1
   7  -6   8 470.215 246.153   1
  -1   7   8 297.704 330.331   1
  -6   7   8 716.874 465.684   1
   1  -7  -8 233.071 355.218   1
   6  -7  -8 1797.22 483.201   2
  -1  -6   8 778.896 392.576   2
  -7   1  -8 736.374 528.601   1
  -6   7   9 153987. 5129.28   1
  -1  -6   9 150168. 4913.46   2
   7  -1   9 166208. 5323.52   1
   6  -7  -9 179150. 5423.31   1
   1  -7  -9 148089. 5131.34   1
  -1   7   9 168677. 5355.02   1
  -7   1  -9 163621. 5349.11   1
   1  -7  -9 172841. 5450.21   2
  -7   6  -9 161715. 5188.33   1
   7  -6   9 187188. 5395.61   1
   7  -1  10 247930. 7073.66   1
   6  -7 -10 251415. 7075.59   1
   1  -7 -10 274247. 7298.02   1
  -1   7  10 266321. 7273.91   1
  -7   1 -10 265629. 7260.32   1
  -6   7  10 270325. 7256.74   1
   7  -6  10 278078. 7120.38   1
  -7   6 -10 270751. 7209.57   1
   1  -7 -10 275734. 7310.00   2
  -6   7  11 79179.5 3627.74   1
   1  -7 -11 79319.6 3663.83   1
  -1   7  11 86330.5 3767.16   1
   1  -7 -11 81657.2 3700.68   2
  -7   1 -11 87255.9 3803.04   1
   7  -6  11 83642.6 3559.90   1
   7  -1  11 82800.1 3670.64   1
   6  -7 -11 83359.9 3709.63   1
  -7   6 -11 85247.1 3692.24   1
  -6   7  12 16793.4 1617.69   1
   6  -7 -12 18322.2 1700.31   1
   1  -7 -12 17680.2 1703.01   1
   7  -1  12 19080.4 1711.92   1
  -1   7  12 17749.8 1648.67   1
   7  -6  12 17136.1 1583.38   1
  -7   1 -12 18834.9 1726.93   1
  -7   6 -12 18604.0 1699.10   1
   1  -7 -12 19385.7 1766.00   2
  -6   7  13 54910.6 3042.10   1
   6  -7 -13 60120.8 3217.94   1
   1  -7 -13 61363.6 3226.40   1
   7  -1  13 54096.1 3017.55   1
  -1   7  13 53314.0 2967.43   1
  -7   1 -13 55948.3 3015.83   1
  -7   6 -13 55767.5 3068.90   1
   1  -7 -13 55288.6 3179.29   2
   7  -1  14 117196. 4604.70   1
   6  -7 -14 112060. 4643.34   1
   1  -7 -14 118999. 4691.89   1
  -1   7  14 119267. 4619.34   1
  -6   7  14 106476. 4474.62   1
  -7   1 -14 104599. 4446.01   1
   1  -7 -14 113284. 4679.09   2
  -7   1 -15 26409.3 2139.39   2
   6  -7 -15 24289.9 2051.73   1
   1  -7 -15 24898.6 2122.44   1
  -1   7  15 24866.8 2040.28   1
  -7   1 -15 26690.9 2177.96   1
   7  -1  15 24082.0 2041.30   1
  -7   1 -16 42359.9 2851.12   2
   1  -7 -16 37684.6 2636.37   1
   7  -1  16 39204.7 2634.52   1
  -1   7  16 43494.9 2763.20   1
  -7   1 -16 48332.7 2952.14   1
  -7   1 -17 8100.41 1239.68   2
   1  -7 -17 9039.75 1306.66   1
  -1   7  17 9977.95 1307.56   1
   7  -1  17 8441.95 1232.30   1
  -7   1 -17 8007.39 1265.17   1
   7   0   0 1855.92 549.238   1
  -7   7   0 2589.24 581.635   1
   0  -7   0 1756.02 448.966   1
   0   7   0 3566.28 638.541   1
   7  -7   0 2860.15 653.789   1
  -7   0   0 3093.47 651.284   2
  -7   0   0 2336.41 588.050   1
   0  -7   0 2728.27 625.184   2
   7  -7   0 1785.69 540.839   2
   0  -7  -1 758.892 339.601   2
  -7   0   1 223.014 275.561   2
  -7   0  -1 676.723 376.916   2
   7  -7  -1 957.122 423.248   1
   7   0  -1 1014.48 422.313   1
  -7   7  -1 623.215 426.894   1
  -7   7   1 518.044 343.018   1
   0   7   1 924.337 406.892   1
   7  -7   1 1174.96 488.882   1
   0  -7   1 1875.36 510.842   1
   0  -7  -1 981.290 448.288   1
   7  -7  -1 1315.67 426.455   2
   0   7  -1 1068.93 376.650   1
   7   0   1 1044.34 502.628   1
   0  -7   1 397.063 345.085   2
   7  -7   1 474.719 375.348   2
  -7   0  -1 1007.96 456.603   1
  -7   0   1 625.185 337.177   1
  -7   7   2 318518. 7673.76   1
   0  -7   2 346233. 7465.86   1
   0  -7  -2 341686. 7760.53   1
   7   0   2 309335. 7606.78   1
   7  -7  -2 321148. 7643.05   2
   7  -7  -2 308369. 7616.77   1
   0   7  -2 315746. 7327.50   1
   7   0  -2 330920. 7550.17   1
   0   7   2 302142. 7583.07   1
  -7   0   2 322142. 7349.31   2
  -7   0  -2 329632. 7814.30   1
  -7   0   2 322936. 7458.59   1
   7  -7   2 313473. 7584.22   1
  -7   0  -2 303786. 7526.66   2
  -7   7  -2 319726. 7700.62   1
   0  -7   2 294275. 7440.03   2
   7  -7   2 323315. 7893.25   2
   0  -7  -2 322160. 7777.30   2
  -7   0   3 418710. 8618.12   2
  -7   0  -3 406426. 8990.18   2
   0  -7   3 391138. 8854.62   2
   7   0   3 370507. 8780.64   1
   0  -7  -3 396628. 8930.80   1
   0  -7   3 431122. 8621.36   1
   0   7  -3 440328. 8756.91   1
   7  -7  -3 360313. 8711.63   1
   0   7   3 400316. 9032.07   1
  -7   7  -3 405100. 9028.35   1
  -7   7   3 387901. 8934.11   1
  -7   0  -3 385235. 8945.27   1
   7  -7   3 407429. 8934.52   1
  -7   0   3 341107. 8317.68   1
   7  -7  -3 418285. 8960.81   2
   0  -7  -3 373256. 8899.62   2
   7  -7   4 175711. 5127.32   1
  -7   0  -4 167596. 5144.10   2
   0  -7   4 170033. 4686.43   1
   7   0   4 184766. 5326.61   1
   0   7  -4 178023. 4812.82   1
   0  -7  -4 162685. 5090.92   1
  -7   7  -4 165867. 5125.57   1
   0  -7  -4 170096. 5210.56   2
   7   0  -4 151457. 4658.35   1
   0   7   4 163370. 5173.87   1
  -7   0  -4 158090. 5065.88   1
  -7   7   4 182060. 5249.34   1
  -7   0   4 155806. 4724.43   1
   7  -7  -4 173627. 5130.57   1
   0  -7   4 153291. 4935.00   2
   7  -7  -4 172709. 5026.65   2
  -7   7   5 283444. 7199.60   1
   7   0   5 280430. 7212.06   1
   0  -7  -5 279227. 7225.70   1
   7  -7   5 274528. 7002.84   1
   0  -7  -5 282877. 7265.88   2
   7   0  -5 270813. 6728.14   1
   7  -7  -5 268450. 7090.87   1
   0   7   5 275259. 7160.53   1
  -7   7  -5 276662. 7120.10   1
  -7   0  -5 302445. 7403.29   1
   0  -7   5 274041. 7071.95   2
  -7   0   5 289338. 6850.15   1
  -7   0  -5 291145. 7288.21   2
   7  -7  -5 306130. 7206.95   2
  -7   7   6 381778. 9232.52   1
  -7   0  -6 433374. 9715.75   2
   7   0   6 413839. 9474.65   1
   7  -7   6 405172. 9263.32   1
   0  -7   6 420405. 9383.54   2
  -7   7  -6 428134. 9546.41   1
   0  -7  -6 436602. 9622.95   1
   7  -7  -6 422364. 9200.01   2
   0   7   6 424365. 9602.10   1
  -7   0  -6 425143. 9549.98   1
   0  -7  -6 425297. 9586.80   2
   7  -7  -6 420807. 9478.97   1
   7  -7   7 84963.2 3425.08   1
  -7   7   7 82252.3 3425.99   1
  -7   0  -7 89858.3 3633.88   2
   7  -7  -7 87547.5 3522.28   1
   0   7   7 84043.4 3573.67   1
  -7   0  -7 77630.9 3456.45   1
   0  -7   7 80148.4 3412.30   2
   0  -7  -7 78031.2 3481.22   2
   7   0   7 70800.6 3306.60   1
  -7   7  -7 83218.5 3455.92   1
   0  -7  -7 79346.7 3504.64   1
  -7   0  -8 29520.6 2078.92   2
   7   0   8 25785.9 1919.39   1
   7  -7   8 28896.2 1977.31   1
   7  -7  -8 33282.6 2137.34   1
   0  -7  -8 29999.0 2084.11   1
   0   7   8 26174.1 1989.99   1
  -7   7  -8 31820.5 2111.39   1
  -7   0  -8 31876.2 2190.19   1
   0  -7   8 32910.5 2127.47   2
   0  -7  -8 31802.0 2110.94   2
  -7   7   8 27605.0 1964.43   1
  -7   7   9 135171. 4736.93   1
   7   0   9 130615. 4709.63   1
  -7   0  -9 138368. 4816.98   2
   0  -7  -9 120560. 4595.73   1
   0   7   9 140157. 4897.59   1
  -7   0  -9 130345. 4765.44   1
   7  -7   9 132702. 4593.38   1
  -7   7  -9 139441. 4795.17   1
   0  -7   9 128687. 4624.15   2
   7  -7  -9 137230. 4746.69   1
   0  -7  -9 128830. 4712.87   2
   7   0  10 215735. 6346.60   1
  -7   7  10 187505. 6020.82   1
  -7   0 -10 229414. 6642.97   2
   0  -7 -10 219210. 6393.69   1
   7  -7 -10 195639. 6107.87   1
  -7   7 -10 217621. 6340.91   1
   7  -7  10 198438. 6038.34   1
   0   7  10 202823. 6190.89   1
   0  -7  10 236565. 6560.47   2
   0  -7 -10 201750. 6244.63   2
  -7   0 -10 206596. 6264.30   1
  -7   7  11 50195.2 2817.54   1
   0  -7 -11 40778.5 2560.27   1
  -7   0 -11 48713.8 2768.71   2
   0   7  11 43855.0 2683.74   1
  -7   0 -11 43123.8 2629.71   1
   7  -7  11 42973.2 2564.93   1
  -7   7 -11 44067.0 2640.86   1
   0  -7 -11 38232.0 2567.61   2
   7   0  11 43745.9 2643.16   1
  -7   7  12 10818.9 1345.00   1
   0  -7 -12 9724.88 1258.87   1
   0   7  12 12140.3 1334.45   1
  -7   0 -12 9630.11 1247.16   1
   7   0  12 9052.91 1170.77   1
  -7   0 -12 9796.19 1273.91   2
   0  -7 -12 10040.7 1355.45   2
  -7   7  13 20217.3 1856.37   1
  -7   0 -13 19632.3 1844.40   2
   7   0  13 19679.1 1754.72   1
   0  -7 -13 17820.2 1745.86   1
   0   7  13 19703.1 1791.70   1
  -7   0 -13 18999.4 1766.08   1
   0  -7 -13 18226.4 1824.38   2
  -7   0 -14 136957. 5192.30   2
   0  -7 -14 134570. 5250.98   2
   0   7  14 145087. 5286.33   1
  -7   0 -14 145425. 5279.98   1
   0  -7 -14 141600. 5226.04   1
   7   0  14 140909. 5145.80   1
  -7   0 -15 51242.1 3039.44   2
   0   7  15 47624.5 2930.50   1
  -7   0 -15 49556.9 3028.54   1
   0  -7 -15 48481.4 2965.49   1
   7   0  15 50760.8 2973.56   1
   0  -7 -15 40768.0 2851.08   2
   7   0  16 14146.1 1529.49   1
  -7   0 -16 14608.1 1632.50   2
   0  -7 -16 15208.9 1650.71   1
   0   7  16 12165.1 1499.13   1
  -7   0 -16 16553.6 1732.12   1
   0  -7 -16 13466.5 1646.75   2
   7   0  17 32130.4 2460.17   1
  -7   0 -17 35809.8 2577.02   1
  -4  -4 -17 180.725 450.353   2
  -4  -4 -16 297133. 8161.42   1
   4   4  16 284955. 8006.05   1
  -4  -4 -15-176.728 448.695   2
   4   4  15-15.9332 364.078   1
  -4  -4 -15 334.950 407.098   1
  -4  -4 -14-395.527 521.909   2
   4   4  14 873.105 470.570   1
  -4  -4 -14 967.537 582.221   1
  -4  -4 -13 357.413 370.964   1
   4   4  13-101.845 343.979   1
  -4  -4 -13-41.7003 337.689   2
  -4  -4 -12 344020. 9123.95   1
   4   4  12 377586. 9316.72   1
  -4  -4 -11 1023.38 539.786   2
   4   4  11-287.581 381.508   1
  -4  -4 -11 239.285 370.474   1
  -4  -4 -10 5350.84 933.064   2
   4   4  10 5685.32 912.406   1
  -4  -4 -10 5530.95 927.432   1
   4  -8  10 6591.81 1069.05   2
  -4  -4  -9 52.9129 336.022   2
   4   4   9 907.253 411.211   1
  -4  -4  -9 687.534 369.903   1
  -8   4   9-186.781 339.657   1
   8  -4  -9-1.87348 237.372   1
   4  -8   9 718.143 545.284   2
   4   4   8 371367. 8800.03   1
  -4  -4  -8 347960. 8717.66   2
  -8   4   8 334876. 8281.97   1
  -4  -4  -8 354498. 8787.15   1
   8  -4  -8 391009. 8683.63   1
   4  -8   8 390149. 8940.11   2
  -4  -4  -7-399.961 403.388   2
  -8   4   7 173.222 311.624   1
  -4   8  -7 410.489 323.300   1
   4   4   7-41.9225 363.333   1
  -4  -4  -7-308.638 345.611   1
   8  -4  -7 293.223 235.043   1
   4  -8   7 205.091 288.982   2
   4  -8   7 333.305 242.124   1
  -4  -4  -6 340.694 293.270   2
  -4   8  -6 763.757 378.642   1
   4   4   6 175.030 373.891   1
  -8   4   6 249.117 224.638   1
   8  -4  -6 596.203 396.150   1
   4  -8   6 1052.89 407.568   1
  -4  -4  -6 912.069 481.279   1
   4  -8   6 232.590 341.036   2
  -4  -4  -5-639.229 433.952   2
   4  -8   5 116.351 242.658   1
  -4   8  -5-107.081 266.958   1
   4   4   5 81.6616 307.046   1
  -8   4   5-16.8789 338.370   1
   8  -4  -5 450.921 295.946   1
  -4  -4  -5 344.477 380.867   1
   4  -8   5 292.047 369.875   2
  -4  -4  -4 667564. 13170.8   2
  -8   4   3 345.254 417.739   1
  -4  -4  -3 92.5455 314.585   2
   4  -8   3-179.145 300.217   1
   4   4   3-141.545 267.215   1
  -4   8  -3-350.808 322.103   1
   8  -4  -3-66.2432 270.139   1
  -4  -4  -3 452.805 388.136   1
   4  -8   3-585.551 362.290   2
  -4   8  -2 37140.8 2142.35   1
   8  -4  -2 38575.5 2182.79   1
  -4  -4  -2 41046.8 2213.19   1
   4   4   2 39235.9 2231.45   1
   4  -8   2 37781.7 2214.49   2
   4  -8   2 40034.6 2126.18   1
  -8   4   2 38228.3 2134.70   1
  -4  -4  -2 40075.7 2221.68   2
  -4  -4  -1-89.6102 289.567   2
  -8   4   1 245.172 307.034   1
   4  -8   1-316.399 331.512   2
   8  -4  -1 216.978 259.033   1
   4  -8   1-85.5590 242.022   1
   4   4   1-232.045 321.409   1
  -4   8  -1-20.6049 267.601   1
  -4  -4  -1-264.237 270.681   1
  -8   4  -1 755.375 485.687   1
  -4  -4   1 720.674 402.411   2
   4   4  -1 331.854 333.040   1
   4  -8  -1-326.629 339.768   1
  -4   8   1 684.792 462.236   1
   8  -4   1-277.016 421.589   1
   4  -8  -1-43.1825 312.682   2
  -4  -4   1-174.941 262.401   1
  -4   8   2 167155. 4980.21   1
   4  -8  -2 157405. 4936.10   1
   4  -8  -2 163085. 5028.12   2
  -4  -4   2 173448. 4728.34   1
  -8   4  -2 164128. 5039.03   1
   4   4  -2 170399. 4762.51   1
   8  -4   2 160612. 4925.71   1
  -4  -4   2 167445. 4878.06   2
  -4  -4   3 735.646 347.514   2
   8  -4   3-166.436 295.447   1
   4  -8  -3 512.725 348.806   1
  -4   8   3 140.788 328.797   1
  -4  -4   3-41.0031 180.172   1
   4   4  -3-25.2473 247.232   1
   4  -8  -3 520.636 421.555   2
  -8   4  -3 421.668 307.693   1
   4  -8  -4 519246. 11022.7   1
  -4   8   4 515619. 10894.5   1
   8  -4   4 526761. 10928.7   1
   4  -8  -4 543518. 11132.5   2
  -8   4  -4 533985. 11090.8   1
  -4  -4   4 500149. 10558.2   2
  -4  -4   5 67.1211 211.844   2
   4  -8  -5 324.202 393.471   1
  -4   8   5-86.9368 329.335   1
  -8   4  -5 124.037 313.837   1
   8  -4   5 189.871 400.965   1
   4  -8  -5-217.280 332.850   2
  -4   8   6 30354.8 1983.02   1
   4  -8  -6 30725.6 2017.75   1
   8  -4   6 33156.2 2058.42   1
  -8   4  -6 29552.6 2011.29   1
   4  -8  -6 28721.5 2034.94   2
   4  -8  -7-703.827 518.530   1
  -4   8   7-109.112 373.739   1
   8  -4   7 623.937 339.576   1
  -8   4  -7 52.6127 306.148   1
   4  -8  -7-25.6446 323.097   2
   4  -8  -8 572672. 12104.2   2
   4  -8  -8 581459. 12227.5   1
   8  -4   8 566475. 11912.4   1
  -8   4  -8 573699. 12057.3   1
   4  -8  -9 406.332 418.597   1
   8  -4   9-105.555 306.926   1
  -4   8   9-21.4415 326.135   1
  -8   4  -9 402.842 372.492   1
   4  -8  -9 341.516 368.200   2
   8  -4  10 2238.96 633.020   1
   4  -8 -10 1592.58 559.552   1
  -4   8  10 2463.83 646.679   1
  -8   4 -10 1806.68 593.387   1
   4  -8 -10 2475.05 630.350   2
   8  -4  11-318.011 334.432   1
   4  -8 -11-152.175 353.490   1
  -4   8  11 461.302 357.701   1
   4  -8 -11-181.854 356.685   2
  -8   4 -11-107.426 385.287   1
   4  -8 -12 332523. 8649.29   1
  -4   8  12 328994. 8495.46   1
   8  -4  12 328063. 8521.77   1
  -8   4 -12 316065. 8580.32   1
  -8   4 -13 933.981 466.088   1
   4  -8 -13-532.022 449.933   1
  -4   8  13 1023.75 529.861   1
   8  -4  13-205.394 358.371   1
   8  -4  14 10671.7 1434.29   1
  -4   8  14 10349.5 1315.29   1
   4  -8 -14 9387.61 1307.97   1
  -8   4 -14 10851.0 1372.34   1
  -8   4 -15-81.1492 339.986   1
   4  -8 -15-102.283 373.233   1
  -4   8  15-142.903 336.805   1
   8  -4  15 291.203 412.805   1
   4  -8 -16 255781. 7868.07   1
  -8   4 -16 262961. 7936.58   1
   4  -8 -17-430.657 378.338   1
  -4   8  17-171.391 284.669   1
  -3  -5 -17 16947.6 1831.48   2
  -3  -5 -16 9009.49 1402.20   2
  -5  -3 -16 12261.4 1465.10   2
  -3  -5 -16 13063.0 1479.46   1
  -5  -3 -16 11145.8 1396.15   1
   3   5  16 12706.1 1494.18   1
   5   3  16 12389.6 1474.89   1
  -5  -3 -15 181557. 6095.66   2
  -3  -5 -15 174213. 5956.75   1
  -5  -3 -15 174158. 5941.99   1
  -3  -5 -15 174040. 6112.06   2
   5   3  15 189860. 6125.11   1
  -5  -3 -14 122635. 4778.50   2
   5   3  14 116901. 4595.35   1
  -5  -3 -14 105482. 4522.51   1
   3   5  14 116164. 4617.38   1
  -3  -5 -14 116064. 4598.77   1
  -3  -5 -14 117412. 4738.26   2
  -5  -3 -13 60412.9 3175.67   2
  -3  -5 -13 52581.5 3064.22   2
  -3  -5 -13 56497.0 3100.80   1
  -5  -3 -13 57065.4 3079.02   1
   3   5  13 55736.5 3058.33   1
   5   3  13 55027.3 3011.33   1
  -5  -3 -12 4770.25 903.022   2
   5   3  12 3482.55 747.605   1
  -3  -5 -12 3956.31 789.878   1
  -5  -3 -12 4914.81 932.021   1
  -3  -5 -12 4185.05 874.719   2
   3   5  12 4923.12 892.460   1
   3   5  11 1651.95 563.983   1
  -3  -5 -11 1666.54 651.773   2
  -5  -3 -11 1601.01 570.546   2
   5   3  11 1311.95 553.921   1
  -3  -5 -11 1605.32 529.387   1
  -5  -3 -11 1370.43 628.667   1
   3  -8  11 1309.20 547.724   2
   5   3  10 327314. 7989.87   1
  -3  -5 -10 294309. 7818.88   1
  -5  -3 -10 284979. 7708.44   1
   3   5  10 291809. 7742.09   1
   8  -5 -10 286830. 7587.29   1
   3  -8  10 275424. 7795.55   2
  -5  -3 -10 317321. 8064.71   2
  -8   5  10 294537. 7608.20   1
  -3  -5 -10 288924. 7842.75   2
  -3  -5  -9 53085.7 2960.55   2
  -5  -3  -9 57536.4 2957.14   2
  -3  -5  -9 56292.5 2952.91   1
  -5  -3  -9 50197.1 2814.36   1
   5   3   9 51297.8 2772.67   1
   3   5   9 55818.6 2897.67   1
   3  -8   9 58168.0 2981.31   2
   8  -5  -9 50090.4 2678.56   1
  -8   5   9 63420.8 2981.15   1
   5  -8   9 49028.6 2843.19   2
  -3  -5  -8 103362. 4118.40   2
  -8   5   8 111280. 4068.37   1
   5  -8   8 101845. 3788.32   1
  -3  -5  -8 101460. 4009.27   1
  -5  -3  -8 103034. 4091.22   1
   8  -5  -8 96483.2 3830.55   1
  -5  -3  -8 114287. 4219.95   2
   5   3   8 105771. 4054.78   1
   3   5   8 106886. 4091.76   1
   3  -8   8 107196. 4062.58   2
  -8   3   8 117097. 3963.80   1
  -5   8  -8 110996. 4038.06   1
   8  -3  -8 109653. 3929.42   1
   5  -8   8 106960. 4255.53   2
  -5  -3  -7 215981. 6269.88   2
   8  -3  -7 244899. 6287.98   1
   3  -8   7 241144. 6479.67   2
  -3  -5  -7 222983. 6348.71   1
  -5  -3  -7 237027. 6550.85   1
   5  -8   7 224592. 6063.77   1
   5   3   7 224660. 6384.64   1
   3   5   7 216414. 6241.01   1
   8  -5  -7 211767. 6093.08   1
  -8   3   7 266997. 6404.99   1
  -5   8  -7 225926. 6234.17   1
  -8   5   7 220990. 6131.46   1
   5  -8   7 220300. 6380.61   2
  -3  -5  -7 211081. 6283.04   2
   5   3   6 196598. 5820.10   1
  -3   8  -6 223082. 5747.39   1
   8  -3  -6 204232. 5691.76   1
   3  -8   6 194718. 5834.72   2
   3  -8   6 218078. 5585.58   1
  -3  -5  -6 203907. 5901.96   1
  -5  -3  -6 209865. 6026.65   1
   3   5   6 207377. 5911.46   1
   8  -5  -6 177732. 5498.55   1
   5  -8   6 226855. 5904.92   1
   5  -8   6 221335. 6182.57   2
  -8   3   6 200195. 5585.94   1
  -5  -3  -6 215227. 5988.34   2
  -8   5   6 169153. 5435.92   1
  -5   8  -6 220863. 5902.90   1
  -3  -5  -6 194165. 5896.22   2
  -5  -3  -5 262408. 7048.81   2
   8  -3  -5 307646. 7240.54   1
  -5   8  -5 291077. 7135.34   1
  -3   8  -5 299127. 7061.33   1
  -8   5   5 320472. 7461.18   1
  -3  -5  -5 282614. 7271.67   2
  -8   3   5 314857. 7254.86   1
  -5  -3  -5 291021. 7362.94   1
   5  -8   5 293463. 7132.91   1
   8  -5  -5 273274. 7078.96   1
   3   5   5 273334. 7183.64   1
   5  -8   5 271093. 7271.63   2
   5   3   5 277406. 7247.36   1
  -3  -5  -5 285615. 7295.69   1
   3  -8   5 277445. 7193.47   2
   3  -8   5 307350. 6987.82   1
  -5   8  -4 13427.8 1269.50   1
  -5  -3  -4 15191.6 1408.35   2
  -3   8  -4 14256.6 1284.66   1
   8  -3  -4 13369.3 1263.58   1
   5  -8   4 15510.1 1336.31   1
  -3  -5  -4 14495.9 1366.88   1
  -5  -3  -4 13166.1 1325.25   1
  -8   5   4 13009.2 1241.60   1
   8  -5  -4 14247.7 1343.49   1
   3   5   4 15588.7 1404.26   1
   3  -8   4 12713.4 1289.92   2
   5  -8   4 13320.6 1364.20   2
   3  -8   4 15546.5 1323.50   1
  -8   3   4 15236.9 1310.71   1
   5   3   4 14621.4 1362.49   1
  -3  -5  -4 12034.2 1268.35   2
  -5  -3  -3 91528.9 3504.85   2
  -5   8  -3 91945.1 3477.82   1
  -3   8  -3 91560.9 3437.18   1
  -3  -5  -3 92107.7 3555.03   1
  -3  -5  -3 89968.5 3543.58   2
  -5  -3  -3 88030.6 3500.03   1
   8  -5  -3 87461.2 3439.37   1
   5  -8   3 94734.9 3502.75   1
   3  -8   3 97096.4 3471.85   1
   3   5   3 92142.9 3571.62   1
   5  -8   3 93007.1 3622.26   2
  -8   5   3 78391.0 3314.56   1
  -8   3   3 92985.0 3512.34   1
   3  -8   3 89046.9 3521.75   2
   5   3   3 92961.9 3552.31   1
   8  -3  -3 87994.5 3386.43   1
   3  -8   2 673914. 12981.0   1
  -5  -3  -1 22736.4 1679.81   2
  -5   8  -1 25264.1 1720.80   1
  -3   8  -1 21656.4 1616.84   1
   3  -8   1 22733.9 1629.67   1
   5  -8   1 20498.9 1586.47   1
   8  -5  -1 21316.7 1631.73   1
  -3  -5  -1 24969.6 1700.82   1
  -5  -3  -1 23366.4 1674.78   1
   5  -8   1 24146.7 1755.79   2
   3   5   1 24518.8 1689.21   1
  -8   3   1 24869.5 1755.06   1
   3  -8   1 24606.8 1770.35   2
   8  -3  -1 26188.9 1773.89   1
  -8   5   1 24873.1 1750.16   1
   5   3   1 22772.0 1653.32   1
  -3  -5  -1 24132.2 1703.68   2
   5  -8   0 7526.59 974.727   1
  -5   8   0 8257.95 1006.43   1
   3  -8   0 8508.98 1019.91   1
   8  -5   0 8923.46 1040.09   1
  -3   8   0 8601.00 1034.94   1
  -3  -5   0 9048.97 1026.23   1
   3  -8   0 8933.54 1059.02   2
  -5  -3   0 8769.85 1024.23   1
  -8   3   0 8467.60 1026.47   1
   3   5   0 6949.58 918.835   1
  -8   5   0 9533.12 1095.36   1
   5  -8   0 8256.90 1046.97   2
   8  -3   0 8793.10 1016.76   1
   5   3   0 7999.39 980.364   1
  -3  -5   0 8024.38 979.054   2
  -5  -3   0 8480.77 1018.28   2
   5  -8  -1 279415. 7026.79   1
   8  -5   1 269167. 7053.54   1
   3  -8  -1 294818. 7175.75   1
  -3   8   1 285964. 7159.65   1
  -8   3  -1 298276. 7304.55   1
  -3  -5   1 288993. 7093.05   2
  -3  -5   1 299884. 6932.85   1
  -5  -3   1 316160. 7243.64   2
  -5  -3   1 314313. 7141.94   1
   3   5  -1 296157. 7007.16   1
   5  -8  -1 280323. 7159.02   2
  -5   8   1 283411. 7146.23   1
  -8   5  -1 325285. 7414.81   1
   3  -8  -1 279472. 7174.58   2
   5   3  -1 289156. 6926.43   1
   8  -3   1 281822. 7141.31   1
   8  -5   2 248714. 6439.59   1
  -5   8   2 238337. 6365.00   1
   5  -8  -2 237796. 6348.05   1
   3  -8  -2 232137. 6309.87   1
  -3   8   2 235405. 6293.74   1
  -3  -5   2 253465. 6090.36   1
  -5  -3   2 260691. 6208.37   1
   3   5  -2 243278. 6056.28   1
   8  -3   2 227827. 6255.93   1
  -8   3  -2 220647. 6246.30   1
  -8   5  -2 262537. 6587.69   1
   3  -8  -2 238198. 6390.70   2
   5   3  -2 240154. 6058.53   1
  -3  -5   2 245690. 6285.36   2
   5  -8  -2 252456. 6487.86   2
  -5  -3   2 225704. 6053.06   2
   8  -5   3 254319. 6582.98   1
  -5   8   3 240513. 6580.57   1
   5  -8  -3 244139. 6572.80   1
  -5  -3   3 259473. 6431.09   2
   3  -8  -3 249010. 6623.98   1
  -3   8   3 248019. 6610.93   1
  -3  -5   3 252841. 6080.03   1
  -8   5  -3 268106. 6759.20   1
  -5  -3   3 252734. 6166.64   1
  -3  -5   3 256057. 6490.42   2
   3   5  -3 261737. 6231.14   1
   8  -3   3 242223. 6508.22   1
  -8   3  -3 286402. 6943.51   1
   5  -8  -3 255181. 6622.51   2
   3  -8  -3 248726. 6649.92   2
   5   3  -3 267392. 6302.28   1
  -5  -3   4 90685.6 3307.91   2
  -5   8   4 82187.4 3424.89   1
   5  -8  -4 80626.4 3410.51   1
   3  -8  -4 88299.4 3500.38   1
  -3   8   4 86133.2 3498.20   1
  -3  -5   4 87225.9 3413.15   2
   8  -5   4 79436.6 3341.39   1
   8  -3   4 87438.8 3451.64   1
  -8   3  -4 98221.4 3661.37   1
   5  -8  -4 79058.1 3377.39   2
  -8   5  -4 85740.7 3464.04   1
   3  -8  -4 82445.0 3440.93   2
   5   3  -4 95039.0 3219.87   1
  -8   5  -5 3778.37 753.929   1
   3  -8  -5 4381.40 759.947   2
   8  -5   5 4205.12 715.240   1
   5  -8  -5 2930.89 707.814   1
   3  -8  -5 3701.87 745.660   1
  -5   8   5 4662.01 841.335   1
   8  -3   5 4430.05 794.375   1
   5  -8  -5 3355.44 709.092   2
  -3   8   5 3662.74 737.419   1
  -3  -5   5 4659.16 733.472   2
  -8   3  -5 3225.35 732.151   1
  -8   5  -6 489953. 10805.6   1
   8  -5   6 514742. 10866.0   1
  -5   8   6 521029. 10969.5   1
   5  -8  -6 498920. 10886.1   1
   3  -8  -6 511306. 10973.9   1
  -3   8   6 500992. 10871.9   1
   5  -8  -6 521917. 10957.3   2
   8  -3   6 516034. 10863.8   1
  -8   3  -6 504755. 10880.3   1
   3  -8  -6 505051. 10900.7   2
  -8   5  -7 119730. 4352.93   1
   5  -8  -7 119270. 4350.61   1
  -5   8   7 118473. 4261.01   1
   3  -8  -7 115739. 4282.18   1
  -3   8   7 123996. 4386.16   1
   3  -8  -7 108805. 4198.55   2
   5  -8  -7 120100. 4316.41   2
   8  -3   7 117787. 4255.98   1
  -8   3  -7 119326. 4380.50   1
   8  -5   7 111455. 4114.63   1
  -5   8   8 44157.4 2546.43   1
   3  -8  -8 50116.5 2681.34   1
  -3   8   8 51420.3 2674.96   1
   8  -3   8 49875.9 2642.00   1
   8  -5   8 46868.0 2554.03   1
  -8   3  -8 42734.8 2595.89   1
   5  -8  -8 50320.1 2724.53   1
   3  -8  -8 51192.5 2733.19   2
  -8   5  -8 47606.9 2636.25   1
   5  -8  -8 47162.4 2640.20   2
   5  -8  -9 367980. 8716.14   2
   5  -8  -9 346807. 8645.48   1
  -5   8   9 340112. 8466.03   1
   3  -8  -9 329127. 8446.01   1
  -3   8   9 344067. 8544.32   1
   8  -3   9 344625. 8497.91   1
   8  -5   9 333596. 8331.93   1
  -8   3  -9 345029. 8656.92   1
  -8   5  -9 335377. 8430.39   1
   3  -8  -9 351855. 8619.63   2
   5  -8 -10 196601. 6057.09   1
  -5   8  10 178795. 5672.52   1
   3  -8 -10 185721. 5928.41   1
   3  -8 -10 197079. 6015.02   2
   8  -3  10 181322. 5777.15   1
  -3   8  10 199748. 6001.61   1
   8  -5  10 186002. 5778.69   1
  -8   3 -10 189972. 5962.30   1
  -8   5 -10 176305. 5823.06   1
   5  -8 -11 29598.4 2202.52   1
  -5   8  11 29590.8 2121.54   1
   3  -8 -11 31470.6 2250.63   1
   8  -3  11 31842.0 2195.56   1
  -3   8  11 27687.8 2104.38   1
   8  -5  11 28993.0 2110.62   1
   3  -8 -11 29959.7 2204.78   2
  -8   3 -11 31209.0 2266.54   1
  -8   5 -11 28416.9 2156.70   1
   8  -5  12 2495.80 742.038   1
  -8   3 -12 1934.89 645.776   1
   5  -8 -12 601.220 337.797   1
   3  -8 -12 1249.78 550.751   1
   8  -3  12 932.047 482.988   1
  -5   8  12 1693.70 617.484   1
  -3   8  12 2482.49 707.871   1
  -8   5 -12 1009.92 381.725   1
   3  -8 -12 834.718 404.118   2
  -8   3 -13 4786.26 1004.27   1
   8  -5  13 4159.54 870.691   1
   5  -8 -13 4812.63 955.116   1
   3  -8 -13 5747.81 980.489   1
  -5   8  13 5093.13 932.242   1
  -3   8  13 3326.43 780.634   1
  -8   5 -13 3934.76 847.886   1
   8  -3  13 4780.63 948.639   1
   8  -3  14 160252. 5717.58   1
   5  -8 -14 187649. 6242.63   1
  -5   8  14 186330. 6030.34   1
   3  -8 -14 178407. 5958.14   1
   8  -5  14 164906. 5814.61   1
  -3   8  14 175429. 5889.20   1
  -8   3 -14 169615. 5927.46   1
  -8   5 -14 174815. 6077.90   1
   8  -3  15 88824.2 4142.32   1
   5  -8 -15 91163.9 4188.32   1
  -5   8  15 83604.1 3931.32   1
   3  -8 -15 95549.5 4261.42   1
  -3   8  15 86321.7 4011.32   1
  -8   3 -15 86820.7 4128.74   1
  -8   5 -15 84995.6 4074.99   1
   8  -3  16 66729.3 3646.29   1
  -5   8  16 67855.2 3618.19   1
   5  -8 -16 69143.9 3735.18   1
   3  -8 -16 73748.7 3770.78   1
  -3   8  16 76847.4 3783.71   1
  -8   3 -16 72200.9 3721.04   1
   3  -8 -17 77594.7 3873.73   1
  -3   8  17 59997.9 3460.28   1
  -2  -6 -17 66458.0 3715.11   2
  -2  -6 -16 1733.60 677.110   2
  -6  -2 -16 2102.37 651.395   2
  -2  -6 -16 1440.05 521.680   1
  -6  -2 -16 2443.62 763.636   1
   6   2  16 2300.94 662.675   1
   2   6  16 2258.28 626.718   1
  -6  -2 -15 72504.9 3627.31   2
  -2  -6 -15 68311.4 3519.10   1
  -6  -2 -15 69362.3 3559.24   1
   2   6  15 69687.4 3557.38   1
   6   2  15 64986.8 3423.57   1
  -2  -6 -15 63293.9 3504.17   2
  -6  -2 -14 66115.4 3411.42   2
  -2  -6 -14 69482.4 3570.72   2
  -2  -6 -14 68021.0 3508.50   1
   2   6  14 73678.7 3557.92   1
  -6  -2 -14 67979.8 3498.45   1
   6   2  14 65102.5 3419.10   1
  -6  -2 -13 60517.9 3189.85   2
  -2  -6 -13 61765.3 3217.12   1
  -6  -2 -13 55929.4 3153.61   1
   2   6  13 64697.8 3297.51   1
  -2  -6 -13 56942.7 3149.54   2
   6   2  13 62305.6 3250.47   1
   8  -6 -12 24768.9 1988.40   1
  -2  -6 -12 25278.7 1937.78   1
  -6  -2 -12 24013.7 2013.18   2
  -6  -2 -12 20418.3 1870.01   1
   2   6  12 25244.7 1959.33   1
   2  -8  12 21087.4 1929.03   2
   6   2  12 24855.8 1958.44   1
  -2  -6 -12 25017.2 1999.12   2
  -6  -2 -11 14996.5 1571.99   2
   8  -6 -11 18078.8 1658.06   1
   2  -8  11 16709.1 1656.14   2
  -2  -6 -11 15340.7 1565.34   1
  -6  -2 -11 11100.7 1396.52   1
   2   6  11 16069.6 1555.28   1
   6   2  11 18130.2 1660.04   1
  -2  -6 -11 15703.2 1558.79   2
  -8   6  11 17149.6 1639.08   1
  -6  -2 -10 214900. 6343.00   2
   8  -6 -10 227574. 6431.93   1
   2  -8  10 203570. 6314.55   2
   6   2  10 209857. 6243.58   1
  -6  -2 -10 209540. 6358.94   1
   2   6  10 201376. 6230.25   1
  -8   6  10 203656. 6166.85   1
  -2  -6 -10 203663. 6277.43   2
  -2  -6 -10 199011. 6164.08   1
   2   6   9 7090.72 1053.14   1
  -6   8  -9 7205.84 997.738   1
   6  -8   9 7427.49 1015.98   1
  -2  -6  -9 7006.57 1053.33   2
  -6  -2  -9 6894.50 1031.80   2
   8  -6  -9 9083.62 1148.78   1
   6   2   9 6981.08 1002.53   1
  -2  -6  -9 7004.57 1022.56   1
  -6  -2  -9 7626.05 1065.76   1
   2  -8   9 7375.17 1032.06   2
  -8   6   9 8412.84 1096.48   1
  -6  -2  -8 185354. 5782.57   2
   8  -6  -8 190809. 5802.12   1
   6  -8   8 192130. 5645.09   1
  -2  -6  -8 186966. 5844.64   1
  -6  -2  -8 172828. 5689.78   1
   2   6   8 194647. 5868.61   1
   2  -8   8 195382. 5861.84   2
  -6   8  -8 199189. 5825.98   1
   6   2   8 189528. 5776.98   1
  -2  -6  -8 194619. 5943.15   2
  -6  -2  -7 100337. 3997.10   2
   8  -6  -7 104876. 3992.59   1
   6  -8   7 109983. 3992.44   1
  -2  -6  -7 96864.3 3941.48   1
  -6  -2  -7 103018. 4141.93   1
   2   6   7 104305. 3991.09   1
   6  -8   7 98160.3 3983.73   2
   8  -2  -7 107497. 3849.86   1
   2  -8   7 95735.3 3847.86   2
  -6   8  -7 102020. 3899.20   1
  -2  -6  -7 95412.6 3895.27   2
   6   2   7 104166. 3995.06   1
  -8   6   7 109666. 4024.47   1
  -2  -6  -6 635185. 13100.9   1
   6  -8   6 677247. 12991.6   1
  -2  -6  -6 671927. 13283.7   2
   6   2   5 312311. 7932.24   1
   8  -2  -5 321396. 7710.03   1
   2  -8   5 292784. 7655.95   2
  -6  -2  -5 314115. 7805.18   2
  -2   8  -5 304389. 7437.43   1
  -2  -6  -5 316426. 7899.20   1
  -6  -2  -5 340396. 8094.40   1
   2   6   5 320889. 7917.24   1
   6  -8   5 343447. 7917.04   1
  -8   2   5 375414. 8028.69   1
   6  -8   5 319748. 8069.01   2
  -6   8  -5 323897. 7912.86   1
  -8   6   5 384171. 8327.35   1
   8  -6  -5 323149. 7872.89   1
  -2  -6  -5 287195. 7670.09   2
   2   6   4 5333.17 869.734   1
  -2  -6  -4 5762.77 905.578   2
  -6  -2  -4 6504.85 941.681   2
   8  -6  -4 4816.59 787.255   1
  -8   6   4 5317.43 814.222   1
   2  -8   4 6423.26 889.016   2
  -6   8  -4 5014.31 807.427   1
   2  -8   4 5212.23 751.644   1
   6  -8   4 5428.94 924.468   2
  -8   2   4 7706.28 928.117   1
   6  -8   4 4940.07 808.501   1
  -2   8  -4 5095.23 769.930   1
  -2  -6  -4 4955.14 853.544   1
   6   2   4 5548.82 888.716   1
  -6  -2  -4 5394.88 877.646   1
   8  -2  -4 5125.09 803.679   1
   8  -6  -3 357652. 8560.05   1
   6  -8   3 380216. 8639.06   1
  -2   8  -3 377111. 8401.26   1
   2  -8   3 421276. 8605.82   1
   8  -2  -3 373598. 8524.98   1
  -8   6   3 368864. 8658.25   1
  -8   2   3 367262. 8487.89   1
  -6  -2  -3 389477. 8695.03   2
  -2  -6  -3 393669. 8791.88   1
  -6  -2  -3 378649. 8644.87   1
   2   6   3 381427. 8818.49   1
  -2  -6  -3 372529. 8738.25   2
   6  -8   3 394119. 9034.28   2
   2  -8   3 370941. 8655.68   2
   6   2   3 346298. 8562.26   1
  -6   8  -3 385813. 8740.71   1
  -6   8  -2 85500.3 3439.63   1
  -6  -2  -2 84905.7 3375.52   2
   6   2   2 89086.9 3533.25   1
   2  -8   2 93251.6 3450.74   1
  -2   8  -2 86270.1 3323.32   1
   6  -8   2 86625.0 3418.45   1
  -2  -6  -2 89647.6 3496.38   1
  -6  -2  -2 68153.6 3122.91   1
   2   6   2 83579.6 3418.47   1
   8  -6  -2 84724.7 3412.93   1
   8  -2  -2 75466.4 3218.65   1
  -8   2   2 92644.3 3493.88   1
   6  -8   2 87383.5 3575.20   2
   2  -8   2 83977.5 3431.75   2
  -8   6   2 85714.3 3468.59   1
  -2  -6  -2 90303.6 3563.69   2
  -6   8  -1 175040. 5259.98   1
  -6  -2  -1 194344. 5389.31   2
   6   2   1 178646. 5278.26   1
   2  -8   1 194792. 5304.16   1
  -2   8  -1 175935. 5118.37   1
  -2  -6  -1 177678. 5170.87   1
  -8   6   1 182923. 5362.66   1
   6  -8   1 168110. 5087.08   1
  -6  -2  -1 169616. 5121.07   1
   8  -6  -1 173604. 5219.16   1
   2   6   1 181979. 5266.21   1
   8  -2  -1 156711. 4976.38   1
  -8   2   1 174088. 5144.93   1
   2  -8   1 156712. 5087.56   2
   6  -8   1 166544. 5238.92   2
  -2  -6  -1 191042. 5430.85   2
  -6  -2   0 13165.4 1259.18   2
  -6   8   0 11335.9 1194.26   1
   6   2   0 13797.2 1307.94   1
   2  -8   0 12224.4 1206.58   1
  -2   8   0 11947.4 1216.09   1
  -2  -6   0 11829.7 1177.20   1
   8  -6   0 11873.0 1209.72   1
  -6  -2   0 9763.61 1078.41   1
   2   6   0 9952.76 1114.60   1
   8  -2   0 11027.0 1173.54   1
  -8   2   0 11119.4 1131.16   1
   6  -8   0 11382.7 1203.54   2
   6  -8   0 11311.3 1187.92   1
   2  -8   0 10166.4 1168.59   2
  -8   6   0 11300.9 1218.00   1
  -2  -6   0 12022.4 1252.54   2
   6  -8  -1 1127.25 416.621   1
  -2  -6   1 737.130 425.955   2
  -6  -2   1 659.376 341.740   2
  -8   6  -1 924.784 390.771   1
   2  -8  -1 1077.88 464.643   1
  -6   8   1 325.268 391.034   1
   6  -8  -1 1076.61 485.581   2
  -2  -6   1 489.181 343.632   1
   8  -6   1 1459.11 539.800   1
   8  -2   1 953.492 422.725   1
  -2   8   1 1798.51 571.983   1
   6   2  -1 880.917 343.395   1
  -6  -2   1 1364.80 477.480   1
  -8   2  -1 714.809 317.910   1
   2   6  -1 494.313 326.890   1
   2  -8  -1 2966.01 662.212   2
  -6  -2   2 409703. 9019.70   2
   6   2  -2 400824. 8920.57   1
  -2  -6   2 412559. 9177.08   2
  -6   8   2 414100. 9274.48   1
  -8   6  -2 416430. 9338.45   1
   2  -8  -2 404393. 9119.18   1
   8  -6   2 418790. 9261.68   1
  -2  -6   2 416405. 8923.58   1
  -2   8   2 398827. 9147.19   1
   6  -8  -2 416908. 9314.92   2
  -6  -2   2 429213. 8986.81   1
   8  -2   2 408781. 9164.48   1
  -8   2  -2 409119. 9204.93   1
   6  -8  -2 415880. 9267.53   1
   2  -8  -2 416035. 9334.71   2
  -2  -6   3 1266.69 444.168   2
  -8   6  -3 787.866 387.008   1
   6  -8  -3 1488.64 504.513   1
   8  -6   3 511.757 312.643   1
  -6   8   3 1792.85 551.358   1
   2  -8  -3 871.515 439.672   1
  -2  -6   3 1019.64 387.822   1
   8  -2   3 533.132 394.287   1
  -6  -2   3 845.063 417.980   2
  -2   8   3 308.774 348.139   1
   6   2  -3 1402.87 389.135   1
  -6  -2   3 1078.09 396.265   1
   6  -8  -3 1062.47 471.461   2
  -8   2  -3 732.987 395.204   1
   2   6  -3 415.407 286.773   1
   2  -8  -3 1042.14 484.457   2
   6   2  -4 325131. 7948.61   1
   8  -6   4 379744. 8698.54   1
  -6   8   4 373601. 8764.52   1
  -8   6  -4 365883. 8599.10   1
   2  -8  -4 366214. 8684.10   1
   2  -8  -4 370776. 8775.20   2
  -2   8   4 366149. 8748.76   1
   8  -2   4 412393. 8941.83   1
  -8   2  -4 410323. 9079.39   1
   6  -8  -4 394897. 8889.48   2
  -2  -6   4 441914. 9055.51   2
   6  -8  -4 360197. 8661.72   1
   8  -6   5 175569. 5291.60   1
  -6   8   5 171320. 5313.69   1
   6  -8  -5 166247. 5250.68   1
  -2  -6   5 188620. 5413.58   2
   2  -8  -5 180700. 5454.42   1
  -2   8   5 180554. 5473.70   1
   8  -2   5 155641. 5115.50   1
  -8   2  -5 192886. 5640.25   1
  -8   6  -5 178333. 5371.56   1
   6  -8  -5 169591. 5336.67   2
   2  -8  -5 169995. 5359.63   2
  -6   8   6 582831. 12131.6   1
   6  -8  -6 589594. 12109.8   1
   2  -8  -6 581631. 12148.5   1
  -2   8   6 576168. 12029.4   1
   8  -2   6 553104. 11904.2   1
  -8   2  -6 573538. 12146.3   1
   2  -8  -6 574694. 12116.4   2
  -6   8   7 289166. 7338.39   1
   6  -8  -7 255872. 7044.21   1
   2  -8  -7 270432. 7229.13   2
   2  -8  -7 261740. 7156.40   1
  -2   8   7 247921. 7001.60   1
   8  -2   7 288252. 7341.04   1
   8  -6   7 268092. 7068.90   1
  -2  -6   7 259191. 6897.53   2
  -8   2  -7 261798. 7171.03   1
  -8   6  -7 267268. 7134.26   1
   6  -8  -7 272334. 7061.14   2
   8  -2   8 8725.35 1124.30   1
   2  -8  -8 8246.95 1109.11   2
  -6   8   8 9660.75 1193.59   1
   6  -8  -8 9494.91 1179.62   1
   2  -8  -8 8542.34 1127.17   1
  -8   2  -8 8981.57 1173.76   1
  -2   8   8 8264.15 1119.92   1
   6  -8  -8 8764.24 1104.23   2
  -8   6  -8 7854.19 1119.85   1
   8  -6   8 8549.07 1093.52   1
  -6   8   9 140118. 5050.69   1
   8  -2   9 165142. 5348.36   1
   6  -8  -9 167174. 5420.09   1
   2  -8  -9 155151. 5326.33   1
  -2   8   9 163303. 5313.51   1
  -8   2  -9 163439. 5403.22   1
   8  -6   9 158288. 5161.55   1
  -8   6  -9 158963. 5312.48   1
   2  -8  -9 154658. 5351.49   2
   6  -8 -10 97768.3 4018.05   1
   8  -2  10 94328.4 3902.36   1
   2  -8 -10 87198.4 3855.12   1
  -2   8  10 86753.7 3792.52   1
  -8   2 -10 91589.9 3956.91   1
   8  -6  10 89943.8 3804.06   1
  -8   6 -10 79848.9 3682.25   1
  -6   8  10 84803.7 3774.40   1
   2  -8 -10 92743.2 3960.76   2
  -6   8  11 126307. 4619.49   1
   8  -2  11 116367. 4493.72   1
   2  -8 -11 111222. 4468.09   1
  -2   8  11 111753. 4415.79   1
   8  -6  11 115569. 4465.36   1
  -8   2 -11 104355. 4338.90   1
  -8   6 -11 110484. 4402.34   1
   6  -8 -11 108459. 4410.19   1
   2  -8 -11 112163. 4519.64   2
   8  -2  12 12233.3 1408.39   1
  -6   8  12 12855.1 1423.47   1
   6  -8 -12 10854.0 1336.71   1
   2  -8 -12 10072.2 1317.14   1
  -2   8  12 12983.7 1388.18   1
   8  -6  12 12754.2 1348.36   1
  -8   2 -12 12937.0 1452.63   1
  -8   6 -12 11787.9 1426.36   1
   2  -8 -12 12747.8 1455.85   2
   8  -2  13 31967.8 2328.74   1
  -6   8  13 31074.3 2285.24   1
   6  -8 -13 29859.5 2279.54   1
   2  -8 -13 33669.5 2366.57   1
  -2   8  13 31964.4 2314.27   1
   8  -6  13 29926.6 2277.20   1
  -8   2 -13 32692.8 2371.06   1
  -8   6 -13 31290.7 2373.55   1
   2  -8 -13 29676.1 2338.32   2
   8  -2  14 138258. 5164.33   1
  -6   8  14 135779. 5189.84   1
   2  -8 -14 143431. 5238.47   1
  -2   8  14 127464. 4995.04   1
   6  -8 -14 137722. 5214.31   1
  -8   2 -14 130077. 5080.48   1
   6  -8 -15 2171.77 673.088   1
   2  -8 -15 2366.92 668.306   1
  -6   8  15 1392.48 481.810   1
   8  -2  15 1833.39 634.609   1
  -2   8  15 1851.29 619.012   1
  -8   2 -15 1687.15 595.351   1
   6  -8 -16 54014.1 3332.92   1
   2  -8 -16 62819.8 3455.88   1
  -2   8  16 65432.3 3474.72   1
  -8   2 -16 50641.0 3206.29   1
   8  -2  16 59319.5 3342.80   1
  -8   2 -17 13264.7 1632.56   1
  -1  -7 -16 176287. 6402.42   2
  -1  -7 -15 2166.02 660.379   2
  -7  -1 -15 3445.12 840.825   2
   7   1  15 3715.81 802.284   1
  -1  -7 -15 4311.24 874.758   1
  -7  -1 -15 4097.49 892.666   1
   1   7  15 3027.54 795.566   1
  -7  -1 -14 6696.37 1107.30   2
  -1  -7 -14 6288.53 1147.90   2
   7   1  14 7031.12 1092.61   1
  -1  -7 -14 5790.01 985.109   1
  -7  -1 -14 5461.93 999.622   1
   1   7  14 6573.79 1039.00   1
  -1  -7 -13 286.464 414.065   2
  -7  -1 -13 565.930 394.614   2
   7   1  13 499.458 326.175   1
  -1  -7 -13 606.884 359.652   1
   8  -7 -13 646.249 523.138   1
  -7  -1 -13 143.342 320.991   1
   1   7  13 20.3447 414.006   1
  -7  -1 -12 197600. 6171.36   2
  -1  -7 -12 186455. 5998.14   1
  -7  -1 -12 163208. 5725.91   1
   1   7  12 173992. 5765.30   1
   8  -7 -12 185068. 5970.97   1
   7   1  12 177697. 5800.96   1
  -1  -7 -12 179071. 5951.55   2
  -1  -7 -11-38.5322 299.823   2
  -7  -1 -11 785.089 536.973   2
  -8   7  11-51.9926 302.479   1
  -1  -7 -11-164.382 369.965   1
   7   1  11-33.0178 416.032   1
   8  -7 -11-128.417 351.265   1
  -7  -1 -11 155.622 367.362   1
   1   7  11-91.4078 372.198   1
  -8   7  10 12188.3 1397.47   1
  -7   8 -10 12863.8 1453.93   1
  -7  -1 -10 12695.6 1429.81   2
  -1  -7 -10 13414.5 1492.51   1
   8  -7 -10 14385.7 1464.52   1
  -7  -1 -10 12991.6 1440.43   1
   1   7  10 13649.5 1468.19   1
   7  -8  10 12752.4 1377.87   1
   1  -8  10 12565.0 1394.02   2
  -1  -7 -10 12550.8 1444.34   2
   7   1  10 14159.5 1423.02   1
  -1  -7  -9 5060.73 909.552   2
  -7  -1  -9 5317.87 940.656   2
  -8   7   9 4612.24 852.868   1
   1  -8   9 4818.36 852.051   2
  -1  -7  -9 6321.62 999.817   1
   7  -8   9 6709.10 963.006   1
   8  -7  -9 4759.06 867.088   1
   7   1   9 4641.99 882.460   1
  -7  -1  -9 6055.11 973.223   1
  -7   8  -9 5032.31 879.527   1
   1   7   9 5029.80 842.863   1
  -8   7   8 564508. 11698.4   1
   7   1   8 520578. 11554.5   1
   7  -8   8 520392. 11347.2   1
  -7  -1  -8 510669. 11570.3   2
  -1  -7  -8 522784. 11608.7   1
   8  -7  -8 504962. 11359.2   1
   1   7   8 527920. 11645.8   1
  -7  -1  -8 538841. 11604.7   1
   1  -8   8 578887. 11820.5   2
  -1  -7  -8 525209. 11674.5   2
  -1  -7  -7 8265.19 1125.41   2
  -7  -1  -7 7567.62 1081.68   2
   8  -7  -7 7195.46 1054.29   1
   7  -8   7 9061.12 1090.84   1
  -7   8  -7 7896.04 1075.71   1
  -1  -7  -7 5944.93 961.316   1
   1   7   7 7394.56 1070.86   1
   7   1   7 7579.62 1022.82   1
  -7  -1  -7 7058.91 1025.78   1
   1  -8   7 6578.23 1012.62   2
  -8   7   7 7434.52 1062.56   1
  -8   7   6 54553.2 2775.88   1
   1  -8   6 49352.9 2685.60   2
   7   1   6 57753.5 2935.74   1
  -7  -1  -6 51329.2 2805.93   2
   8  -7  -6 58266.5 2857.98   1
  -1  -7  -6 56136.8 2894.79   1
   7  -8   6 55301.2 2807.16   1
   1   7   6 56393.2 2925.14   1
  -7  -1  -6 52261.8 2807.13   1
  -7   8  -6 52174.8 2779.86   1
  -1  -7  -6 51546.9 2790.49   2
  -1  -7  -5 1960.72 578.251   2
  -7  -1  -5 2961.81 670.493   2
  -7   8  -5 2737.53 635.705   1
  -8   7   5 2923.03 685.682   1
  -1  -7  -5 2487.80 695.900   1
   8  -1  -5 3265.04 706.838   1
  -7  -1  -5 2145.87 612.734   1
   8  -7  -5 3322.20 623.337   1
   7  -8   5 3077.00 652.781   1
  -8   1   5 3269.25 675.133   1
   1  -8   5 3047.03 683.809   2
   1   7   5 2376.35 579.314   1
   7   1   5 2985.54 705.544   1
   7  -8   4 825532. 15634.8   1
   7  -8   3 11818.2 1283.63   2
   8  -7  -3 10442.8 1207.59   1
  -7  -1  -3 14254.9 1347.10   2
   7   1   3 13945.8 1358.10   1
   1  -8   3 13512.8 1229.42   1
  -1   8  -3 12237.4 1214.26   1
  -1  -7  -3 13588.8 1323.34   1
   1   7   3 12981.7 1314.70   1
   8  -1  -3 12616.2 1264.77   1
  -7  -1  -3 13935.7 1371.23   1
  -8   1   3 10652.8 1167.30   1
   7  -8   3 10425.7 1170.70   1
   1  -8   3 12221.0 1307.91   2
  -1  -7  -3 11588.1 1230.72   2
  -7   8  -3 11204.0 1240.08   1
  -8   7   3 11404.1 1228.18   1
  -7  -1  -2 451886. 9660.53   2
  -8   1   2 409560. 9274.69   2
   7   1   2 364998. 9222.87   1
   1  -8   2 450423. 9444.51   1
   1  -8   2 426575. 9581.28   2
  -1  -7  -2 448365. 9665.08   1
   1   7   2 422845. 9574.57   1
   8  -1  -2 415957. 9340.00   1
  -7  -1  -2 421940. 9553.99   1
  -7   8  -2 425977. 9565.32   1
  -8   1   2 454375. 9599.18   1
   7  -8   2 446097. 9899.47   2
  -1   8  -2 437375. 9415.18   1
   8  -7  -2 436033. 9609.12   1
  -1  -7  -2 405933. 9484.96   2
  -8   7   2 415369. 9472.36   1
   7  -8   2 409657. 9393.83   1
  -1  -7  -1 1669.08 568.529   2
   8  -7  -1 2069.44 597.159   1
  -7  -1  -1 1157.10 441.334   2
  -8   1   1 2131.12 585.308   2
   1  -8   1 1805.77 577.932   2
  -7   8  -1 1282.99 433.988   1
   7   1   1 1703.40 515.375   1
   1  -8   1 1693.91 488.917   1
   8  -1  -1 1759.62 536.705   1
  -1  -7  -1 1523.63 509.347   1
  -7  -1  -1 1824.44 559.924   1
  -8   7   1 990.827 415.073   1
   7  -8   1 1161.16 481.264   1
  -1   8  -1 1797.35 548.071   1
   7  -8   1 1149.70 581.071   2
   1   7   1 2070.12 559.570   1
  -8   1   1 1090.76 426.166   1
  -7   8   0 214764. 5960.17   1
  -7  -1   0 217646. 5940.73   2
  -8   1   0 213300. 5993.96   2
   7   1   0 204106. 5885.36   1
   1  -8   0 223128. 5951.98   1
   7  -8   0 200836. 5849.56   1
  -1  -7   0 218655. 5901.06   1
  -1   8   0 203663. 5824.45   1
   1  -8   0 204245. 5908.33   2
   1   7   0 212845. 5889.16   1
   8  -1   0 215947. 5967.21   1
  -7  -1   0 211116. 5910.05   1
  -8   1   0 184115. 5668.41   1
   8  -7   0 210245. 5967.51   1
   7  -8   0 206305. 5984.65   2
  -1  -7   0 216783. 6015.33   2
  -8   7   0 207720. 5961.51   1
  -7  -1   1 2003.51 502.410   2
  -8   1  -1 2358.53 641.756   2
  -8   7  -1 2179.59 618.182   1
  -7   8   1 2310.39 635.922   1
   8  -1   1 2404.29 651.704   1
   7  -8  -1 2739.64 653.738   1
   1  -8  -1 1777.30 513.941   1
  -1  -7   1 2558.23 564.393   1
  -1   8   1 1476.92 500.540   1
  -7  -1   1 1133.29 422.829   1
   7  -8  -1 1481.77 525.814   2
   1   7  -1 1660.43 536.107   1
  -8   1  -1 1385.80 400.108   1
   8  -7   1 2423.58 612.996   1
   7   1  -1 2298.53 611.596   1
  -1  -7   1 980.377 470.946   2
   1  -8  -1 1493.58 497.322   2
  -7  -1   2 307370. 7445.35   2
  -7   8   2 302100. 7581.53   1
  -1  -7   2 317975. 7384.86   1
   1  -8  -2 304894. 7640.53   2
  -1  -7   2 301746. 7550.61   2
   7   1  -2 291103. 7389.91   1
   1  -8  -2 292785. 7528.67   1
  -1   8   2 295580. 7530.55   1
   1   7  -2 317478. 7435.05   1
   8  -1   2 305952. 7589.78   1
   8  -7   2 294384. 7470.12   1
  -8   7  -2 306602. 7698.03   1
  -7  -1   2 325326. 7581.46   1
   7  -8  -2 305999. 7544.95   1
  -8   1  -2 311970. 7704.15   1
   7  -8  -2 311752. 7692.31   2
   1  -8  -3 1733.04 562.455   2
   7  -8  -3 2427.17 588.659   1
  -8   7  -3 2547.89 596.476   1
   7  -8  -3 2945.41 712.968   2
   8  -1   3 2444.66 602.082   1
  -7   8   3 1881.08 526.319   1
   1  -8  -3 2288.46 591.855   1
  -8   1  -3 2203.92 534.585   1
   8  -7   3 1927.70 551.230   1
  -7  -1   3 2669.37 588.986   1
   1   7  -3 2815.83 588.530   1
  -1   8   3 2451.25 594.465   1
  -1  -7   3 2670.49 627.582   2
   7   1  -3 2046.99 522.868   1
  -7   8   4 999999. 18464.6   1
  -7   8   5 9563.59 1169.98   1
   8  -7   5 8417.77 1070.22   1
   7  -8  -5 10573.9 1242.71   1
   1  -8  -5 9876.36 1216.29   1
   8  -1   5 9556.24 1157.12   1
  -1   8   5 8689.99 1127.80   1
  -1  -7   5 10551.0 1201.75   2
  -8   1  -5 8787.18 1157.83   1
  -8   7  -5 10011.9 1154.43   1
   7  -8  -5 10406.1 1171.46   2
   1  -8  -5 10790.0 1237.31   2
   8  -7   6 9353.29 1137.88   1
  -7   8   6 9989.20 1214.46   1
   8  -1   6 10863.8 1207.57   1
   1  -8  -6 11613.3 1328.50   1
   7  -8  -6 11600.3 1258.41   1
  -1   8   6 11926.9 1315.20   1
  -8   1  -6 12113.3 1339.73   1
   7  -8  -6 11125.1 1216.23   2
  -8   7  -6 11763.8 1286.78   1
  -1  -7   6 12741.0 1327.45   2
   1  -8  -6 12201.4 1332.76   2
   1  -8  -7 1005.87 435.048   2
   8  -1   7 209.041 347.386   1
  -7   8   7-29.5171 341.186   1
  -8   7  -7 896.826 455.692   1
   1  -8  -7 1200.72 508.673   1
   8  -7   7 65.2790 293.034   1
  -1  -7   7 37.0553 276.332   2
  -1   8   7 1724.16 635.586   1
  -8   1  -7 573.063 421.802   1
   7  -8  -7 145.669 279.396   2
   7  -8  -8 344129. 8952.98   1
   8  -1   8 396567. 9320.09   1
   1  -8  -8 386058. 9291.17   1
   8  -7   8 420451. 9370.47   1
  -1   8   8 386578. 9242.54   1
  -7   8   8 386434. 9253.26   1
  -8   1  -8 384398. 9284.72   1
  -8   7  -8 381535. 9276.31   1
  -1  -7   8 358392. 9066.14   2
   1  -8  -8 398140. 9465.10   2
   8  -7   9 8447.80 1142.52   1
  -7   8   9 8472.43 1151.64   1
   7  -8  -9 9815.25 1233.87   1
   8  -1   9 8714.94 1157.04   1
   1  -8  -9 9664.90 1236.73   1
   1  -8  -9 9309.19 1216.00   2
  -1   8   9 8768.79 1187.44   1
  -8   1  -9 10123.3 1338.85   1
  -8   7  -9 9363.39 1220.55   1
  -7   8  10 31639.9 2228.51   1
   8  -1  10 31917.3 2206.09   1
   7  -8 -10 34369.4 2322.84   1
   1  -8 -10 34238.1 2317.19   1
  -1   8  10 35160.5 2333.60   1
  -8   1 -10 32155.9 2277.54   1
   8  -7  10 30387.3 2192.12   1
  -8   7 -10 35308.3 2348.40   1
   1  -8 -10 33376.3 2304.61   2
   8  -1  11 84.8994 359.733   1
   7  -8 -11-141.364 367.376   1
  -1   8  11 438.236 371.211   1
  -7   8  11 422.687 470.163   1
   1  -8 -11-194.701 460.232   1
   1  -8 -11-391.003 289.277   2
   8  -7  11 167.047 388.555   1
  -8   1 -11-286.200 370.291   1
  -8   7 -11-424.253 502.665   1
   8  -1  12 244100. 7165.73   1
  -7   8  12 249364. 7222.78   1
   7  -8 -12 250438. 7342.54   1
   1  -8 -12 249519. 7240.21   1
  -1   8  12 245315. 7120.30   1
  -8   1 -12 238595. 7207.93   1
   8  -7  12 242656. 7152.66   1
  -8   7 -12 247450. 7310.01   1
   1  -8 -12 242990. 7311.86   2
   1  -8 -13-436.795 502.249   2
  -8   1 -13 92.7447 353.898   2
   7  -8 -13-133.962 271.715   1
  -7   8  13 315.558 388.680   1
   1  -8 -13 292.977 366.348   1
   8  -1  13 271.054 447.904   1
  -8   1 -13 175.281 297.670   1
  -1   8  13 591.063 487.896   1
   1  -8 -14 8611.71 1297.92   2
  -8   1 -14 8618.84 1224.35   2
   7  -8 -14 8952.21 1275.82   1
   1  -8 -14 8716.24 1284.14   1
  -7   8  14 7480.35 1178.69   1
  -1   8  14 10664.8 1312.95   1
  -8   1 -14 10584.7 1385.57   1
   8  -1  14 11140.9 1373.19   1
  -8   1 -15 791.998 440.277   2
   7  -8 -15 288.357 403.665   1
   1  -8 -15 713.451 425.405   1
   8  -1  15-326.280 320.928   1
  -8   1 -15 232.101 450.441   1
  -1   8  15 187.697 353.895   1
  -8   1 -16 177532. 6187.88   1
   8  -1  16 163021. 5873.45   1
  -8   0   0 19623.7 1649.60   2
   0  -8   0 17153.4 1510.82   1
   8   0   0 18012.7 1580.40   1
   0   8   0 16763.4 1514.88   1
  -8   0   0 17624.7 1572.90   1
   8  -8   0 14489.4 1447.29   2
   8  -8   0 16292.3 1477.49   1
   0  -8   0 16807.3 1552.54   2
  -8   8   0 16628.8 1513.02   1
   8  -8  -1 160043. 5151.91   1
  -8   0   1 162885. 5138.36   2
  -8   0  -1 167384. 5315.39   2
   0  -8   1 169267. 5132.87   1
   8   0   1 193575. 5567.51   1
   0  -8  -1 174386. 5358.02   1
   8   0  -1 180939. 5393.44   1
   0   8  -1 168525. 5154.36   1
   0   8   1 155612. 5071.70   1
  -8   0  -1 163917. 5254.50   1
  -8   0   1 160212. 5145.03   1
   8  -8   1 162718. 5136.20   1
   0  -8  -1 153376. 5110.89   2
   0  -8   1 157809. 5163.52   2
   8  -8  -1 157666. 5315.80   2
  -8   8  -1 153491. 5089.42   1
  -8   8   1 145945. 5000.39   1
  -8   0  -2 299824. 7575.63   2
   8  -8  -2 275106. 7318.18   1
   0  -8   2 259966. 6895.51   1
   8   0   2 260340. 7148.06   1
   0  -8  -2 289246. 7414.32   1
   8   0  -2 322885. 7596.34   1
   0   8  -2 296817. 7285.61   1
   8  -8  -2 273475. 7347.25   2
   0   8   2 279751. 7304.70   1
  -8   0  -2 312952. 7687.07   1
  -8   0   2 241742. 6902.00   1
   8  -8   2 284969. 7284.32   1
   0  -8  -2 275735. 7344.01   2
   0  -8   2 260590. 7156.46   2
  -8   8  -2 277091. 7321.55   1
  -8   8   2 282230. 7358.49   1
  -8   0  -3 65666.0 3122.35   2
   8  -8  -3 60757.0 2993.84   2
   8   0   3 58449.5 2966.48   1
   8  -8  -3 57272.7 2916.04   1
   0  -8  -3 63196.3 3039.11   1
   0   8  -3 60400.3 2824.71   1
   8   0  -3 61465.1 2935.68   1
   0   8   3 61156.0 3012.54   1
   8  -8   3 55026.7 2843.74   1
  -8   0  -3 62679.1 3079.88   1
  -8   0   3 50882.2 2692.34   1
  -8   8   3 59098.9 2981.78   1
   0  -8   3 62950.1 3055.43   2
   0  -8  -3 60853.8 3009.39   2
  -8   8  -3 60421.0 3005.23   1
  -8   8   4 25515.4 1866.47   1
  -8   0  -4 27963.8 1982.38   2
   8   0   4 21568.0 1817.58   1
   0  -8  -4 22484.6 1833.48   1
   8  -8  -4 23735.9 1837.54   1
   8   0  -4 29348.6 1962.48   1
   8  -8   4 24801.5 1853.70   1
   0   8   4 24173.7 1887.02   1
  -8   0  -4 24774.8 1890.06   1
  -8   0   4 21870.3 1722.13   1
   8  -8  -4 27324.1 1944.53   2
   0  -8   4 26267.4 1927.71   2
  -8   8  -4 26380.0 1926.11   1
   0  -8  -4 26697.7 1967.53   2
  -8   8   5 126587. 4631.98   1
  -8   0  -5 140319. 4857.86   2
   8   0   5 132785. 4712.43   1
   8  -8   5 134222. 4672.31   1
   0  -8  -5 131642. 4681.51   1
   8  -8  -5 136543. 4756.70   1
   0   8   5 137098. 4759.17   1
  -8   0  -5 136638. 4816.00   1
   8  -8  -5 123292. 4684.12   2
  -8   8  -5 130460. 4656.87   1
   0  -8   5 143068. 4859.17   2
   0  -8  -5 136853. 4758.34   2
  -8   8   6 345911. 8733.15   1
  -8   0  -6 356136. 8833.73   2
   0   8   6 355449. 8867.74   1
   8   0   6 375482. 9011.55   1
   0  -8  -6 337373. 8751.13   1
   0  -8   6 362439. 8864.81   2
   8  -8  -6 350320. 8673.46   1
  -8   0  -6 375119. 8956.16   1
  -8   8  -6 359817. 8787.61   1
   8  -8   6 368698. 8780.22   1
   0  -8  -6 352527. 8822.50   2
  -8   8   7 78743.0 3588.91   1
   8  -8   7 85871.7 3706.43   1
  -8   0  -7 83221.2 3731.68   2
   8   0   7 94857.8 3933.22   1
   0  -8  -7 86294.1 3762.09   1
   0   8   7 95244.3 3920.61   1
  -8   0  -7 93415.8 3915.11   1
   8  -8  -7 85820.8 3699.42   1
   0  -8   7 92312.2 3874.42   2
  -8   8  -7 89468.6 3779.93   1
   0  -8  -7 89163.3 3841.76   2
  -8   8   8 43408.0 2592.95   1
   8   0   8 39781.6 2471.55   1
   0  -8  -8 40171.6 2511.13   1
   8  -8   8 41195.0 2528.35   1
   0   8   8 39709.8 2522.84   1
  -8   0  -8 29282.8 2241.78   1
   8  -8  -8 39615.9 2472.49   1
  -8   0  -8 41935.2 2559.74   2
   0  -8   8 41477.7 2567.86   2
  -8   8  -8 38737.2 2439.52   1
   0  -8  -8 36539.3 2433.36   2
  -8   8   9 19792.6 1772.34   1
   8   0   9 17680.4 1660.76   1
  -8   0  -9 17779.9 1714.93   2
   0  -8  -9 18452.8 1655.08   1
   0   8   9 17502.4 1649.96   1
  -8   0  -9 16639.5 1657.92   1
   8  -8  -9 16133.2 1611.96   1
   0  -8   9 20435.9 1803.87   2
  -8   8  -9 18904.5 1723.89   1
   8  -8   9 18042.2 1658.04   1
   0  -8  -9 18074.0 1709.15   2
  -8   8  10 116892. 4662.13   1
   8   0  10 125289. 4758.16   1
  -8   0 -10 126812. 4813.86   2
  -8   8 -10 129864. 4893.46   1
   0  -8 -10 124574. 4731.53   1
   0   8  10 119306. 4692.59   1
  -8   0 -10 128703. 4759.49   1
   0  -8 -10 127126. 4836.61   2
   8  -8 -10 118526. 4607.83   1
   8  -8  10 121938. 4758.01   1
   8   0  11 95962.8 4082.32   1
  -8   8  11 77711.5 3748.99   1
  -8   0 -11 96594.5 4120.81   2
   0  -8 -11 95849.9 4067.65   1
   0   8  11 89958.6 3953.90   1
  -8   0 -11 91984.3 4009.90   1
   8  -8  11 68666.1 3494.28   1
  -8   8 -11 86692.6 3975.44   1
   8  -8 -11 85541.9 3861.98   1
   0  -8 -11 82365.0 3886.39   2
   8   0  12 13178.1 1481.12   1
  -8   8  12 13115.5 1472.76   1
  -8   0 -12 13604.0 1520.97   2
   0  -8 -12 15796.5 1611.91   1
   0   8  12 13452.1 1457.50   1
  -8   0 -12 12434.9 1450.86   1
   8  -8 -12 12223.0 1452.30   1
   0  -8 -12 11903.7 1508.22   2
   8  -8 -13 85299.4 4019.41   1
  -8   8  13 80396.9 3988.16   1
  -8   0 -13 89066.0 4101.88   2
   0  -8 -13 89904.2 4060.98   1
   0   8  13 95664.7 4154.00   1
  -8   0 -13 96470.7 4294.84   1
   0  -8 -13 84272.9 4094.62   2
   8   0  13 88509.5 4035.09   1
  -8   0 -14 129927. 5015.37   2
   8   0  14 123577. 4857.04   1
   0  -8 -14 131677. 4966.80   1
   0   8  14 124808. 4889.34   1
  -8   0 -14 121262. 4954.71   1
   0  -8 -15 16367.8 1836.99   2
  -4  -5 -15 29681.5 2320.62   2
  -4  -5 -15 28007.3 2229.72   1
  -5  -4 -15 27861.2 2222.95   1
   4   5  15 31581.3 2363.91   1
   5   4  15 23489.6 2040.19   1
  -5  -4 -15 32101.7 2368.27   2
  -4  -5 -14 242623. 7395.06   2
  -5  -4 -14 233340. 7235.80   2
  -4  -5 -14 245718. 7249.69   1
  -5  -4 -14 253071. 7351.04   1
   4   5  14 247658. 7262.70   1
   5   4  14 251515. 7243.60   1
  -4  -5 -13 145560. 5542.60   2
  -5  -4 -13 148746. 5482.34   2
  -4  -5 -13 174859. 5744.37   1
  -5  -4 -13 171071. 5756.63   1
   4   5  13 190000. 5956.36   1
   5   4  13 166921. 5682.64   1
  -4  -5 -12 41484.8 2693.89   2
  -5  -4 -12 45987.9 2782.18   2
  -4  -5 -12 43977.5 2718.37   1
  -5  -4 -12 42530.6 2686.67   1
   4   5  12 47502.5 2776.61   1
   5   4  12 36802.6 2499.07   1
  -4  -5 -11 135514. 5014.16   2
  -5  -4 -11 137393. 4988.07   2
   5   4  11 129508. 4807.37   1
  -4  -5 -11 141292. 5067.88   1
  -5  -4 -11 129503. 4884.41   1
   4   5  11 135637. 4901.30   1
  -4  -5 -10 238381. 7015.43   2
  -5  -4 -10 251340. 7142.85   2
  -4  -5 -10 247751. 7054.00   1
  -5  -4 -10 245996. 7122.41   1
   4   5  10 240848. 6909.00   1
   5  -9  10 232428. 7012.53   2
   4  -9  10 241578. 7178.59   2
   5   4  10 228761. 6794.10   1
  -5  -4  -9 24998.6 1992.94   2
   5  -9   9 27652.6 2082.73   2
  -4  -5  -9 28064.6 2085.00   1
  -5  -4  -9 25826.0 2033.96   1
   9  -5  -9 25032.9 1983.31   1
   5   4   9 26441.7 2008.85   1
   4   5   9 25740.5 1980.48   1
  -4  -5  -9 29166.3 2136.16   2
   4  -9   9 24206.5 2007.64   2
  -9   5   9 23617.9 1890.48   1
  -9   4   8 4647.05 779.006   1
  -4  -5  -8 4427.99 959.088   2
  -5  -4  -8 5038.85 907.998   2
   4   5   8 5313.69 923.686   1
   5   4   8 3866.06 791.908   1
  -4  -5  -8 4437.43 847.905   1
   9  -4  -8 4723.53 843.468   1
  -5  -4  -8 4425.46 841.436   1
   9  -5  -8 5979.39 929.914   1
   5  -9   8 5021.43 931.170   2
   4  -9   8 5030.99 894.308   2
  -9   5   8 7040.71 1028.59   1
   9  -4  -7 7920.64 998.302   1
  -4  -5  -7 7400.21 1068.71   2
  -5  -4  -7 6682.26 1050.22   2
   4   5   7 7523.12 1073.95   1
   5   4   7 8077.37 1124.59   1
   9  -5  -7 7985.48 1077.80   1
  -4  -5  -7 7430.88 1076.75   1
  -5  -4  -7 6815.50 1044.79   1
   5  -9   7 7523.69 1102.55   2
  -9   4   7 10574.1 1187.82   1
   4  -9   7 6843.03 1011.51   2
  -9   5   7 8757.64 1054.65   1
  -5   9  -7 10122.6 1173.50   1
  -4   9  -6 99804.1 3848.04   1
  -5  -4  -6 91057.9 3787.79   2
   9  -4  -6 86424.5 3630.05   1
   4  -9   6 88389.2 3782.46   2
   5  -9   6 101098. 4058.27   2
   9  -5  -6 100774. 3879.02   1
  -4  -5  -6 91487.4 3802.82   1
  -5  -4  -6 82960.3 3694.88   1
  -9   4   6 75622.5 3382.49   1
   4   5   6 94923.1 3867.11   1
   5   4   6 98669.4 3935.81   1
   5  -9   6 98586.2 3830.32   1
  -9   5   6 88422.0 3715.52   1
  -5   9  -6 99414.4 3865.00   1
  -4  -5  -6 102743. 4038.43   2
  -5  -4  -5 21670.5 1811.11   2
  -4   9  -5 20610.5 1657.24   1
   9  -4  -5 20090.5 1667.52   1
  -9   4   5 22840.4 1749.57   1
   5  -9   5 20764.5 1716.94   1
   4  -9   5 18783.0 1692.56   2
   5   4   5 21999.9 1744.79   1
   9  -5  -5 22572.9 1744.95   1
  -4  -5  -5 20218.5 1696.55   1
  -5  -4  -5 20895.2 1790.39   1
   4  -9   5 20554.7 1654.79   1
   4   5   5 20243.0 1731.51   1
   5  -9   5 20085.6 1733.04   2
  -9   5   5 21784.7 1700.36   1
  -4  -5  -5 17574.7 1604.67   2
  -5   9  -5 22609.2 1758.43   1
  -5   9  -4 44312.0 2483.90   1
   9  -4  -4 44956.0 2443.08   1
  -4   9  -4 46151.2 2485.87   1
   5   4   4 43238.1 2470.32   1
  -9   5   4 42271.8 2422.07   1
   9  -5  -4 45097.3 2503.08   1
   4  -9   4 47428.7 2507.59   1
   5  -9   4 42171.9 2402.74   1
  -4  -5  -4 43202.8 2520.61   1
  -5  -4  -4 44528.7 2528.82   1
   4   5   4 45757.6 2561.31   1
   5  -9   4 44117.9 2568.81   2
   4  -9   4 47720.1 2577.27   2
  -9   4   4 44232.9 2466.15   1
  -4  -5  -4 40319.2 2413.76   2
  -5  -4  -4 42462.4 2502.56   2
   9  -4  -3 172686. 5332.62   1
  -5   9  -3 182249. 5464.89   1
  -4   9  -3 179195. 5407.09   1
   9  -5  -3 167131. 5300.39   1
  -5  -4  -3 178695. 5505.80   2
  -4  -5  -3 174698. 5418.70   1
  -5  -4  -3 177264. 5439.70   1
   5  -9   3 183672. 5583.41   2
   5  -9   3 178786. 5350.06   1
   4   5   3 173160. 5437.00   1
  -9   4   3 165635. 5228.22   1
   5   4   3 169053. 5354.33   1
  -9   5   3 199824. 5639.50   1
   4  -9   3 179825. 5492.42   2
  -4  -5  -3 184267. 5530.43   2
  -9   5   2 443051. 9329.35   1
   5  -9   2 374056. 8892.42   1
  -5   9  -2 409401. 9178.09   1
  -4   9  -2 389289. 8985.73   1
   4  -9   2 386411. 8898.37   1
   9  -5  -2 380047. 8925.06   1
  -4  -5  -2 396470. 9054.56   1
  -5  -4  -2 361596. 8837.40   1
  -4  -5  -2 389642. 9022.11   2
   4   5   2 394645. 9032.75   1
   5  -9   2 372247. 9006.86   2
  -9   4   2 395082. 9072.64   1
   4  -9   2 416915. 9310.59   2
   5   4   2 393210. 9067.41   1
   9  -4  -2 372190. 8909.53   1
  -5  -4  -2 372496. 8886.39   2
  -5   9  -1 305862. 7602.66   1
   9  -5  -1 280921. 7379.10   1
  -4   9  -1 304819. 7583.04   1
  -9   4   1 277304. 7386.78   1
   4  -9   1 292734. 7415.09   1
  -4  -5  -1 286378. 7398.28   1
  -4  -5  -1 292017. 7464.95   2
  -5  -4  -1 319135. 7622.85   1
   4   5   1 296194. 7454.39   1
   5  -9   1 298719. 7598.68   2
   4  -9   1 293191. 7510.86   2
   5   4   1 299047. 7497.75   1
  -9   5   1 329659. 7689.29   1
   9  -4  -1 300970. 7512.76   1
  -5  -4  -1 302983. 7596.16   2
   9  -5   0 32723.5 2051.09   1
   5  -9   0 35254.3 2202.76   2
  -5   9   0 34012.6 2120.90   1
  -4   9   0 32214.7 2101.12   1
   5  -9   0 30591.6 2002.82   1
   4  -9   0 27003.1 1915.11   1
  -4  -5   0 31536.6 2034.72   1
  -5  -4   0 34427.4 2113.17   1
  -4  -5   0 30737.0 2036.19   2
   5   4   0 32083.9 2024.48   1
   4   5   0 32006.3 2062.57   1
  -9   4   0 29833.6 2031.99   1
   4  -9   0 31415.9 2071.71   2
  -9   5   0 34810.8 2147.85   1
   9  -4   0 32946.9 2116.38   1
  -5  -4   0 30610.0 2057.38   2
   9  -5   1 108366. 4047.34   1
  -5   9   1 106998. 4088.51   1
   5  -9  -1 107998. 4035.13   1
  -4   9   1 109798. 4094.33   1
   4  -9  -1 103181. 3993.49   1
   9  -4   1 109546. 4083.28   1
  -4  -5   1 114440. 4002.52   1
  -5  -4   1 116066. 4019.68   1
   4   5  -1 111433. 4000.16   1
   5  -9  -1 113310. 4197.57   2
  -9   5  -1 118019. 4231.39   1
   5   4  -1 109690. 3972.39   1
  -9   4  -1 121504. 4305.28   1
  -4  -5   1 114877. 4144.65   2
  -5  -4   1 116498. 4195.43   2
   4  -9  -1 108520. 4108.24   2
   4  -9  -2 681592. 13672.6   2
   5  -9  -2 674281. 13587.7   1
  -4   9   2 668606. 13475.3   1
   5  -9  -2 683810. 13666.0   2
  -5  -4   2 687033. 13535.9   2
  -5   9   3 83845.3 3554.08   1
  -9   5  -3 79839.9 3487.58   1
   5  -9  -3 90058.5 3682.04   1
   4  -9  -3 82395.3 3570.87   1
  -9   4  -3 85160.8 3592.06   1
  -4   9   3 82501.7 3505.54   1
   9  -4   3 91410.0 3650.72   1
   9  -5   3 78566.7 3438.87   1
  -4  -5   3 80662.1 3462.63   2
   5  -9  -3 85047.1 3611.45   2
   4  -9  -3 77450.1 3478.62   2
  -5  -4   3 82586.4 3489.39   2
  -5   9   4 34044.8 2161.49   1
   5  -9  -4 27085.2 1986.56   1
   4  -9  -4 32458.1 2128.35   1
  -4   9   4 30045.9 2043.32   1
  -4  -5   4 30852.2 2022.15   2
  -5  -4   4 28234.5 1965.65   2
   9  -4   4 30397.1 2057.29   1
  -9   4  -4 29055.8 2038.50   1
  -9   5  -4 29960.8 2056.75   1
   9  -5   4 31627.6 2066.66   1
   5  -9  -4 30677.3 2093.82   2
   4  -9  -4 29421.2 2029.73   2
  -4  -5   5 76355.6 3324.16   2
   4  -9  -5 72989.9 3404.50   2
  -5   9   5 77191.4 3402.71   1
   5  -9  -5 72404.0 3364.25   1
   4  -9  -5 69467.5 3299.47   1
  -4   9   5 73644.0 3375.11   1
  -9   5  -5 80554.0 3479.92   1
   9  -4   5 68070.8 3249.44   1
  -9   4  -5 72869.3 3352.20   1
   9  -5   5 76797.0 3362.90   1
   5  -9  -5 78670.0 3434.36   2
   4  -9  -6 54775.3 2887.89   2
  -5   9   6 49251.8 2741.25   1
   5  -9  -6 54102.4 2872.72   1
   4  -9  -6 53762.6 2888.49   1
  -4   9   6 51450.7 2777.27   1
   9  -4   6 53012.6 2788.86   1
  -9   4  -6 54822.0 2871.52   1
   9  -5   6 52686.3 2772.65   1
  -9   5  -6 48714.7 2748.87   1
   5  -9  -6 50782.1 2799.03   2
   5  -9  -7 5113.54 923.458   1
   4  -9  -7 5748.22 948.655   1
   9  -4   7 4910.87 802.451   1
  -5   9   7 4677.83 846.819   1
  -4   9   7 4277.86 802.180   1
   9  -5   7 4341.41 804.061   1
   4  -9  -7 5525.29 973.736   2
  -9   4  -7 4401.10 841.102   1
  -9   5  -7 4110.73 822.043   1
   5  -9  -7 4418.45 883.752   2
   5  -9  -8 8897.33 1234.78   1
   4  -9  -8 9019.02 1172.15   1
   9  -4   8 7085.79 1028.33   1
  -5   9   8 7850.19 1056.16   1
   9  -5   8 7817.81 1079.76   1
  -4   9   8 9998.47 1227.28   1
   5  -9  -8 8095.27 1142.99   2
   4  -9  -8 8164.16 1194.08   2
  -9   4  -8 7589.43 1102.56   1
  -9   5  -8 8430.48 1169.09   1
   4  -9  -9 36336.1 2417.97   2
   5  -9  -9 37557.9 2520.94   2
   5  -9  -9 39406.4 2460.88   1
   4  -9  -9 34724.8 2376.62   1
  -5   9   9 33531.6 2322.77   1
  -4   9   9 33620.2 2327.09   1
   9  -4   9 35693.2 2352.12   1
   9  -5   9 32550.0 2245.91   1
  -9   4  -9 33100.4 2298.68   1
  -9   5  -9 36604.5 2394.06   1
   5  -9 -10 231205. 6964.37   1
   4  -9 -10 228752. 6839.24   1
  -5   9  10 229535. 6782.05   1
  -4   9  10 247774. 7031.33   1
   9  -4  10 243015. 6976.03   1
   9  -5  10 239720. 6886.76   1
  -9   4 -10 232808. 6953.25   1
  -9   5 -10 245561. 7131.57   1
   4  -9 -10 254464. 7276.58   2
   5  -9 -10 220333. 6960.64   2
   4  -9 -11 182647. 6058.23   1
  -5   9  11 197226. 6116.06   1
  -4   9  11 184240. 6023.61   1
   9  -4  11 192995. 6134.59   1
   9  -5  11 188047. 6058.53   1
  -9   4 -11 184307. 6112.90   1
  -9   5 -11 194878. 6272.01   1
   5  -9 -11 186316. 6123.24   1
   4  -9 -11 189952. 6240.05   2
   5  -9 -12 59757.9 3319.15   1
   4  -9 -12 54439.5 3073.70   1
  -5   9  12 55082.2 3025.92   1
   9  -4  12 57646.2 3155.72   1
  -4   9  12 64029.9 3341.64   1
   9  -5  12 59837.4 3199.10   1
  -9   4 -12 59362.6 3269.96   1
  -9   5 -12 54260.1 3152.98   1
   5  -9 -13 115641. 4720.63   1
   9  -4  13 106691. 4439.88   1
   4  -9 -13 106715. 4529.11   1
  -5   9  13 109039. 4462.13   1
  -4   9  13 112501. 4546.63   1
   9  -5  13 102311. 4405.07   1
  -9   4 -13 105642. 4561.82   1
  -9   5 -13 102340. 4515.08   1
   9  -4  14 242625. 7537.24   1
   5  -9 -14 282804. 7961.60   1
  -5   9  14 284701. 7909.01   1
   4  -9 -14 278564. 7904.04   1
   9  -5  14 249187. 7623.21   1
  -4   9  14 237753. 7384.29   1
  -9   4 -14 267944. 7838.57   1
  -9   5 -14 260327. 7849.60   1
   9  -4  15 23815.3 2137.46   1
   9  -5  15 26710.3 2223.59   1
   5  -9 -15 25806.3 2219.96   1
  -5   9  15 27293.6 2195.63   1
   4  -9 -15 25635.6 2220.13   1
  -4   9  15 23955.3 2083.06   1
  -9   4 -15 24512.5 2158.85   1
  -9   5 -15 23970.7 2170.24   1
  -3  -6 -15 4430.83 982.697   2
  -6  -3 -14 29880.1 2236.26   2
  -3  -6 -14 31754.9 2345.73   1
  -6  -3 -14 28068.2 2240.69   1
   3   6  14 35834.3 2446.74   1
   6   3  14 32382.4 2294.41   1
  -3  -6 -14 27253.6 2276.15   2
   3   6  13 3852.17 840.404   1
  -3  -6 -13 3965.78 816.437   2
  -6  -3 -13 3066.86 777.622   2
   6   3  13 3827.19 852.377   1
  -3  -6 -13 4120.18 840.285   1
  -6  -3 -13 4103.34 875.946   1
  -6  -3 -12 324932. 8719.04   2
  -3  -6 -12 338827. 8717.25   1
  -6  -3 -12 333906. 8710.02   1
   3   6  12 315686. 8510.58   1
  -3  -6 -12 337598. 8833.35   2
   3   6  11 5258.54 918.756   1
  -3  -6 -11 5292.25 968.286   2
  -6  -3 -11 5707.19 1005.36   2
   6   3  11 5457.23 943.981   1
  -3  -6 -11 5165.89 947.466   1
  -6  -3 -11 5928.66 949.482   1
   3  -9  11 4698.47 979.071   2
   3  -9  10 34782.7 2434.59   2
  -6  -3 -10 35567.8 2427.20   2
  -3  -6 -10 34957.6 2406.17   1
   6   3  10 41815.6 2543.83   1
  -6  -3 -10 42011.0 2585.43   1
   3   6  10 39202.0 2499.22   1
  -9   6  10 36292.0 2425.51   1
   9  -6 -10 39914.2 2554.08   1
  -3  -6 -10 37157.3 2510.37   2
   9  -6  -9 1070.25 481.037   1
   3   6   9 275.310 367.391   1
  -3  -6  -9 709.453 457.276   2
  -6  -3  -9-623.534 454.577   2
  -9   6   9 1115.66 430.235   1
   6   3   9 346.759 285.732   1
  -3  -6  -9 450.823 353.670   1
  -6  -3  -9 701.211 418.279   1
   3  -9   9-91.2017 407.853   2
  -6  -3  -8 415106. 9807.89   2
  -3  -6  -8 425729. 9814.68   1
   6   3   8 431176. 9832.60   1
  -3  -6  -8 400134. 9756.39   2
  -6  -3  -8 412614. 9902.10   1
  -6   9  -8 412066. 9715.25   1
   3   6   8 403541. 9711.11   1
   9  -6  -8 409661. 9660.74   1
   6  -9   8 404180. 9850.49   2
   3  -9   8 442044. 9999.25   2
  -6  -3  -7 42646.7 2528.82   2
  -3  -6  -7 41322.2 2535.41   1
  -6  -3  -7 41180.2 2576.30   1
   6  -9   7 37209.5 2335.21   1
   3   6   7 38964.4 2466.30   1
   9  -6  -7 41160.5 2459.21   1
   3  -9   7 40399.6 2507.92   2
   9  -3  -7 45330.4 2539.82   1
   6   3   7 43765.7 2564.32   1
  -6   9  -7 43678.0 2542.78   1
   6  -9   7 39458.0 2549.36   2
  -9   6   7 45874.3 2595.70   1
  -3  -6  -7 37910.6 2457.67   2
  -9   3   6 3081.64 623.852   1
   3   6   6 3830.54 718.280   1
  -3  -6  -6 3060.82 709.513   2
  -6  -3  -6 3117.31 759.223   2
  -9   6   6 2626.84 672.766   1
  -6   9  -6 3711.62 784.687   1
   9  -3  -6 2839.12 652.344   1
   6   3   6 2916.26 667.179   1
  -3  -6  -6 3169.46 703.312   1
  -6  -3  -6 4030.09 808.414   1
   6  -9   6 3477.81 852.056   2
   6  -9   6 3717.14 708.802   1
   3  -9   6 4197.44 795.005   2
   9  -6  -6 2773.93 674.114   1
   3   6   5 1783.22 586.855   1
  -3  -6  -5 1096.19 533.772   2
  -6  -3  -5 2064.90 617.206   2
  -9   6   5 1862.09 613.374   1
   9  -3  -5 1561.03 514.995   1
   6  -9   5 1961.01 590.792   1
  -6   9  -5 1822.73 601.133   1
  -3   9  -5 1371.49 497.436   1
   6   3   5 1485.42 508.938   1
   3  -9   5 1617.19 512.308   2
  -3  -6  -5 1577.97 489.882   1
   6  -9   5 1316.30 492.946   2
  -6  -3  -5 1869.91 626.868   1
   9  -6  -5 1721.63 591.266   1
  -9   3   5 1367.63 486.917   1
  -6  -3  -4 376238. 9120.79   2
   6  -9   4 403280. 9254.39   1
   6  -9   4 385688. 9341.20   2
  -3   9  -4 390009. 9095.45   1
   3  -9   4 405723. 9138.92   1
  -3  -6  -4 380246. 9181.85   2
  -3  -6  -4 390624. 9267.87   1
  -6  -3  -4 426169. 9533.70   1
   9  -6  -4 371345. 9026.63   1
   3   6   4 406464. 9387.07   1
   3  -9   4 382778. 9180.44   2
   9  -3  -4 430363. 9370.60   1
  -9   6   4 395927. 9206.24   1
   6   3   4 380408. 9168.12   1
  -6   9  -4 405099. 9212.39   1
  -6  -3  -3 26659.2 1933.30   2
  -3   9  -3 26755.2 1902.36   1
   3  -9   3 24411.9 1803.92   1
   6  -9   3 29671.0 1963.93   1
  -3  -6  -3 28547.4 1951.64   1
   9  -6  -3 23012.2 1786.05   1
  -6  -3  -3 23643.9 1864.24   1
   6   3   3 27381.5 1968.02   1
   3   6   3 28053.4 1996.37   1
  -6   9  -3 29014.9 2003.20   1
  -9   3   3 23413.7 1756.32   1
   6  -9   3 23952.0 1892.04   2
   9  -3  -3 24060.1 1813.84   1
   3  -9   3 25244.6 1858.24   2
  -9   6   3 24994.5 1859.53   1
  -3  -6  -3 23544.0 1816.37   2
  -6  -3  -2 23617.5 1783.00   2
  -6   9  -2 23357.2 1785.23   1
  -3   9  -2 23849.8 1793.59   1
   3  -9   2 20969.7 1690.80   1
  -3  -6  -2 24468.6 1804.06   1
   9  -6  -2 23246.0 1746.53   1
   6  -9   2 19567.9 1634.92   1
  -6  -3  -2 24273.2 1823.41   1
   3   6   2 21468.6 1726.09   1
  -9   3   2 23338.2 1764.23   1
   9  -3  -2 20121.6 1652.39   1
   6  -9   2 22815.9 1780.21   2
   3  -9   2 20426.5 1685.91   2
  -9   6   2 22635.1 1766.42   1
   6   3   2 23670.8 1807.02   1
  -3  -6  -2 21523.8 1695.87   2
   6  -9   1 2822.68 617.213   1
   3   6   1 3292.72 650.394   1
  -3  -6  -1 3794.88 746.874   2
  -9   6   1 2510.89 637.099   1
  -6  -3  -1 2756.12 664.222   2
   9  -3  -1 4360.39 740.438   1
   3  -9   1 4344.73 712.491   1
  -6   9  -1 3552.58 765.376   1
  -3   9  -1 3620.51 731.758   1
   6   3   1 2983.24 658.026   1
   9  -6  -1 4391.00 805.381   1
  -3  -6  -1 2086.96 567.433   1
  -6  -3  -1 3669.27 755.456   1
   6  -9   1 2804.04 643.525   2
   3  -9   1 4290.90 767.936   2
  -9   3   1 2388.21 578.722   1
  -6  -3   0 721892. 13945.0   2
   6  -9   0 685153. 13910.3   2
   9  -6   0 690690. 13771.5   1
  -3  -6   0 758143. 13876.9   1
   3  -9   0 681620. 13822.6   2
  -9   6   0 690278. 13750.5   1
  -3  -6   0 642979. 13536.1   2
   6  -9   0 669959. 13616.6   1
   3   6  -1 274.780 321.271   1
  -3  -6   1 394.061 412.416   2
  -9   6  -1 373.580 334.209   1
   9  -3   1-70.7194 272.868   1
  -6  -3   1 517.421 407.553   2
   6  -9  -1 46.6458 295.182   1
   9  -6   1 77.6600 377.763   1
   3  -9  -1 29.9754 310.810   1
  -6   9   1 469.559 329.910   1
   6   3  -1 199.344 317.181   1
  -3  -6   1 395.603 409.615   1
  -3   9   1 459.969 390.309   1
  -6  -3   1 449.863 347.339   1
   6  -9  -1 460.285 349.046   2
  -9   3  -1 212.622 348.224   1
   3  -9  -1 441.029 421.720   2
  -9   6  -2 5472.83 902.562   1
  -6  -3   2 5325.44 890.548   2
  -3  -6   2 5580.97 917.749   2
   6  -9  -2 5885.28 895.587   1
   3  -9  -2 4412.98 824.447   1
  -6   9   2 6715.32 941.223   1
   6   3  -2 5374.56 770.757   1
  -3   9   2 5520.11 890.101   1
   9  -3   2 5879.31 853.804   1
  -6  -3   2 5369.51 806.734   1
   6  -9  -2 5994.44 934.045   2
  -9   3  -2 5933.70 927.506   1
   3  -9  -2 5107.20 873.838   2
   3   6  -2 5357.67 842.377   1
   9  -6   2 5671.88 886.386   1
  -3  -6   3 1544.47 554.920   2
  -9   6  -3 874.037 419.419   1
  -6  -3   3 1199.00 492.291   2
   6  -9  -3 699.901 463.183   1
   3  -9  -3 895.267 515.155   1
  -6   9   3 1490.20 535.704   1
   9  -3   3 1530.68 500.966   1
  -3   9   3 1129.16 469.731   1
   9  -6   3 1347.93 454.221   1
   3  -9  -3 1128.02 504.545   2
   6  -9  -3 607.738 352.148   2
  -9   3  -3 1340.82 428.603   1
  -9   6  -4 541336. 11786.9   1
   6  -9  -4 584118. 11956.5   1
   3  -9  -4 547807. 11840.8   1
  -3   9   4 541279. 11836.4   1
   6  -9  -4 559621. 11994.0   2
   3  -9  -4 566644. 11979.7   2
  -6   9   5 30988.4 2088.36   1
   6  -9  -5 32931.5 2147.07   1
   3  -9  -5 29098.9 2062.60   1
  -3   9   5 28641.7 2053.46   1
   9  -3   5 34957.0 2188.67   1
  -9   3  -5 30568.0 2083.30   1
  -9   6  -5 30556.1 2078.95   1
   6  -9  -5 30220.5 2143.29   2
   3  -9  -5 31470.1 2189.21   2
  -3  -6   5 27849.7 1984.03   2
   9  -6   5 31196.8 2101.32   1
   9  -6   6 3938.73 738.415   1
   6  -9  -6 3152.75 705.026   1
   9  -3   6 4319.12 780.007   1
   3  -9  -6 3518.14 744.754   1
  -3  -6   6 3594.52 791.204   2
  -6   9   6 5227.49 930.729   1
  -3   9   6 4733.26 868.624   1
  -9   3  -6 3523.35 755.746   1
   6  -9  -6 2914.99 763.897   2
  -9   6  -6 3463.43 768.623   1
   3  -9  -6 3518.96 780.942   2
   6  -9  -7 3152.88 794.457   2
   6  -9  -7 3579.87 774.961   1
   9  -3   7 2564.97 628.550   1
   3  -9  -7 3598.19 700.128   1
  -6   9   7 4342.41 821.727   1
  -3   9   7 4359.89 844.783   1
  -9   3  -7 3427.02 759.669   1
   9  -6   7 4380.40 836.745   1
  -9   6  -7 2850.09 735.816   1
   3  -9  -7 4481.04 877.354   2
  -6   9   8 352421. 9077.51   1
   6  -9  -8 370966. 9158.56   1
   3  -9  -8 366996. 9138.27   1
  -3   9   8 390226. 9312.08   1
   9  -3   8 392663. 9253.27   1
  -9   3  -8 389191. 9337.68   1
   9  -6   8 367110. 9058.85   1
  -9   6  -8 389601. 9291.36   1
   6  -9  -8 373775. 9259.42   2
   3  -9  -8 349548. 9068.82   2
  -6   9   9 13262.1 1463.04   1
   6  -9  -9 12363.2 1401.57   1
   3  -9  -9 13467.6 1482.43   1
  -3   9   9 14600.5 1495.74   1
   3  -9  -9 12326.7 1458.22   2
   9  -3   9 14036.7 1408.84   1
   9  -6   9 13175.8 1421.16   1
  -9   3  -9 12084.8 1421.43   1
  -9   6  -9 15477.1 1540.23   1
  -6   9  10 47928.0 2837.81   1
   6  -9 -10 43305.4 2683.90   1
   3  -9 -10 45712.5 2761.27   1
   9  -3  10 47117.0 2772.07   1
  -3   9  10 55033.2 2962.02   1
   9  -6  10 52531.0 2933.86   1
  -9   3 -10 51197.7 2940.80   1
  -9   6 -10 50809.7 2903.29   1
   3  -9 -10 48538.9 2896.31   2
   3  -9 -11 475.229 372.823   2
   6  -9 -11 899.064 431.818   1
   3  -9 -11 618.991 474.281   1
   9  -6  11 735.040 391.858   1
  -6   9  11 646.543 376.038   1
  -3   9  11 1474.08 612.087   1
  -9   3 -11 886.705 576.019   1
  -9   6 -11 1297.33 601.131   1
   9  -3  11 925.081 475.083   1
  -6   9  12 287352. 7866.30   1
   9  -3  12 266293. 7694.14   1
   6  -9 -12 268396. 7810.58   1
   3  -9 -12 295132. 7965.42   1
  -3   9  12 297155. 7956.79   1
   9  -6  12 264696. 7663.17   1
  -9   3 -12 261801. 7741.05   1
  -9   6 -12 280462. 7970.54   1
   3  -9 -12 260482. 7900.56   2
   9  -6  13-125.937 313.459   1
   6  -9 -13 867.396 501.505   1
   3  -9 -13 44.7592 306.333   1
  -9   6 -13 366.078 336.062   1
  -6   9  13 1171.23 609.861   1
  -3   9  13 354.781 383.489   1
  -9   3 -13 1078.86 562.065   1
   9  -3  13-309.512 463.045   1
   9  -3  14 34526.9 2515.91   1
   6  -9 -14 30645.8 2405.39   1
   3  -9 -14 33454.9 2472.97   1
   9  -6  14 30663.7 2415.77   1
  -3   9  14 39858.9 2616.36   1
  -9   3 -14 35614.4 2576.87   1
  -9   6 -14 32845.2 2510.55   1
  -6   9  14 35422.7 2533.15   1
   6  -9 -15 1385.30 581.409   1
   3  -9 -15 1245.88 440.607   1
  -6   9  15 1388.68 559.448   1
  -3   9  15 1689.93 643.832   1
   9  -3  15 1175.83 503.126   1
  -9   3 -15 1903.39 602.177   1
  -7  -2 -14 66664.0 3490.51   2
  -2  -7 -14 63821.1 3424.71   1
   7   2  14 65729.6 3402.13   1
  -7  -2 -14 61038.3 3310.40   1
   2   7  14 61320.1 3300.37   1
  -2  -7 -14 56280.9 3304.85   2
  -7  -2 -13 45093.5 2771.09   2
  -2  -7 -13 43639.9 2782.86   1
  -7  -2 -13 44197.0 2809.48   1
   2   7  13 46094.5 2814.62   1
   7   2  13 42630.0 2717.18   1
  -2  -7 -13 46294.5 2886.13   2
  -7  -2 -12 13384.4 1482.77   2
  -2  -7 -12 9137.18 1272.48   1
  -7  -2 -12 10117.7 1325.35   1
   2   7  12 9943.32 1258.54   1
   7   2  12 11722.3 1375.99   1
  -2  -7 -12 11467.5 1371.65   2
   9  -7 -11 64919.9 3378.58   1
  -7  -2 -11 73507.1 3548.03   2
  -2  -7 -11 68463.6 3440.62   1
  -7  -2 -11 71435.2 3472.05   1
   2   7  11 62845.1 3319.14   1
   2  -9  11 63986.6 3458.98   2
   7   2  11 64098.3 3283.71   1
  -2  -7 -11 69024.7 3505.14   2
  -9   7  11 64396.5 3417.38   1
   9  -7 -10 238639. 6958.31   1
  -7  -2 -10 226310. 6742.96   2
   2  -9  10 215150. 6813.41   2
  -2  -7 -10 231448. 6842.51   1
  -7  -2 -10 228349. 6806.27   1
   2   7  10 225635. 6737.93   1
   7   2  10 215258. 6576.22   1
  -2  -7 -10 213227. 6640.83   2
  -9   7  10 215575. 6595.87   1
   9  -7  -9 26438.5 2009.76   1
  -7  -2  -9 26550.4 2049.53   2
   7   2   9 26363.6 1965.84   1
  -2  -7  -9 22130.7 1908.81   1
  -7  -2  -9 23584.6 1988.96   1
   2   7   9 24889.2 1994.39   1
   2  -9   9 24343.7 1984.28   2
  -7   9  -9 25278.2 1988.33   1
  -2  -7  -9 24545.2 1961.37   2
  -9   7   9 23993.5 1957.42   1
  -7  -2  -8 99578.4 4099.17   2
   7  -9   8 89853.2 3882.75   1
  -2  -7  -8 90440.0 3938.41   1
  -7  -2  -8 98233.4 4089.31   1
   2   7   8 90814.3 3946.05   1
   2  -9   8 93270.3 4083.63   2
  -7   9  -8 87771.3 3888.67   1
   7   2   8 98413.7 3998.13   1
  -2  -7  -8 95341.1 3999.29   2
  -9   7   8 93105.0 3912.27   1
   9  -7  -8 92371.5 3944.39   1
  -7  -2  -7 23756.0 1878.20   2
  -7   9  -7 28024.7 2039.98   1
   7  -9   7 25079.3 1952.57   1
  -2  -7  -7 23025.4 1913.99   1
  -7  -2  -7 23755.0 1973.82   1
   2   7   7 25809.5 2005.97   1
   2  -9   7 22859.0 1932.00   2
   9  -7  -7 23363.1 1887.17   1
  -2  -7  -7 25432.8 2007.95   2
  -9   7   7 25299.1 1961.83   1
   7   2   7 25138.9 1970.09   1
  -7  -2  -6 343106. 8763.40   2
  -2  -7  -6 359637. 8916.00   1
   7  -9   6 387001. 8947.71   1
  -7  -2  -6 368283. 9039.41   1
  -9   7   6 352761. 8759.10   1
   2   7   6 364324. 8952.35   1
   9  -2  -6 377409. 8820.95   1
   2  -9   6 349285. 8813.57   2
   9  -7  -6 353542. 8762.01   1
  -7   9  -6 374001. 8995.52   1
   7  -9   6 348449. 8958.71   2
  -2  -7  -6 349421. 8816.29   2
   7   2   6 352022. 8837.22   1
   7   2   5 222939. 6479.88   1
  -7  -2  -5 234578. 6638.57   2
  -2  -7  -5 220228. 6523.59   1
  -7  -2  -5 230287. 6656.36   1
   2   7   5 235239. 6650.40   1
   9  -2  -5 244498. 6579.41   1
   7  -9   5 227875. 6471.74   1
  -9   2   5 205946. 6164.65   1
   7  -9   5 222488. 6711.22   2
   2  -9   5 225667. 6553.81   2
   9  -7  -5 238212. 6634.11   1
  -7   9  -5 232124. 6576.39   1
  -2  -7  -5 228326. 6595.11   2
  -9   7   5 234648. 6521.09   1
  -7  -2  -4 12943.2 1363.92   2
   7  -9   4 7984.43 1076.24   1
  -2  -7  -4 9041.09 1182.79   1
  -7  -2  -4 10206.1 1240.27   1
   7   2   4 8109.75 1107.32   1
   9  -2  -4 11104.8 1213.86   1
  -9   2   4 9137.41 1126.59   1
   9  -7  -4 11633.8 1272.50   1
   2  -9   4 9269.22 1151.66   2
   7  -9   4 8661.52 1178.26   2
  -9   7   4 10982.4 1227.72   1
  -2  -7  -4 10031.5 1201.54   2
  -7   9  -4 9075.02 1150.58   1
   2   7   4 6927.94 1026.18   1
   7   2   3 336398. 8307.95   1
  -7  -2  -3 350705. 8318.91   2
  -2   9  -3 328378. 7999.48   1
   2  -9   3 301843. 7812.90   1
  -2  -7  -3 334086. 8322.45   1
  -7  -2  -3 325922. 8126.82   1
   2   7   3 312886. 8129.59   1
   9  -2  -3 308016. 7914.83   1
   9  -7  -3 310628. 8041.01   1
  -9   2   3 354424. 8268.38   1
   7  -9   3 324040. 8323.37   2
   2  -9   3 332379. 8234.81   2
  -9   7   3 331042. 8173.95   1
  -2  -7  -3 319575. 8166.25   2
   7  -9   3 320099. 8014.60   1
  -7   9  -3 311031. 8041.52   1
   7   2   2 120419. 4406.62   1
  -7  -2  -2 110758. 4280.16   2
   7  -9   2 119035. 4292.41   1
   2  -9   2 118071. 4281.08   1
  -2   9  -2 120079. 4253.84   1
  -2  -7  -2 119674. 4406.17   1
  -7  -2  -2 124575. 4367.70   1
   2   7   2 114339. 4310.90   1
   9  -2  -2 119821. 4300.07   1
   9  -7  -2 121886. 4321.54   1
   7  -9   2 111723. 4327.74   2
   2  -9   2 125985. 4442.83   2
  -9   7   2 120995. 4403.58   1
  -2  -7  -2 107432. 4207.02   2
  -7   9  -2 115805. 4315.59   1
  -7   9  -1 18516.7 1643.94   1
  -7  -2  -1 23263.1 1826.57   2
   7   2   1 22582.0 1791.35   1
   2  -9   1 22944.3 1752.55   1
  -2   9  -1 19888.1 1651.75   1
   7  -9   1 19900.7 1626.25   1
  -2  -7  -1 23593.7 1772.00   1
   9  -7  -1 17105.1 1538.81   1
   2   7   1 22887.0 1774.72   1
  -7  -2  -1 23553.6 1813.21   1
   9  -2  -1 21178.7 1688.53   1
  -9   2   1 19662.7 1679.15   1
   7  -9   1 20919.7 1762.35   2
   2  -9   1 20867.9 1766.83   2
  -9   7   1 20003.3 1649.56   1
  -2  -7  -1 20826.6 1759.79   2
  -2  -7   0 1334.84 528.709   2
  -7  -2   0 1841.39 470.674   2
  -9   7   0 946.240 440.542   1
  -7   9   0 1167.51 469.328   1
   2  -9   0 1461.83 535.759   1
   7  -9   0 892.821 404.875   1
  -2  -7   0 1384.39 436.334   1
   9  -2   0 688.268 369.549   1
  -2   9   0 449.178 317.083   1
   9  -7   0 1279.15 457.934   1
   7   2   0 1578.03 517.824   1
  -7  -2   0 1612.16 478.082   1
   7  -9   0 1263.27 458.620   2
  -9   2   0 1037.55 505.575   1
   2   7   0 799.103 386.687   1
   2  -9   0 1865.98 567.713   2
  -2  -7   1 1033.91 468.102   2
  -9   7  -1 727.618 434.553   1
  -7  -2   1 930.961 461.707   2
  -7   9   1 1038.50 541.013   1
   2  -9  -1 1185.73 458.048   1
   9  -2   1 399.218 469.200   1
  -2  -7   1 754.472 293.229   1
   9  -7   1 1023.65 552.080   1
  -2   9   1 1206.64 526.271   1
   7   2  -1 778.488 387.459   1
  -7  -2   1 591.277 375.364   1
   2   7  -1 950.979 475.779   1
  -9   2  -1 1126.38 501.236   1
   7  -9  -1 355.453 331.098   1
   7  -9  -1 706.059 352.044   2
   2  -9  -1 1387.33 523.696   2
  -2  -7   2 389104. 9106.85   2
   7   2  -2 448656. 9450.13   1
  -7   9   2 383078. 9100.11   1
   2  -9  -2 380123. 9010.69   1
   9  -7   2 382799. 9037.74   1
  -2   9   2 393762. 9206.38   1
   2   7  -2 359497. 8736.75   1
   9  -2   2 378508. 9068.23   1
  -7  -2   2 436579. 9187.83   1
  -9   2  -2 341575. 8868.11   1
   7  -9  -2 374766. 9008.42   1
  -9   7  -2 377265. 9101.51   1
   2  -9  -2 366802. 9033.35   2
   7  -9  -2 379426. 9155.72   2
  -7  -2   2 367189. 8911.58   2
   7   2  -3 118414. 4249.41   1
  -7   9   3 115906. 4400.58   1
   9  -7   3 118071. 4343.42   1
   2  -9  -3 113780. 4333.61   1
  -2   9   3 120546. 4405.20   1
   9  -2   3 122083. 4417.32   1
  -9   2  -3 121692. 4451.00   1
  -9   7  -3 110213. 4270.95   1
   7  -9  -3 122900. 4518.88   2
   2  -9  -3 117831. 4438.32   2
  -2  -7   3 125912. 4502.74   2
   7  -9  -3 113239. 4326.11   1
  -7   9   4 229641. 6567.65   1
   9  -7   4 222946. 6427.36   1
  -2  -7   4 260549. 6870.42   2
   2  -9  -4 220958. 6511.57   1
   7  -9  -4 239622. 6665.52   1
  -2   9   4 235191. 6653.55   1
   9  -2   4 240433. 6680.18   1
   2  -9  -4 235825. 6694.02   2
  -9   2  -4 231293. 6642.49   1
   7  -9  -4 246890. 6825.49   2
  -9   7  -4 206272. 6288.97   1
   9  -7   5 196038. 5876.40   1
  -7   9   5 189494. 5900.33   1
   2  -9  -5 187118. 5835.69   1
  -2   9   5 190753. 5924.78   1
   9  -2   5 183875. 5842.09   1
  -9   2  -5 197875. 6026.46   1
   7  -9  -5 190488. 5940.97   2
  -9   7  -5 191209. 5862.91   1
  -2  -7   5 187959. 5876.37   2
   2  -9  -5 197293. 6009.40   2
  -7   9   6 393890. 9510.59   1
   7  -9  -6 408480. 9698.95   1
   2  -9  -6 382001. 9525.62   1
  -2   9   6 406443. 9566.67   1
   9  -2   6 399749. 9589.65   1
  -9   2  -6 424806. 9827.92   1
  -9   7  -6 392098. 9571.22   1
   7  -9  -6 408278. 9711.63   2
  -2  -7   6 390462. 9551.40   2
   2  -9  -6 419658. 9748.84   2
   9  -7   6 404342. 9461.59   1
  -7   9   7 96610.3 4012.07   1
   9  -7   7 95700.9 3953.02   1
   7  -9  -7 95812.0 3993.95   1
   7  -9  -7 98155.4 4084.86   2
   2  -9  -7 96171.4 4085.27   1
   9  -2   7 98386.4 4059.93   1
  -2   9   7 101708. 4109.68   1
  -9   2  -7 96248.7 4094.32   1
  -9   7  -7 99310.8 4043.88   1
  -2  -7   7 94893.6 4004.05   2
   2  -9  -7 97651.6 4094.12   2
   2  -9  -8 4663.05 918.702   2
   9  -7   8 6702.88 989.537   1
   9  -2   8 4000.37 861.384   1
  -9   7  -8 5984.43 981.169   1
   7  -9  -8 4330.95 896.215   1
   2  -9  -8 5894.14 933.213   1
  -7   9   8 4598.82 875.857   1
  -2   9   8 5466.65 939.653   1
  -9   2  -8 5413.06 951.619   1
  -7   9   9 91051.4 3891.53   1
   7  -9  -9 80281.9 3753.61   1
   9  -2   9 94858.8 3997.64   1
   2  -9  -9 88941.2 3926.68   1
  -2   9   9 86491.7 3850.88   1
  -9   2  -9 86289.5 3906.37   1
   9  -7   9 82790.5 3755.93   1
  -9   7  -9 88923.5 3939.29   1
   2  -9  -9 89633.4 3944.24   2
  -7   9  10 68964.9 3448.89   1
   7  -9 -10 62259.8 3294.71   1
   9  -2  10 70658.3 3468.22   1
   2  -9 -10 65398.2 3347.87   1
  -2   9  10 69802.1 3429.56   1
  -9   2 -10 69713.0 3472.64   1
   9  -7  10 61618.9 3258.68   1
  -9   7 -10 72630.8 3519.21   1
   2  -9 -10 68174.8 3467.39   2
  -7   9  11 82148.0 3833.83   1
   9  -2  11 81913.1 3790.83   1
   7  -9 -11 75480.2 3708.02   1
   2  -9 -11 79777.3 3767.17   1
  -2   9  11 73364.1 3583.84   1
   9  -7  11 76331.8 3623.16   1
  -9   2 -11 76942.8 3711.37   1
  -9   7 -11 73143.9 3653.78   1
   2  -9 -11 75456.0 3724.83   2
   9  -2  12 18782.6 1734.03   1
  -7   9  12 18439.4 1755.13   1
   7  -9 -12 19463.6 1786.69   1
   2  -9 -12 20924.6 1864.61   1
  -2   9  12 22203.1 1879.03   1
   9  -7  12 17020.2 1673.02   1
  -9   2 -12 18986.2 1831.71   1
  -9   7 -12 19113.3 1846.68   1
   2  -9 -12 17667.1 1789.64   2
   9  -2  13 19924.8 1880.24   1
  -7   9  13 18523.6 1797.78   1
   7  -9 -13 17704.8 1813.81   1
   2  -9 -13 19268.9 1796.72   1
  -2   9  13 20613.4 1874.00   1
  -9   2 -13 20172.6 1876.38   1
  -9   7 -13 18961.8 1856.07   1
   2  -9 -13 16568.4 1838.55   2
   7  -9 -14 147487. 5602.93   1
   2  -9 -14 164040. 5738.16   1
  -2   9  14 170294. 5752.55   1
  -9   2 -14 159219. 5705.90   1
   9  -2  14 165407. 5776.65   1
   7  -9 -15 4898.18 1002.78   1
  -1  -8 -14 128447. 5204.05   2
  -8  -1 -13 11319.3 1443.00   2
  -1  -8 -13 12645.9 1488.58   1
   1   8  13 11639.1 1437.27   1
  -8  -1 -13 14469.1 1532.27   1
   8   1  13 12552.4 1478.28   1
  -1  -8 -13 11461.2 1481.20   2
  -1  -8 -12 2263.80 662.797   2
  -8  -1 -12 3182.89 739.499   2
  -9   8  12 2468.44 689.376   1
  -1  -8 -12 3065.33 754.198   1
   8   1  12 1802.24 629.057   1
  -8  -1 -12 2360.94 646.606   1
   1   8  12 3483.80 834.781   1
   9  -8 -12 2769.78 753.119   1
  -9   8  11 69707.4 3605.83   1
  -8  -1 -11 89269.4 4003.35   2
   9  -8 -11 79316.6 3799.92   1
  -1  -8 -11 77608.6 3716.51   1
   1   8  11 78456.5 3708.24   1
  -8  -1 -11 77613.5 3732.16   1
  -1  -8 -11 75194.3 3732.11   2
   8   1  11 77586.7 3644.54   1
  -9   8  10 147139. 5295.10   1
  -8  -1 -10 151437. 5370.86   2
   9  -8 -10 148156. 5405.84   1
  -1  -8 -10 145932. 5322.21   1
   1   8  10 169040. 5530.04   1
  -8  -1 -10 135379. 5240.63   1
   1  -9  10 149130. 5553.91   2
  -8   9 -10 154473. 5568.72   1
  -1  -8 -10 156733. 5463.32   2
   8   1  10 156236. 5430.00   1
  -9   8   9 103165. 4339.62   1
  -8  -1  -9 121413. 4671.35   2
   9  -8  -9 115477. 4570.74   1
  -1  -8  -9 117580. 4638.90   1
   1   8   9 116438. 4580.96   1
  -8  -1  -9 112582. 4566.51   1
   1  -9   9 122485. 4845.73   2
  -8   9  -9 113704. 4608.50   1
  -1  -8  -9 116564. 4660.42   2
   8  -9   9 116014. 4583.70   1
   8   1   9 128971. 4770.07   1
   8   1   8 118623. 4521.61   1
   8  -9   8 113118. 4478.55   1
  -8  -1  -8 111737. 4477.29   2
   9  -8  -8 126715. 4759.08   1
  -1  -8  -8 115175. 4547.97   1
   1   8   8 110491. 4467.06   1
  -8  -1  -8 104082. 4394.04   1
   1  -9   8 102630. 4439.00   2
  -8   9  -8 114706. 4515.99   1
  -1  -8  -8 116413. 4561.20   2
  -9   8   8 122513. 4577.79   1
   8   1   7 14217.0 1505.69   1
  -8  -1  -7 15010.7 1522.38   2
   9  -8  -7 16706.1 1613.36   1
   8  -9   7 17263.7 1576.90   1
  -1  -8  -7 15892.1 1583.72   1
   1   8   7 15377.0 1585.08   1
  -8  -1  -7 14173.4 1492.37   1
   1  -9   7 13693.3 1494.76   2
  -8   9  -7 15416.1 1567.27   1
  -1  -8  -7 15175.0 1518.58   2
  -9   8   7 17554.0 1637.65   1
   8   1   6 194489. 6099.84   1
  -8  -1  -6 185036. 6083.19   2
   9  -8  -6 209355. 6303.85   1
   8  -9   6 207064. 6245.13   1
  -1  -8  -6 203868. 6248.32   1
   1   8   6 214305. 6322.15   1
  -8  -1  -6 210804. 6294.13   1
  -8   9  -6 203183. 6253.72   1
   1  -9   6 199057. 6215.09   2
  -1  -8  -6 207051. 6252.45   2
  -9   8   6 193422. 6065.48   1
   9  -8  -5 43858.5 2615.14   1
  -8  -1  -5 43738.6 2639.12   2
   8   1   5 44966.3 2639.10   1
  -1  -8  -5 43446.7 2647.27   1
   8  -9   5 44740.9 2589.16   1
   1   8   5 43710.7 2672.44   1
  -8  -1  -5 43403.0 2606.82   1
   1  -9   5 48391.4 2730.76   2
  -8   9  -5 47873.9 2715.49   1
  -1  -8  -5 42220.7 2636.05   2
  -9   8   5 43974.8 2619.49   1
  -1  -8  -4 794.940 489.073   2
  -8  -1  -4 525.101 471.077   2
  -8   9  -4-32.7180 296.157   1
  -9   8   4 523.431 395.941   1
   9  -1  -4 34.9878 331.568   1
   9  -8  -4 1431.31 519.754   1
  -1  -8  -4 137.561 306.191   1
   8   1   4-28.6938 372.991   1
  -8  -1  -4-457.590 441.224   1
   8  -9   4 63.5202 362.856   1
   1   8   4 1018.45 477.687   1
  -9   1   4 301.297 291.595   1
   1  -9   4 867.078 445.900   2
  -8  -1  -3 162953. 5356.29   2
   8   1   3 149485. 5161.37   1
  -1  -8  -3 155584. 5249.17   1
   9  -1  -3 154389. 5109.63   1
   1   8   3 147346. 5166.73   1
  -8  -1  -3 143739. 5087.79   1
  -9   1   3 153104. 5144.67   1
   8  -9   3 157977. 5182.84   1
   8  -9   3 155456. 5342.50   2
   1  -9   3 161366. 5290.94   2
   9  -8  -3 157066. 5193.61   1
  -1  -8  -3 153053. 5168.27   2
  -8   9  -3 156685. 5208.65   1
  -9   8   3 151952. 5196.74   1
  -8  -1  -2 234436. 6732.77   2
   8   1   2 237984. 6679.05   1
   1  -9   2 234199. 6527.30   1
  -1   9  -2 231341. 6488.82   1
  -1  -8  -2 237060. 6673.76   1
   9  -1  -2 246845. 6717.01   1
   1   8   2 236820. 6688.46   1
  -8  -1  -2 218232. 6483.23   1
  -9   1   2 222301. 6557.13   1
   9  -8  -2 213972. 6375.05   1
   8  -9   2 224650. 6724.32   2
   8  -9   2 225755. 6497.41   1
   1  -9   2 219495. 6533.72   2
  -1  -8  -2 212189. 6416.54   2
  -9   8   2 222656. 6422.51   1
  -8   9  -2 230912. 6592.41   1
  -8  -1  -1 126740. 4605.92   2
   8   1   1 131201. 4637.48   1
   1  -9   1 120324. 4388.35   1
  -1  -8  -1 120428. 4459.79   1
  -1   9  -1 121446. 4450.53   1
   9  -1  -1 128464. 4582.55   1
   1   8   1 121187. 4501.04   1
  -8  -1  -1 118088. 4496.95   1
  -9   1   1 129003. 4588.43   1
   9  -8  -1 114091. 4330.69   1
   8  -9   1 119580. 4587.75   2
   1  -9   1 112875. 4379.64   2
  -1  -8  -1 117495. 4395.69   2
   8  -9   1 116124. 4348.05   1
  -9   8   1 119970. 4442.42   1
  -8   9  -1 117877. 4431.23   1
  -8  -1   0 20409.6 1713.29   2
   8  -9   0 23888.5 1870.47   1
  -9   1   0 18538.0 1705.26   2
   8   1   0 21916.7 1811.54   1
   1  -9   0 19071.2 1664.54   1
  -1  -8   0 22453.0 1786.52   1
  -1   9   0 19693.6 1724.19   1
  -1  -8   0 19198.6 1718.03   2
   9  -1   0 24266.0 1884.17   1
   1   8   0 21386.1 1763.11   1
  -8  -1   0 22832.5 1854.46   1
   9  -8   0 18625.5 1658.36   1
  -9   1   0 22958.5 1850.24   1
   8  -9   0 20080.7 1787.05   2
   1  -9   0 21527.5 1828.93   2
  -9   8   0 22708.6 1790.55   1
  -8   9   0 22519.6 1822.07   1
  -9   1  -1 90145.9 3888.96   2
   8   1  -1 94358.5 3851.31   1
   8  -9  -1 89494.1 3763.76   1
   1  -9  -1 91953.9 3799.24   1
  -1  -8   1 85231.7 3639.97   1
  -1   9   1 90093.1 3767.41   1
   9  -1   1 85799.7 3723.40   1
   1   8  -1 87746.9 3719.86   1
   9  -8   1 88404.8 3633.79   1
  -8  -1   1 87919.3 3732.84   1
  -9   1  -1 77455.0 3567.27   1
   8  -9  -1 89893.6 3862.89   2
   1  -9  -1 92704.5 3833.67   2
  -1  -8   1 85194.3 3679.99   2
  -9   8  -1 86170.0 3709.99   1
  -8   9   1 89563.3 3800.09   1
  -8   9   2 352355. 8767.15   1
  -9   1  -2 413111. 9486.10   2
   8   1  -2 395009. 9048.39   1
   1  -9  -2 361096. 8872.30   1
   8  -9  -2 355730. 8754.47   1
  -1   9   2 321880. 8617.09   1
   9  -1   2 345968. 8772.26   1
   9  -8   2 336341. 8575.99   1
  -8  -1   2 369398. 8836.42   1
  -9   1  -2 397404. 9126.46   1
  -1  -8   2 364620. 8898.82   2
   1  -9  -2 373989. 8959.29   2
  -9   8  -2 358127. 8815.42   1
   8  -9  -2 339906. 8831.18   2
  -8   9   3 56487.0 2975.86   1
  -9   1  -3 61643.9 3134.47   2
   8   1  -3 59209.6 2948.74   1
   1  -9  -3 58656.1 3004.13   1
   9  -8   3 51042.3 2810.44   1
   9  -1   3 60641.4 3037.07   1
  -1   9   3 56550.4 3002.25   1
   8  -9  -3 55922.0 2941.33   1
  -9   1  -3 48151.3 2771.83   1
   8  -9  -3 53751.3 2923.59   2
   1  -9  -3 52107.4 2868.71   2
  -1  -8   3 50163.4 2830.39   2
  -9   8  -3 53984.3 2870.46   1
  -8   9   4 95272.6 3962.19   1
   8  -9  -4 101186. 4111.54   2
  -9   1  -4 90177.6 3940.17   2
   9  -8   4 94101.7 3891.30   1
   1  -9  -4 95394.0 4009.15   1
   9  -1   4 90590.4 3891.33   1
  -1   9   4 93938.6 3935.87   1
   8  -9  -4 99934.6 3999.71   1
  -9   1  -4 90602.5 3956.76   1
  -1  -8   4 97876.9 4026.00   2
  -9   8  -4 87693.1 3824.50   1
   1  -9  -4 91449.8 3866.66   2
  -8   9   5 60061.6 3106.01   1
  -9   1  -5 62174.3 3210.44   2
  -9   8  -5 64083.3 3118.76   1
   9  -8   5 59990.9 3056.05   1
   9  -1   5 69113.7 3314.09   1
   1  -9  -5 61430.1 3202.79   1
  -1   9   5 61574.8 3134.63   1
  -9   1  -5 65911.5 3266.66   1
   8  -9  -5 58109.0 3098.76   1
   8  -9  -5 62607.7 3198.94   2
  -1  -8   5 66987.5 3306.23   2
   1  -9  -5 63491.4 3210.28   2
   9  -8   6 131276. 4786.97   1
  -8   9   6 148278. 5102.07   1
  -9   1  -6 136774. 5042.88   2
   9  -1   6 141151. 5032.13   1
   1  -9  -6 144743. 5161.03   1
  -1   9   6 144840. 5102.51   1
  -9   1  -6 159896. 5371.11   1
   1  -9  -6 146905. 5155.34   2
   8  -9  -6 148664. 5077.92   1
  -9   8  -6 133087. 4857.50   1
  -1  -8   6 140265. 5085.57   2
  -8   9   7 127138. 4747.45   1
  -9   1  -7 125058. 4744.38   2
   9  -8   7 121398. 4609.68   1
   9  -1   7 121944. 4636.06   1
   1  -9  -7 130882. 4817.82   1
  -1   9   7 114007. 4585.71   1
   1  -9  -7 127448. 4713.98   2
  -9   1  -7 135718. 4894.22   1
  -9   8  -7 125353. 4743.12   1
  -1  -8   7 121386. 4692.08   2
   8  -9  -7 128509. 4741.81   1
  -9   8  -8 3517.28 791.310   1
   1  -9  -8 4150.49 860.945   2
  -9   1  -8 2185.82 605.943   2
   9  -8   8 3417.56 757.098   1
  -8   9   8 3676.04 750.319   1
   1  -9  -8 2522.25 709.885   1
  -1   9   8 3220.42 780.832   1
   8  -9  -8 3641.03 825.551   1
   9  -1   8 2786.60 753.593   1
  -9   1  -8 2816.54 739.893   1
   8  -9  -9 47492.6 2795.80   1
  -8   9   9 45723.6 2776.24   1
  -9   1  -9 41297.4 2633.12   2
   9  -1   9 49781.8 2877.68   1
   1  -9  -9 44237.9 2742.34   1
  -1   9   9 47206.1 2813.54   1
  -9   1  -9 43640.5 2675.70   1
  -9   8  -9 43729.0 2737.11   1
   9  -8   9 46594.3 2782.70   1
   1  -9  -9 45260.4 2791.61   2
  -8   9  10 203889. 6384.08   1
   8  -9 -10 192503. 6221.08   1
   9  -1  10 194550. 6183.60   1
  -9   1 -10 189347. 6219.99   2
   1  -9 -10 203403. 6372.70   1
  -1   9  10 202319. 6272.52   1
  -9   1 -10 195758. 6260.64   1
   9  -8  10 177201. 6039.73   1
  -9   8 -10 178822. 6156.41   1
   1  -9 -10 190661. 6239.71   2
  -8   9  11 13895.6 1500.56   1
   9  -1  11 12812.4 1456.23   1
  -9   1 -11 12257.7 1450.90   2
   8  -9 -11 13313.5 1537.19   1
   1  -9 -11 13186.0 1480.81   1
  -1   9  11 12627.8 1486.23   1
  -9   1 -11 14257.2 1559.32   1
   9  -8  11 13040.9 1495.50   1
  -9   8 -11 12523.2 1482.41   1
   1  -9 -11 12734.4 1532.80   2
   1  -9 -12 9117.32 1282.42   2
  -9   1 -12 7756.13 1159.85   2
   8  -9 -12 8647.47 1255.89   1
  -8   9  12 7922.83 1217.26   1
   1  -9 -12 6216.88 1084.58   1
   9  -1  12 7745.20 1183.32   1
  -9   1 -12 7737.36 1194.47   1
  -1   9  12 7282.15 1141.88   1
  -9   8 -12 6777.79 1109.76   1
   9  -1  13 88107.3 4062.20   1
  -8   9  13 77513.3 3848.46   1
  -9   1 -13 83699.3 3927.25   2
   8  -9 -13 81206.7 4018.79   1
   1  -9 -13 79665.9 3851.23   1
  -1   9  13 95232.8 4157.61   1
  -9   1 -13 87746.9 4005.62   1
   1  -9 -13 72690.3 3860.50   2
   8  -9 -14 91097.6 4337.25   1
   1  -9 -14 89635.0 4335.89   2
  -9   0  -1 732.084 535.271   2
   9  -9  -1 735.195 424.839   1
  -9   9  -1 704.814 430.124   1
  -9   9   1 635.932 404.662   1
   0  -9   1 388.311 296.874   1
   0  -9  -1 93.6115 294.510   1
  -9   0  -1 105.146 301.675   1
   0   9  -1 290.824 261.995   1
   0   9   1 1033.16 480.928   1
  -9   0   1 124.374 349.016   1
   9  -9   1 448.164 495.386   1
   9   0   1-139.767 316.182   1
   9   0  -1 225.690 378.283   1
   0  -9   1 489.485 397.079   2
   0  -9  -1-56.4350 439.016   2
   0  -9  -2 2512.91 656.979   2
  -9   0  -2 2095.95 694.743   1
  -9   0  -2 3122.54 750.828   2
  -9   9  -2 2946.56 780.406   1
  -9   9   2 2361.63 597.028   1
   9  -9  -2 1683.67 578.602   1
   0  -9  -2 2429.52 713.125   1
   0   9   2 1218.42 433.058   1
  -9   0   2 2792.55 666.119   1
   9  -9   2 2602.70 634.391   1
   9   0   2 2109.35 648.961   1
   0  -9   2 2060.66 618.348   2
   9   0  -2 3120.93 702.851   1
   9   0  -3 1458.73 533.783   1
   0  -9  -3 767.845 512.026   2
  -9   0  -3 1118.31 357.332   2
  -9   9  -3 656.614 347.091   1
  -9   9   3 416.564 332.954   1
   0  -9  -3 1127.97 496.413   1
   9  -9  -3 610.804 398.339   1
   9  -9   3 706.869 470.253   1
   0   9   3 970.205 472.975   1
  -9   0  -3 1304.76 586.545   1
   9  -9  -3 1388.64 544.960   2
   9   0   3 1260.73 535.361   1
   0  -9   3 1202.26 566.053   2
  -9   0  -4 72699.6 3581.71   2
   9  -9  -4 63604.6 3228.32   1
   9   0   4 66731.8 3351.43   1
   0  -9  -4 65291.7 3325.66   1
   9  -9   4 64208.5 3206.80   1
   0   9   4 66871.8 3360.20   1
   9  -9  -4 64161.5 3433.03   2
  -9   0  -4 70436.0 3445.75   1
   0  -9   4 69329.3 3426.05   2
  -9   9  -4 61370.7 3187.81   1
   0  -9  -4 65162.0 3293.83   2
  -9   9   4 76295.6 3444.54   1
   0   9   5 945.872 504.456   1
   0  -9  -5-73.9966 430.397   2
  -9   9  -5 48.2880 350.012   1
  -9   0  -5 773.904 485.293   2
  -9   9   5 980.932 404.385   1
   9  -9   5 841.061 458.003   1
   0  -9  -5-242.968 415.964   1
  -9   0  -5 637.247 440.106   1
   9  -9  -5 289.738 249.376   1
   9   0   5-82.2253 448.869   1
   0  -9   5 489.970 358.950   2
   0  -9  -6 1911.25 621.634   2
  -9   9  -6 1618.14 528.643   1
   9  -9   6 1632.37 519.869   1
  -9   0  -6 2410.81 717.513   2
  -9   9   6 1967.76 552.901   1
   0  -9  -6 2125.07 645.278   1
  -9   0  -6 3049.33 804.554   1
   9   0   6 2292.46 658.044   1
   0   9   6 1990.91 563.632   1
   0  -9   6 2741.18 772.302   2
   9  -9  -6 2279.67 680.392   1
   0  -9  -7 1788.86 606.945   2
  -9   9  -7 937.628 343.363   1
   9  -9  -7 1352.64 509.734   1
  -9   0  -7 1281.64 568.473   2
  -9   9   7 1094.82 518.423   1
   0  -9  -7 1319.60 582.922   1
   9  -9   7 1467.72 630.305   1
   0   9   7 636.311 396.699   1
   9   0   7 332.102 304.870   1
  -9   0  -7 875.728 470.542   1
   0  -9   7 1140.95 545.637   2
  -9   9   8 225987. 6971.27   1
   9   0   8 255670. 7327.73   1
  -9   0  -8 264825. 7512.83   2
   0  -9  -8 259334. 7389.24   1
   9  -9  -8 263174. 7416.37   1
   0   9   8 259029. 7332.23   1
  -9   0  -8 269684. 7458.17   1
   0  -9  -8 245468. 7304.07   2
  -9   9  -8 239506. 7210.60   1
   0  -9   8 242068. 7359.66   2
   9  -9   8 242120. 7134.18   1
  -9   9  -9 537.183 431.780   1
   0  -9  -9 490.323 402.872   2
  -9   0  -9 741.270 583.603   2
   9  -9   9 577.950 373.787   1
  -9   9   9 370.313 434.426   1
   9  -9  -9 296.894 399.561   1
   0  -9  -9 1639.95 639.200   1
   9   0   9 928.204 464.467   1
  -9   0  -9 1170.93 624.917   1
   0   9   9 1049.28 528.809   1
   9  -9  10 2235.20 611.433   1
  -9   0 -10 2657.78 846.160   2
  -9   9  10 1648.05 580.015   1
   0  -9 -10 999.982 306.248   1
   9  -9 -10 2644.42 702.150   1
   9   0  10 3523.82 795.417   1
  -9   0 -10 2230.15 639.968   1
   0  -9 -10 1454.58 497.344   2
   0   9  10 2709.08 733.660   1
  -9   9 -10 2222.92 661.376   1
   0  -9 -11 441.648 458.410   2
  -9   0 -11 108.118 426.272   2
  -9   9  11 111.807 284.244   1
   0  -9 -11-401.451 343.274   1
   9  -9 -11 160.525 330.556   1
   9   0  11-52.3871 409.377   1
  -9   0 -11-90.0740 427.859   1
   0   9  11-204.344 314.788   1
  -9   9  12 321238. 9033.93   1
  -9   0 -12 332620. 8951.26   2
   0  -9 -12 334173. 8882.05   1
   0   9  12 341646. 8901.58   1
   9  -9 -12 308044. 8817.09   1
  -9   0 -12 331509. 8915.95   1
   0  -9 -12 353283. 9267.86   2
   9   0  12 371538. 9185.16   1
   0  -9 -13 1114.66 624.396   2
   9  -9 -13-38.0220 321.526   1
  -5  -5 -13 626.393 551.276   2
  -5  -5 -13 56.0650 452.541   1
  -5  -5 -12 707352. 15058.7   2
  -5  -5 -12 726951. 15016.3   1
   5   5  12 744981. 15005.6   1
  -5  -5 -11 475.311 413.329   2
   5   5  11 229.257 333.510   1
  -5  -5 -11-218.106 391.657   1
  -5  -5 -10 26834.6 2194.72   2
  -5  -5 -10 28449.1 2204.48   1
   5   5  10 29691.4 2209.43   1
   5 -10  10 33752.5 2421.41   2
  -5  -5  -9 346.374 302.859   2
   5   5   9 193.351 342.004   1
  -5  -5  -9-181.512 450.686   1
   5 -10   9-154.725 348.989   2
  -5  -5  -8 95451.0 4142.27   2
  10  -5  -8 100146. 4166.09   1
  -5  -5  -8 102599. 4245.48   1
   5   5   8 105269. 4226.40   1
   5 -10   8 95764.9 4145.96   2
 -10   5   7-96.1561 293.026   1
  10  -5  -7 52.2256 353.556   1
  -5  -5  -7 263.433 455.170   2
   5   5   7 17.7013 269.818   1
  -5  -5  -7 90.3589 248.844   1
   5 -10   7 170.056 371.882   2
  10  -5  -6 16112.1 1562.34   1
  -5  -5  -6 16921.0 1637.47   1
   5   5   6 19816.8 1711.60   1
   5 -10   6 19201.9 1740.73   2
 -10   5   6 16786.3 1585.77   1
  -5  -5  -6 19951.6 1765.57   2
 -10   5   5-240.930 440.604   1
  -5  -5  -5 562.440 381.207   2
   5   5   5 17.3125 287.053   1
  -5  10  -5 29.5802 343.552   1
  -5  -5  -5 12.5963 430.899   1
  10  -5  -5 106.754 343.043   1
   5 -10   5-100.984 296.145   2
   5 -10   5 77.7091 298.482   1
  -5  10  -4 272631. 7283.84   1
  10  -5  -4 259699. 7068.05   1
  -5  -5  -4 254708. 7171.61   1
   5 -10   4 274988. 7200.78   1
   5   5   4 258293. 7143.93   1
 -10   5   4 237771. 6899.01   1
   5 -10   4 257856. 7136.43   2
  -5  -5  -4 243893. 6976.23   2
 -10   5   3-366.083 416.115   1
  -5  -5  -3 1038.65 559.757   2
   5 -10   3-157.351 371.776   1
   5   5   3-170.721 293.903   1
  -5  10  -3 101.406 302.601   1
  -5  -5  -3-47.3587 453.889   1
  10  -5  -3 613.039 437.208   1
   5 -10   3-652.866 562.480   2
  -5  10  -2 42001.5 2480.69   1
   5 -10   2 40776.6 2519.91   2
   5 -10   2 44070.1 2554.64   1
  -5  -5  -2 44746.0 2602.40   1
   5   5   2 41879.7 2521.69   1
 -10   5   2 39936.1 2433.56   1
  -5  -5  -2 39781.9 2507.94   2
  10  -5  -2 38965.8 2412.23   1
 -10   5   1 584.846 493.608   1
  -5  -5  -1 16.2573 327.653   2
   5   5   1 150.158 258.790   1
   5 -10   1 7.02916 288.616   1
  -5  10  -1 165.713 295.099   1
  10  -5  -1 110.186 288.043   1
  -5  -5  -1 503.397 466.150   1
   5 -10   1 4.28230 426.217   2
  -5  -5   1 220.039 300.967   2
  10  -5   1-226.745 311.120   1
   5   5  -1-35.1153 255.514   1
   5 -10  -1-165.649 258.424   1
  -5  10   1-479.990 388.381   1
   5 -10  -1 494.884 340.537   2
 -10   5  -1 31.5643 261.225   1
  -5  10   2 22796.2 1873.04   1
   5 -10  -2 21065.6 1791.48   1
 -10   5  -2 23071.2 1839.37   1
  10  -5   2 23390.6 1871.23   1
   5 -10  -2 21692.8 1845.03   2
  -5  -5   2 28450.7 2082.74   2
  -5  -5   3-342.425 291.920   2
   5 -10  -3-257.878 348.345   1
  -5  10   3 109.459 342.339   1
   5 -10  -3 358.242 439.852   2
  10  -5   3 487.410 421.023   1
 -10   5  -3-479.356 454.310   1
  -5  10   4 276349. 7592.91   1
   5 -10  -4 287545. 7661.03   1
  10  -5   4 304618. 7764.09   1
 -10   5  -4 284309. 7710.08   1
   5 -10  -4 278342. 7691.68   2
   5 -10  -5 71.2490 433.954   1
  -5  10   5-251.019 356.791   1
  10  -5   5-102.808 321.127   1
   5 -10  -5 443.602 396.289   2
 -10   5  -5 172.088 253.437   1
   5 -10  -6 52370.4 2882.54   1
  -5  10   6 49113.9 2786.22   1
   5 -10  -6 50517.5 2896.27   2
  10  -5   6 49879.6 2769.21   1
 -10   5  -6 44023.7 2644.64   1
   5 -10  -7-448.829 548.247   1
  -5  10   7 137.541 338.976   1
  10  -5   7 434.677 407.069   1
 -10   5  -7-580.148 454.143   1
   5 -10  -7 266.631 389.519   2
   5 -10  -8 71137.8 3431.11   1
  -5  10   8 64186.4 3209.86   1
  10  -5   8 66064.5 3302.67   1
 -10   5  -8 71904.6 3480.79   1
   5 -10  -8 65516.0 3474.65   2
   5 -10  -9 182.765 401.437   1
  10  -5   9-352.150 392.443   1
  -5  10   9-437.893 415.321   1
 -10   5  -9-283.100 376.170   1
   5 -10  -9-71.7836 350.910   2
   5 -10 -10 21214.0 1908.61   1
  -5  10  10 23844.2 1980.54   1
  10  -5  10 21728.1 1876.20   1
 -10   5 -10 20214.0 1882.57   1
   5 -10 -10 22440.0 2004.80   2
  10  -5  11-64.5217 338.611   1
   5 -10 -11 606.330 518.578   1
  -5  10  11 41.0651 317.114   1
 -10   5 -11-306.694 361.246   1
   5 -10 -12 963941. 18987.6   1
 -10   5 -12 984137. 19192.1   1
  10  -5  13 14.8572 281.315   1
   5 -10 -13 121.114 428.036   1
  -5  10  13 145.303 291.598   1
 -10   5 -13 5.34577 307.719   1
 -10   5 -14 6791.21 1117.22   1
  10  -5  14 7409.47 1216.04   1
  -4  -6 -13 10057.4 1375.58   2
  -6  -4 -12 22164.2 1961.84   2
  -4  -6 -12 21338.4 1871.63   1
  -6  -4 -12 21800.8 1919.19   1
   4   6  12 25341.5 2008.68   1
   6   4  12 25111.4 2051.47   1
  -4  -6 -12 20482.6 1884.88   2
  -6  -4 -11 163176. 5725.13   2
  -4  -6 -11 156747. 5559.27   1
  -6  -4 -11 169206. 5736.49   1
   4   6  11 167287. 5602.64   1
   6   4  11 177600. 5779.69   1
  -4  -6 -11 171807. 5867.06   2
  -6  -4 -10 182703. 5903.60   2
  -4  -6 -10 171677. 5759.78   1
  -6  -4 -10 166707. 5631.62   1
   4   6  10 174109. 5756.80   1
   6   4  10 158799. 5580.88   1
  -4  -6 -10 175682. 5789.81   2
  -6  -4  -9 134284. 4968.82   2
  -4  -6  -9 125783. 4781.84   1
  10  -6  -9 138377. 5016.65   1
  -6  -4  -9 130502. 4863.14   1
   4   6   9 123374. 4772.46   1
   6 -10   9 120416. 4875.84   2
   4 -10   9 127537. 4924.84   2
   6   4   9 124698. 4771.20   1
 -10   6   9 126085. 4882.38   1
  -4  -6  -9 128537. 4813.43   2
  -6  -4  -8 24192.9 1973.96   2
  10  -6  -8 22320.0 1857.69   1
  -4  -6  -8 21978.6 1884.29   1
  -6  -4  -8 23462.8 1903.54   1
 -10   6   8 23612.5 1956.32   1
   4   6   8 25068.7 1970.35   1
   6 -10   8 19299.1 1871.91   2
   4 -10   8 20573.6 1885.37   2
   6   4   8 21708.7 1848.69   1
  -4  -6  -8 22282.3 1890.60   2
  -4  -6  -7 9346.73 1225.46   2
   4   6   7 7827.05 1116.77   1
 -10   6   7 6656.64 1032.09   1
  -6  -4  -7 6403.13 1017.90   2
   6   4   7 7740.85 1106.40   1
  10  -6  -7 9356.15 1168.86   1
  -4  -6  -7 7244.22 1079.69   1
  -6  -4  -7 6911.83 1091.26   1
   6 -10   7 6683.64 1090.50   2
   4 -10   7 7655.42 1124.87   2
  10  -4  -7 7953.01 1123.38   1
  -6  -4  -6 114853. 4468.49   2
 -10   4   6 120261. 4525.45   1
  10  -6  -6 116254. 4397.28   1
  -4  -6  -6 103125. 4237.08   1
  -6  -4  -6 103026. 4242.45   1
   4   6   6 103772. 4263.39   1
   6 -10   6 108795. 4409.72   2
   6 -10   6 117098. 4434.56   1
   4 -10   6 100636. 4211.35   2
   6   4   6 103725. 4248.31   1
 -10   6   6 106359. 4228.90   1
  10  -4  -6 103554. 4149.33   1
  -6  10  -6 106544. 4316.50   1
  -4  -6  -6 109900. 4337.48   2
  -6  -4  -5 23150.8 1932.39   2
  10  -6  -5 25529.7 1952.64   1
  -4  -6  -5 25544.4 1982.84   1
  -6  -4  -5 26104.7 2040.25   1
   4   6   5 22700.6 1882.17   1
   6 -10   5 23799.4 1930.37   2
 -10   4   5 23483.9 1911.26   1
   4 -10   5 25552.4 2004.07   2
   6   4   5 23693.6 1906.42   1
 -10   6   5 24756.5 1929.17   1
  10  -4  -5 24137.2 1872.53   1
  -4  -6  -5 24422.3 1981.86   2
  -6  10  -5 25461.1 1940.44   1
   6 -10   5 25647.4 1986.45   1
 -10   4   4 3493.28 796.062   1
  -4  -6  -4 3713.92 793.562   2
 -10   6   4 3940.89 773.292   1
   4   6   4 3475.90 750.294   1
  -6  -4  -4 4156.52 876.907   2
  10  -4  -4 4679.03 824.897   1
  -6  10  -4 3577.56 801.189   1
   6   4   4 3490.27 696.140   1
  -4  10  -4 5140.03 890.938   1
  10  -6  -4 4881.19 843.320   1
  -4  -6  -4 4927.16 884.903   1
  -6  -4  -4 4132.33 832.012   1
   4 -10   4 5194.44 892.060   1
   6 -10   4 4102.51 782.049   1
   6 -10   4 3353.87 825.837   2
   4 -10   4 3631.95 786.864   2
  -6  10  -3 58115.4 3004.14   1
  -4  10  -3 59346.6 3029.20   1
  10  -6  -3 52837.0 2829.59   1
 -10   6   3 61127.0 3076.06   1
   6 -10   3 59263.6 3048.87   1
  -4  -6  -3 58773.3 3023.74   1
  10  -4  -3 56709.4 2942.06   1
  -6  -4  -3 60417.3 3106.79   1
   4   6   3 57911.7 2983.76   1
 -10   4   3 55182.7 2938.16   1
   6 -10   3 53964.4 2924.05   2
   4 -10   3 59358.7 3024.68   2
   6   4   3 62387.6 3120.94   1
  -4  -6  -3 52617.2 2894.15   2
  -6  -4  -3 55194.9 3015.36   2
  -6  10  -2 334533. 8507.85   1
  -4  10  -2 349087. 8622.35   1
  10  -6  -2 356805. 8622.40   1
   4 -10   2 313290. 8326.08   1
  -4  -6  -2 358910. 8704.06   1
  -6  -4  -2 344664. 8628.51   1
   6 -10   2 335474. 8457.84   1
   4   6   2 350872. 8647.11   1
 -10   4   2 403479. 9077.66   1
   6 -10   2 322126. 8590.23   2
  10  -4  -2 327463. 8375.26   1
   4 -10   2 333529. 8562.84   2
   6   4   2 357515. 8713.26   1
 -10   6   2 378801. 8736.80   1
  -4  -6  -2 310401. 8339.70   2
  -6  -4  -2 351668. 8753.37   2
  -6  10  -1 75593.6 3495.28   1
  10  -6  -1 80365.0 3505.51   1
  -4  10  -1 79323.6 3555.64   1
   4 -10   1 72608.5 3394.30   1
  -4  -6  -1 82354.1 3533.09   1
  -6  -4  -1 78172.6 3527.11   1
   4   6   1 73210.0 3391.21   1
  10  -4  -1 72797.7 3411.67   1
 -10   4   1 86170.6 3656.24   1
   6 -10   1 68564.9 3460.71   2
   4 -10   1 73126.0 3465.15   2
 -10   6   1 87933.6 3668.96   1
   6   4   1 77051.2 3469.80   1
   6 -10   1 73110.0 3366.02   1
  -4  -6  -1 78672.9 3531.94   2
  -6  -4  -1 71295.8 3398.37   2
  10  -6   0 64074.5 3157.94   1
  -6  10   0 65946.4 3210.69   1
  -4  10   0 70657.3 3362.54   1
   4 -10   0 69435.2 3338.35   1
   6 -10   0 71424.4 3334.03   1
  -4  -6   0 72855.7 3335.68   1
  -6  -4   0 71380.6 3323.80   1
   4   6   0 69737.6 3303.77   1
  10  -4   0 69554.6 3293.26   1
   6 -10   0 69614.1 3366.75   2
   4 -10   0 73378.6 3382.87   2
 -10   6   0 73215.8 3316.17   1
 -10   4   0 73907.3 3393.51   1
   6   4   0 73384.0 3309.62   1
  -4  -6   0 71076.8 3333.30   2
  -6  -4   0 74393.8 3444.13   2
  10  -6   1 156161. 5157.59   1
  -6  10   1 153269. 5198.22   1
  -4  10   1 155664. 5199.22   1
   4 -10  -1 157723. 5224.18   1
   4 -10  -1 154829. 5189.72   2
  -6  -4   1 165014. 5237.40   1
   4   6  -1 141620. 5016.53   1
  10  -4   1 168657. 5354.33   1
 -10   4  -1 158027. 5263.54   1
   6 -10  -1 160000. 5358.79   2
 -10   6  -1 143111. 5096.19   1
   6   4  -1 154212. 5140.34   1
  -4  -6   1 163356. 5329.95   2
  -6  -4   1 163259. 5381.74   2
  -6  10   2 358375. 9001.44   1
   6 -10  -2 375558. 9063.47   1
  -4  10   2 379570. 9093.08   1
   4 -10  -2 374697. 9067.18   1
  10  -4   2 362973. 8933.53   1
 -10   4  -2 373041. 9055.07   1
 -10   6  -2 352265. 8997.57   1
   6 -10  -2 373688. 9217.25   2
   4 -10  -2 365583. 9079.12   2
  -4  -6   2 372335. 9145.41   2
  10  -6   2 368987. 8991.06   1
  -6  10   3 82002.8 3603.22   1
   4 -10  -3 78527.8 3604.17   2
   6 -10  -3 75327.9 3499.52   1
   4 -10  -3 74854.4 3515.39   1
  -4  10   3 80679.7 3541.22   1
  10  -4   3 82650.8 3567.42   1
 -10   4  -3 86266.4 3705.28   1
 -10   6  -3 68476.4 3408.38   1
   6 -10  -3 74613.3 3534.49   2
  10  -6   3 69341.4 3308.86   1
  -4  -6   3 80336.2 3643.53   2
  -6  10   4 10101.1 1274.68   1
   6 -10  -4 10042.1 1243.59   1
   4 -10  -4 12188.4 1352.90   1
  -4  10   4 10572.1 1307.78   1
  10  -4   4 10232.8 1252.60   1
 -10   4  -4 12769.6 1379.20   1
 -10   6  -4 11934.8 1301.63   1
   6 -10  -4 9963.45 1280.59   2
  10  -6   4 10352.2 1201.88   1
   4 -10  -4 11365.8 1386.23   2
  -4  -6   4 10008.3 1242.04   2
  -6  10   5 46749.1 2761.52   1
   6 -10  -5 45032.2 2690.01   1
   4 -10  -5 46665.7 2763.65   1
  -4  10   5 46202.7 2713.75   1
  10  -6   5 46869.1 2728.92   1
  10  -4   5 46736.0 2720.72   1
 -10   4  -5 47847.7 2784.93   1
 -10   6  -5 49941.0 2813.38   1
   6 -10  -5 48576.7 2871.79   2
   4 -10  -5 46986.0 2802.73   2
  -6  10   6 66440.7 3320.05   1
   6 -10  -6 68064.2 3364.76   1
   4 -10  -6 66175.1 3350.07   1
  -4  10   6 64345.3 3240.79   1
  10  -4   6 65641.5 3217.80   1
 -10   4  -6 64802.1 3263.59   1
  10  -6   6 64076.4 3163.94   1
 -10   6  -6 70157.9 3364.36   1
   6 -10  -6 66236.4 3411.60   2
   4 -10  -6 65329.3 3388.25   2
  -6  10   7 83062.1 3820.72   1
   6 -10  -7 83279.4 3766.27   1
   4 -10  -7 81045.2 3729.87   1
  -4  10   7 83276.3 3729.49   1
  10  -4   7 83115.7 3723.79   1
  10  -6   7 86104.8 3742.90   1
 -10   4  -7 79967.3 3751.38   1
 -10   6  -7 85782.4 3805.01   1
   6 -10  -7 85290.2 3927.41   2
   4 -10  -7 83103.0 3860.73   2
   6 -10  -8 609.455 385.236   1
  10  -4   8 723.698 403.652   1
   4 -10  -8 2029.83 655.735   1
  -6  10   8 1048.79 457.365   1
  -4  10   8 1306.98 535.564   1
  10  -6   8 1150.79 525.484   1
 -10   4  -8 1288.42 513.614   1
   6 -10  -8 1059.08 539.869   2
 -10   6  -8 1531.36 613.670   1
   4 -10  -8 1978.61 601.530   2
  -6  10   9 14955.6 1494.42   1
   6 -10  -9 13077.2 1437.88   1
   4 -10  -9 13866.9 1536.25   1
  -4  10   9 13038.0 1467.70   1
  10  -4   9 13442.0 1477.42   1
  10  -6   9 12414.4 1447.23   1
 -10   4  -9 14210.7 1559.59   1
 -10   6  -9 12251.9 1437.61   1
   4 -10  -9 13531.6 1570.06   2
  -6  10  10 361096. 9000.77   1
   6 -10 -10 340465. 8843.13   1
   4 -10 -10 344556. 8889.91   1
  -4  10  10 345813. 8808.80   1
  10  -4  10 324884. 8601.02   1
  10  -6  10 304966. 8447.12   1
 -10   4 -10 313911. 8617.78   1
 -10   6 -10 334034. 8751.75   1
   4 -10 -10 305294. 8748.39   2
  -6  10  11 20954.0 1891.53   1
   6 -10 -11 19663.9 1900.36   1
   4 -10 -11 21908.0 1939.52   1
  -4  10  11 23755.1 1963.87   1
  10  -4  11 20771.4 1902.10   1
  10  -6  11 20620.6 1850.17   1
 -10   4 -11 20997.3 1922.07   1
 -10   6 -11 21499.8 1948.91   1
   4 -10 -11 21963.2 2005.70   2
  -6  10  12 61930.4 3356.04   1
   6 -10 -12 62977.5 3436.11   1
   4 -10 -12 61891.6 3377.91   1
  10  -4  12 63504.9 3396.31   1
  -4  10  12 68291.3 3495.09   1
  10  -6  12 55416.4 3198.44   1
 -10   4 -12 68891.5 3568.91   1
 -10   6 -12 58243.4 3365.99   1
  -6  10  13 139329. 5321.04   1
  10  -4  13 155254. 5632.06   1
   6 -10 -13 137007. 5346.08   1
   4 -10 -13 152524. 5539.93   1
  -4  10  13 155910. 5516.86   1
  10  -6  13 126535. 5200.66   1
 -10   4 -13 149903. 5563.61   1
 -10   6 -13 134320. 5398.70   1
 -10   6 -14 81334.5 4169.73   1
  -3  -7 -12 3247.50 746.343   2
  -7  -3 -12 3129.59 803.950   2
   7   3  12 3633.19 826.623   1
  -3  -7 -12 2351.15 697.186   1
  -7  -3 -12 3042.49 764.623   1
   3 -10  12 3286.35 854.214   2
   3   7  12 2311.24 674.889   1
  -7  -3 -11 10847.6 1392.29   2
  -3  -7 -11 11674.8 1413.48   1
  -7  -3 -11 9340.23 1291.59   1
   7   3  11 9124.01 1226.52   1
   3 -10  11 7653.92 1269.08   2
  -3  -7 -11 10048.9 1357.38   2
   3   7  11 8677.31 1236.24   1
  -7  -3 -10 265427. 7393.62   2
  -3  -7 -10 246823. 7260.89   1
  -7  -3 -10 246684. 7317.29   1
   3   7  10 253250. 7255.36   1
  10  -7 -10 227723. 7086.78   1
   3 -10  10 210806. 7066.38   2
   7   3  10 242297. 7106.89   1
 -10   7  10 225498. 7106.38   1
  -3  -7 -10 254698. 7286.56   2
  -7  -3  -9 55736.2 3071.67   2
  -3  -7  -9 57046.6 3140.88   1
  -7  -3  -9 53105.5 3045.65   1
   3   7   9 59182.8 3137.23   1
  10  -7  -9 57998.4 3185.38   1
   3 -10   9 53876.7 3163.71   2
   7   3   9 56206.7 3047.12   1
 -10   7   9 66665.4 3369.57   1
  -3  -7  -9 54080.5 3065.08   2
  -7  -3  -8 16126.4 1618.16   2
  -3  -7  -8 13392.8 1532.64   1
  -7  -3  -8 16401.3 1668.47   1
   3   7   8 15406.2 1598.96   1
  10  -7  -8 17371.6 1654.43   1
   3 -10   8 15500.3 1617.30   2
   7   3   8 14929.5 1556.59   1
 -10   7   8 17676.8 1736.30   1
  -3  -7  -8 16259.0 1663.71   2
  -7  -3  -7 246331. 7124.66   2
  -3  -7  -7 233212. 6946.90   1
   7 -10   7 238596. 6980.94   1
  -7  -3  -7 241874. 7061.56   1
  10  -7  -7 248679. 7035.22   1
   3   7   7 236161. 6942.44   1
   7 -10   7 240980. 7128.04   2
   3 -10   7 232569. 7032.74   2
   7   3   7 242149. 6981.17   1
  -7  10  -7 246834. 7131.50   1
 -10   7   7 215151. 6685.26   1
  -3  -7  -7 231945. 6823.00   2
  -7  -3  -6 174620. 5825.64   2
  -3  -7  -6 178819. 5861.70   1
  -7  -3  -6 192651. 6054.65   1
  10  -7  -6 171545. 5679.08   1
   7 -10   6 174340. 5755.34   1
   3   7   6 181184. 5854.15   1
  10  -3  -6 185124. 5854.01   1
   7 -10   6 179518. 5927.29   2
   3 -10   6 163249. 5666.27   2
   7   3   6 166805. 5643.45   1
 -10   7   6 189630. 5954.69   1
  -7  10  -6 188232. 5970.49   1
  -3  -7  -6 181970. 5851.43   2
  -7  -3  -5 68832.2 3487.76   2
  -3  -7  -5 75349.8 3533.97   1
  -7  -3  -5 71970.2 3485.55   1
  10  -7  -5 74958.3 3494.09   1
   3   7   5 74179.4 3553.01   1
  10  -3  -5 82333.7 3601.89   1
 -10   3   5 76963.9 3553.07   1
   7 -10   5 75978.4 3485.74   1
   7 -10   5 70577.4 3538.68   2
   3 -10   5 75687.5 3517.91   2
 -10   7   5 66632.6 3311.68   1
   7   3   5 80488.5 3619.41   1
  -7  10  -5 76922.2 3579.84   1
  -3  -7  -5 75979.6 3540.08   2
   7 -10   4 37313.7 2478.22   2
  -7  -3  -4 33305.7 2326.92   2
  -3  -7  -4 37545.3 2436.06   1
  10  -7  -4 35022.8 2289.36   1
  -7  -3  -4 34825.6 2387.47   1
   3   7   4 34463.0 2312.25   1
  10  -3  -4 34762.9 2302.36   1
 -10   3   4 32364.5 2285.85   1
   3 -10   4 35970.5 2313.80   2
   7 -10   4 39274.0 2424.07   1
 -10   7   4 36981.3 2400.02   1
   7   3   4 34665.1 2325.75   1
  -3  -7  -4 34685.6 2351.05   2
  -7  10  -4 34278.8 2353.48   1
  -3  -7  -3 1138.36 521.849   2
  -7  -3  -3 988.249 394.577   2
 -10   7   3 526.767 374.948   1
  -7  10  -3 1288.60 528.874   1
   3 -10   3 894.117 346.479   1
  -3  10  -3 2674.16 701.604   1
   7   3   3 898.178 493.155   1
  -3  -7  -3 1372.62 491.889   1
   7 -10   3 921.489 476.959   1
  10  -7  -3 1039.40 472.878   1
  -7  -3  -3 1314.28 524.467   1
  10  -3  -3 684.715 417.426   1
   7 -10   3 1460.16 592.071   2
   3 -10   3 1108.81 482.754   2
 -10   3   3 746.224 362.475   1
   3   7   3 896.970 441.073   1
  -7  10  -2 243701. 6888.94   1
  -7  -3  -2 256304. 7083.53   2
  -3  10  -2 248750. 6924.96   1
   3 -10   2 246446. 6906.32   1
   7 -10   2 213828. 6573.12   1
   7 -10   2 224500. 6763.51   2
  10  -7  -2 227462. 6618.05   1
  -3  -7  -2 236618. 6839.34   1
  -7  -3  -2 253999. 7051.45   1
   3   7   2 235580. 6855.41   1
  10  -3  -2 248392. 6860.70   1
 -10   3   2 210367. 6474.71   1
   3 -10   2 226801. 6685.98   2
 -10   7   2 248613. 6847.72   1
  -3  -7  -2 233354. 6758.11   2
   7   3   2 244652. 6915.19   1
  -7  -3  -1 22058.0 1975.62   2
  -7  10  -1 28498.8 2059.14   1
  -3  10  -1 27226.4 2017.86   1
   3 -10   1 24827.8 1962.37   1
  10  -7  -1 23975.3 1902.97   1
  -3  -7  -1 25977.6 2048.52   1
   7 -10   1 24689.7 1956.67   1
  -7  -3  -1 24859.0 1965.86   1
   3   7   1 24820.4 1966.12   1
  10  -3  -1 20751.9 1766.86   1
 -10   3   1 25231.2 1934.50   1
   7 -10   1 29216.7 2105.80   2
   3 -10   1 25803.6 2003.50   2
 -10   7   1 26217.5 2008.14   1
  -3  -7  -1 22848.6 1886.65   2
   7   3   1 23890.3 1907.18   1
  -7  10   0 38159.1 2388.26   1
   3 -10   0 37862.9 2426.57   1
  -3  10   0 36382.7 2346.33   1
  10  -7   0 36981.6 2327.00   1
  -3  -7   0 41218.5 2537.15   1
  -7  -3   0 41798.8 2527.65   1
   3   7   0 35925.6 2396.54   1
   7 -10   0 35577.3 2308.34   1
  10  -3   0 36646.1 2356.06   1
 -10   3   0 37956.9 2423.79   1
   7 -10   0 36168.4 2434.90   2
   3 -10   0 34402.6 2374.31   2
 -10   7   0 37410.9 2384.07   1
  -3  -7   0 38182.6 2433.56   2
   7   3   0 35006.6 2332.16   1
  -7  -3   0 35613.3 2401.08   2
  -7  10   1 111573. 4362.23   1
  10  -7   1 111724. 4285.41   1
   3 -10  -1 109405. 4346.61   1
  -3  10   1 109749. 4305.27   1
  -7  -3   1 110003. 4281.91   1
  10  -3   1 114233. 4327.76   1
 -10   3  -1 108447. 4299.27   1
   7 -10  -1 118137. 4362.82   1
 -10   7  -1 117300. 4404.18   1
   3 -10  -1 108210. 4326.83   2
  -3  -7   1 109152. 4319.03   2
   7   3  -1 114230. 4356.41   1
   7 -10  -1 115809. 4489.95   2
  -7  -3   1 108288. 4373.38   2
  -7  10   2 184486. 5826.92   1
  10  -7   2 185825. 5726.99   1
   3 -10  -2 185170. 5888.93   1
  -3  10   2 178911. 5753.04   1
  10  -3   2 180678. 5754.62   1
 -10   3  -2 185416. 5844.45   1
   7 -10  -2 186793. 5991.84   2
 -10   7  -2 187361. 5783.88   1
   3 -10  -2 183893. 5867.59   2
  -3  -7   2 183523. 5856.07   2
   7 -10  -2 180404. 5731.21   1
  10  -7   3 122785. 4569.29   1
  -7  10   3 122530. 4604.16   1
   3 -10  -3 122118. 4678.14   1
  -3  10   3 120035. 4544.45   1
   7 -10  -3 125050. 4626.35   1
   7 -10  -3 126599. 4761.40   2
  10  -3   3 122105. 4576.45   1
 -10   3  -3 115419. 4545.56   1
 -10   7  -3 122615. 4575.75   1
  -3  -7   3 131587. 4789.10   2
   3 -10  -3 127044. 4702.97   2
 -10   7  -4 370.398 420.366   1
   7 -10  -4-96.0097 374.982   1
   3 -10  -4 27.3911 404.581   1
  -7  10   4 185.238 285.269   1
  10  -3   4 6.47382 337.903   1
  10  -7   4 337.112 268.785   1
  -3  10   4-173.393 395.176   1
 -10   3  -4-61.2179 438.468   1
   7 -10  -4 274.907 387.353   2
   3 -10  -4-455.997 445.156   2
  -3  -7   4 101.848 369.566   2
  -7  10   5 70114.2 3413.90   1
   7 -10  -5 74759.6 3531.58   1
   3 -10  -5 71648.5 3475.14   1
  -3  10   5 68593.4 3403.89   1
  10  -3   5 71425.8 3415.98   1
 -10   3  -5 69491.6 3421.71   1
 -10   7  -5 81454.2 3599.06   1
   7 -10  -5 73607.4 3575.90   2
   3 -10  -5 79200.1 3638.50   2
  -3  -7   5 85986.1 3826.04   2
  10  -7   5 65465.3 3277.52   1
  -7  10   6 352260. 8713.49   1
   7 -10  -6 328131. 8558.11   1
   3 -10  -6 327640. 8556.03   1
  -3  10   6 331839. 8608.87   1
  10  -3   6 336988. 8620.43   1
 -10   3  -6 353932. 8839.53   1
 -10   7  -6 314188. 8431.78   1
   7 -10  -6 333374. 8819.85   2
  10  -7   6 326837. 8452.75   1
   3 -10  -6 336218. 8727.11   2
 -10   7  -7 63849.4 3268.99   1
  -7  10   7 66240.8 3352.46   1
   7 -10  -7 68124.0 3406.35   1
   3 -10  -7 62250.9 3294.59   1
  -3  10   7 69938.5 3383.69   1
  10  -3   7 67593.3 3354.03   1
 -10   3  -7 61419.8 3255.51   1
  10  -7   7 68678.3 3304.50   1
   7 -10  -7 65989.7 3413.14   2
   3 -10  -7 63574.8 3379.79   2
  -7  10   8 71897.2 3491.36   1
   7 -10  -8 71084.7 3460.66   1
   3 -10  -8 65507.8 3335.01   1
  -3  10   8 68011.2 3405.88   1
  10  -3   8 64872.6 3336.97   1
 -10   3  -8 63295.9 3335.47   1
  10  -7   8 65322.2 3280.09   1
 -10   7  -8 64239.6 3332.43   1
   3 -10  -8 61223.8 3348.50   2
  -7  10   9 105022. 4398.20   1
   7 -10  -9 107821. 4395.15   1
   3 -10  -9 113148. 4509.20   1
  10  -3   9 122728. 4662.16   1
  -3  10   9 104784. 4394.14   1
 -10   3  -9 124327. 4756.38   1
  10  -7   9 98192.9 4252.63   1
 -10   7  -9 103836. 4394.17   1
   3 -10  -9 104047. 4495.70   2
  -7  10  10 98918.4 4254.05   1
   7 -10 -10 95755.9 4208.22   1
  10  -3  10 95307.7 4101.67   1
   3 -10 -10 96619.8 4118.85   1
  -3  10  10 96222.5 4095.59   1
  10  -7  10 82014.1 3907.11   1
 -10   3 -10 92507.5 4158.18   1
 -10   7 -10 86345.2 4011.73   1
   3 -10 -10 89166.0 4175.00   2
  -7  10  11 30294.2 2283.33   1
   7 -10 -11 31564.4 2329.16   1
  10  -3  11 31596.4 2322.43   1
   3 -10 -11 27433.0 2175.60   1
  -3  10  11 32185.1 2309.04   1
  10  -7  11 24286.9 2039.63   1
 -10   3 -11 28219.9 2215.85   1
 -10   7 -11 28467.8 2224.31   1
   3 -10 -11 26213.3 2233.39   2
  -7  10  12 12248.5 1460.52   1
  10  -3  12 12227.0 1445.36   1
   7 -10 -12 9424.60 1297.87   1
   3 -10 -12 9218.02 1301.85   1
  10  -7  12 9077.25 1278.81   1
 -10   3 -12 9038.24 1280.87   1
  -3  10  12 9138.08 1263.73   1
 -10   7 -12 9916.54 1327.84   1
   3 -10 -12 10892.3 1420.96   2
  10  -7  13 283.153 358.205   1
   7 -10 -13 430.271 368.037   1
  -7  10  13 118.087 285.404   1
 -10   7 -13 386.206 371.163   1
  -2  -8 -11 1339.24 568.864   2
  -8  -2 -11 1669.94 563.444   2
  10  -8 -11 957.900 523.317   1
 -10   8  11 1509.63 531.884   1
   8   2  11 1643.66 606.949   1
  -2  -8 -11 2119.12 725.265   1
  -8  -2 -11 588.892 369.366   1
   2   8  11 1018.28 507.663   1
  -2  -8 -10 4017.43 907.029   2
  10  -8 -10 4102.92 864.328   1
  -8  -2 -10 4402.52 887.808   2
 -10   8  10 4353.91 885.735   1
   8   2  10 4544.61 898.717   1
  -2  -8 -10 4740.83 973.156   1
  -8  -2 -10 3949.97 843.362   1
   2 -10  10 3141.17 833.776   2
   2   8  10 4379.57 846.457   1
  -8  -2  -9 8970.36 1278.60   2
  -2  -8  -9 9064.35 1203.62   2
  10  -8  -9 8322.84 1206.65   1
 -10   8   9 7710.27 1153.83   1
   8   2   9 7947.85 1141.05   1
  -2  -8  -9 8569.17 1232.59   1
  -8  -2  -9 9677.55 1281.33   1
   2 -10   9 8392.14 1271.45   2
   2   8   9 8826.94 1203.59   1
  -8  -2  -8 341137. 8678.34   2
   8 -10   8 297430. 8339.26   1
  -2  -8  -8 328445. 8603.37   1
  -8  -2  -8 344038. 8779.43   1
   2   8   8 311818. 8373.40   1
   2 -10   8 291289. 8398.39   2
  10  -8  -8 306343. 8301.13   1
  -8  10  -8 308122. 8440.48   1
  -2  -8  -8 326501. 8470.04   2
   8   2   8 313851. 8341.81   1
 -10   8   8 286182. 8080.73   1
  10  -8  -7 5911.26 952.396   1
  -2  -8  -7 4907.55 882.582   2
  -8  10  -7 5296.34 914.106   1
  -8  -2  -7 5070.07 932.125   2
 -10   8   7 5188.55 954.355   1
   8 -10   7 5992.27 1019.63   1
  -2  -8  -7 5225.96 976.426   1
   8   2   7 4922.08 946.962   1
  -8  -2  -7 5860.41 1019.75   1
   2 -10   7 5095.56 922.558   2
   2   8   7 4872.69 896.686   1
  -2  -8  -6 153.049 402.785   2
  -8  10  -6 413.514 324.574   1
  -8  -2  -6 1100.86 611.576   2
 -10   8   6-369.999 405.403   1
  -2  -8  -6-91.3392 310.293   1
   8   2   6 362.407 396.066   1
   8 -10   6-376.366 430.124   1
  -8  -2  -6 532.834 459.510   1
   2 -10   6 349.417 415.688   2
   2   8   6 150.929 432.671   1
  10  -8  -6 145.513 372.706   1
  -8  -2  -5 18181.8 1719.98   2
  -2  -8  -5 19587.1 1784.93   1
   2   8   5 19261.1 1758.90   1
  -8  -2  -5 18092.8 1716.15   1
   8 -10   5 18490.4 1659.14   1
  10  -8  -5 18948.4 1711.65   1
   2 -10   5 20652.9 1808.35   2
  -8  10  -5 17191.5 1665.63   1
  -2  -8  -5 17791.4 1750.07   2
 -10   8   5 18298.4 1689.89   1
   8   2   5 19745.3 1804.28   1
  -8  -2  -4 347642. 8950.45   2
  -2  -8  -4 350862. 8952.25   1
   2   8   4 348366. 8832.50   1
  10  -2  -4 373076. 8963.90   1
  -8  -2  -4 300507. 8493.70   1
  10  -8  -4 356261. 8800.59   1
   8 -10   4 334280. 8591.00   1
 -10   2   4 322179. 8613.07   1
   8 -10   4 342892. 8987.62   2
   2 -10   4 334580. 8749.64   2
  -2  -8  -4 345870. 8794.03   2
 -10   8   4 360912. 8858.51   1
  -8  10  -4 339380. 8765.79   1
   8   2   4 349360. 8868.10   1
  -2  -8  -3 1425.85 556.347   2
   8 -10   3 1243.34 545.664   1
  -8  -2  -3 2438.69 673.206   2
 -10   8   3 679.334 418.434   1
  -8  10  -3 1604.95 590.211   1
  10  -2  -3 1028.90 342.132   1
  -2  -8  -3 2098.04 632.587   1
   8   2   3 752.597 431.287   1
  -8  -2  -3 1088.69 482.345   1
   8 -10   3 1449.14 601.509   2
  10  -8  -3 1370.49 572.863   1
 -10   2   3 1500.61 545.426   1
   2   8   3 1716.34 610.903   1
   2 -10   3 606.456 366.615   2
   8   2   2 20440.9 1797.33   1
  -8  -2  -2 19183.2 1809.94   2
  -2  10  -2 20814.7 1789.43   1
  -2  -8  -2 21674.5 1904.41   1
   2   8   2 21067.8 1828.53   1
  10  -2  -2 19837.0 1776.66   1
  10  -8  -2 21177.7 1757.60   1
  -8  -2  -2 18622.2 1683.39   1
 -10   2   2 24029.1 1941.45   1
   8 -10   2 20838.4 1869.35   2
   2 -10   2 20311.9 1801.13   2
   8 -10   2 19844.0 1732.78   1
 -10   8   2 21016.7 1800.92   1
  -2  -8  -2 16480.4 1652.27   2
  -8  10  -2 20973.9 1766.90   1
  -2  -8  -1 3115.84 717.832   2
  -8  -2  -1 4260.52 803.989   2
 -10   8   1 5063.24 872.197   1
  -8  10  -1 4572.61 860.531   1
   2 -10   1 3853.94 806.080   1
  10  -2  -1 4534.73 837.292   1
  -2  -8  -1 4172.51 857.786   1
  -2  10  -1 4490.88 822.780   1
   8 -10   1 3942.81 786.908   1
   8   2   1 3873.00 833.905   1
  10  -8  -1 4909.61 913.745   1
  -8  -2  -1 3831.09 779.925   1
   8 -10   1 5228.36 974.919   2
   2   8   1 4864.37 907.851   1
 -10   2   1 4144.84 812.102   1
   2 -10   1 3900.46 813.974   2
   8   2   0 373992. 8995.48   1
  -8  -2   0 368030. 9295.95   2
   8 -10   0 344351. 8697.09   1
   2 -10   0 339803. 8775.40   1
  -2  10   0 352278. 8811.60   1
  -2  -8   0 354840. 8839.94   1
  10  -8   0 368007. 8792.89   1
   2   8   0 349294. 8845.59   1
  10  -2   0 353631. 8821.10   1
  -8  -2   0 362363. 8942.09   1
 -10   2   0 302857. 8478.63   1
   8 -10   0 331592. 8894.91   2
   2 -10   0 354248. 8888.03   2
 -10   8   0 356099. 8743.83   1
  -2  -8   0 324357. 8596.38   2
  -8  10   0 337051. 8684.30   1
  -2  -8   1-319.054 373.751   2
   8 -10  -1 184.251 346.836   1
 -10   8  -1-143.233 342.601   1
 -10   2  -1-193.931 336.015   2
  -8  10   1-292.924 397.972   1
  10  -2   1 62.0284 355.169   1
   2 -10  -1-108.234 338.745   1
  10  -8   1-286.660 415.267   1
  -2  10   1 570.302 448.833   1
   8   2  -1 174.514 415.333   1
  -8  -2   1-39.0024 350.911   1
   8 -10  -1 407.142 420.784   2
 -10   2  -1-183.011 379.767   1
   2 -10  -1 153.886 407.308   2
  -8  10   2 34080.1 2322.30   1
 -10   2  -2 31154.4 2379.43   2
  10  -8   2 34504.1 2304.99   1
   2 -10  -2 37878.8 2494.01   1
  -2  10   2 35970.1 2373.24   1
  10  -2   2 37192.4 2457.01   1
   8 -10  -2 35458.2 2338.19   1
 -10   2  -2 34080.4 2386.08   1
   8 -10  -2 34493.0 2426.59   2
 -10   8  -2 36682.8 2302.74   1
   2 -10  -2 34332.5 2379.70   2
  -2  -8   2 39386.3 2544.76   2
 -10   8  -3 7531.27 1040.89   1
  10  -8   3 7888.45 1091.79   1
 -10   2  -3 5203.75 1032.94   2
  10  -2   3 6493.28 1015.33   1
  -8  10   3 7221.29 1050.38   1
   2 -10  -3 7196.94 1055.03   1
  -2  10   3 5952.18 969.721   1
   8 -10  -3 8674.06 1149.47   1
 -10   2  -3 7710.23 1123.33   1
   8 -10  -3 7504.58 1113.15   2
   2 -10  -3 6922.87 1034.63   2
  -2  -8   3 7607.74 1116.02   2
  -8  10   4 467801. 10873.5   1
  10  -8   4 466343. 10724.9   1
   2 -10  -4 442653. 10770.5   1
  -2  10   4 469446. 10928.2   1
  10  -2   4 464531. 10823.1   1
 -10   2  -4 511339. 11205.8   1
   8 -10  -4 469962. 10788.4   1
   8 -10  -4 477280. 11211.3   2
 -10   8  -4 473379. 10820.4   1
  -2  -8   4 511642. 11339.3   2
   2 -10  -4 476647. 10966.8   2
 -10   8  -5 265.318 327.377   1
  10  -2   5 655.313 413.045   1
   8 -10  -5 961.218 486.380   1
  -8  10   5 201.598 316.042   1
   2 -10  -5 147.640 377.513   1
  10  -8   5-278.917 381.905   1
  -2  10   5 146.460 428.918   1
 -10   2  -5-83.0964 356.299   1
   8 -10  -5 526.211 305.851   2
  -2  -8   5-73.7397 369.731   2
   2 -10  -5-269.439 390.800   2
 -10   8  -6 1600.89 524.608   1
  10  -2   6 1740.83 617.958   1
  -8  10   6 1894.65 558.119   1
  10  -8   6 1628.44 521.753   1
   2 -10  -6 1478.35 487.633   1
   8 -10  -6 2514.96 676.251   1
  -2  10   6 1093.36 416.240   1
 -10   2  -6 1691.00 642.794   1
   8 -10  -6 1120.47 511.613   2
  -2  -8   6 1637.33 595.733   2
   2 -10  -6 2210.09 691.758   2
   8 -10  -7 16254.8 1612.94   1
  -8  10   7 13053.8 1499.87   1
   2 -10  -7 14917.1 1546.71   1
  10  -2   7 16548.5 1574.77   1
  -2  10   7 15570.0 1608.27   1
 -10   2  -7 16700.2 1713.41   1
 -10   8  -7 13194.5 1432.90   1
  10  -8   7 14691.3 1517.75   1
   2 -10  -7 15519.0 1625.74   2
  -8  10   8 292507. 8046.06   1
   8 -10  -8 291006. 7940.98   1
  10  -2   8 306858. 8050.02   1
   2 -10  -8 290405. 8000.83   1
  -2  10   8 281599. 7884.14   1
 -10   2  -8 278008. 7873.28   1
 -10   8  -8 278185. 7849.51   1
  10  -8   8 277357. 7814.70   1
   2 -10  -8 294406. 8079.43   2
   2 -10  -9-336.305 393.231   2
   8 -10  -9 572.001 481.881   1
  -8  10   9 25.8154 326.581   1
   2 -10  -9 514.011 374.868   1
  -2  10   9-82.8976 384.560   1
 -10   2  -9 729.377 491.295   1
  10  -8   9 98.7077 433.603   1
  10  -2   9 509.332 556.292   1
 -10   8  -9 953.325 597.071   1
   2 -10 -10 1085.27 471.558   2
  -8  10  10 1117.66 512.187   1
   2 -10 -10 549.980 433.428   1
   8 -10 -10 963.741 515.929   1
  -2  10  10 1661.30 606.316   1
  10  -8  10 352.234 371.482   1
 -10   2 -10 736.060 381.020   1
  10  -2  10 905.978 376.731   1
 -10   8 -10 1026.80 505.875   1
   2 -10 -11 909.410 607.861   2
 -10   2 -11 537.287 266.373   2
  -8  10  11 256.346 291.468   1
   2 -10 -11 504.986 396.794   1
  10  -8  11 231.909 432.796   1
  -2  10  11 728.623 443.971   1
 -10   2 -11 527.376 463.318   1
  10  -2  11 556.156 307.334   1
 -10   8 -11 1082.52 477.575   1
   8 -10 -11 812.202 414.655   1
   8 -10 -12 161169. 5842.01   1
  10  -8  12 161564. 5892.59   1
 -10   8 -12 149884. 5746.02   1
   2 -10 -12 156089. 5871.81   2
   2 -10 -13 797.833 633.217   2
 -10   9  11 4541.38 945.699   1
  10  -9 -11 3689.86 851.376   1
  10  -9 -10 233253. 7324.76   1
  -9  -1 -10 261015. 7485.22   2
  -1  -9 -10 257365. 7416.31   1
   1   9  10 260079. 7448.50   1
  -9  -1 -10 245639. 7390.61   1
  -1  -9 -10 246407. 7398.08   2
   9   1  10 241677. 7187.58   1
 -10   9  10 250146. 7461.21   1
  10  -9  -9 36969.5 2569.61   1
  -9  -1  -9 40262.1 2632.30   2
  -1  -9  -9 43654.2 2765.04   1
   1   9   9 36639.9 2514.50   1
  -9  -1  -9 38606.1 2581.38   1
   1 -10   9 32899.4 2527.31   2
  -9  10  -9 32256.4 2451.50   1
  -1  -9  -9 35676.9 2561.75   2
   9 -10   9 29243.1 2326.36   1
 -10   9   9 33642.8 2403.53   1
   9   1   9 36534.5 2444.63   1
  -1  -9  -8 2736.32 777.137   2
  -9  10  -8 3305.39 806.424   1
  -9  -1  -8 2401.56 645.518   2
 -10   9   8 1676.21 503.104   1
  -1  -9  -8 2565.40 703.474   1
  10  -9  -8 2308.58 687.320   1
   9   1   8 2903.48 728.139   1
   9 -10   8 2052.36 614.771   1
  -9  -1  -8 2356.85 764.677   1
   1   9   8 2817.84 730.112   1
   1 -10   8 1811.73 649.825   2
   9   1   7 101512. 4333.70   1
  -9  -1  -7 107076. 4478.37   2
   9 -10   7 102557. 4359.62   1
  -1  -9  -7 109694. 4477.33   1
   1   9   7 105629. 4438.09   1
  -9  -1  -7 111088. 4546.33   1
   1 -10   7 101814. 4424.23   2
  -9  10  -7 92722.0 4187.48   1
  -1  -9  -7 104894. 4411.30   2
  10  -9  -7 108752. 4424.90   1
 -10   9   7 106165. 4360.18   1
   9   1   6 23506.3 1994.48   1
  -9  -1  -6 26869.3 2156.78   2
   9 -10   6 24061.6 1996.34   1
  -1  -9  -6 26671.2 2152.66   1
   1   9   6 21397.9 1953.92   1
  -9  -1  -6 25832.0 2046.14   1
   1 -10   6 23474.4 2024.31   2
  -9  10  -6 23410.0 2016.32   1
  10  -9  -6 24540.0 1999.50   1
  -1  -9  -6 24875.5 2080.07   2
 -10   9   6 22784.7 1958.84   1
   9   1   5 12311.9 1454.23   1
  -9  -1  -5 11298.6 1431.59   2
  -1  -9  -5 12243.2 1406.92   1
   9 -10   5 11154.4 1342.37   1
   1   9   5 11951.3 1413.17   1
  -9  -1  -5 13012.2 1419.24   1
   1 -10   5 12812.2 1443.55   2
  10  -9  -5 15733.0 1547.48   1
  -9  10  -5 13972.3 1471.06   1
  -1  -9  -5 12550.8 1378.83   2
 -10   9   5 12385.8 1458.29   1
  -9  -1  -4 41920.1 2766.09   2
   9   1   4 35705.6 2502.03   1
  -1  -9  -4 41650.4 2685.71   1
   1   9   4 42211.7 2705.44   1
   9 -10   4 43156.3 2673.54   1
  10  -9  -4 42590.0 2609.78   1
   1 -10   4 39868.2 2630.94   2
  -9  10  -4 41870.0 2624.92   1
  -1  -9  -4 44613.4 2729.10   2
 -10   9   4 45597.8 2695.51   1
  -9  -1  -3 32672.0 2424.11   2
   9   1   3 33669.6 2387.18   1
  -1  -9  -3 34182.4 2428.63   1
  10  -1  -3 35655.5 2442.73   1
   1   9   3 34881.4 2462.18   1
  -9  -1  -3 38946.3 2557.96   1
   9 -10   3 32699.4 2278.10   1
  10  -9  -3 32135.6 2263.00   1
   1 -10   3 35763.2 2480.07   2
  -1  -9  -3 34225.4 2323.05   2
  -9  10  -3 34201.5 2337.41   1
 -10   9   3 34360.8 2336.38   1
  -9  -1  -2 313626. 8549.56   2
   9   1   2 315882. 8353.30   1
  -1  -9  -2 295768. 8260.24   1
  10  -1  -2 281066. 8072.97   1
   1   9   2 303501. 8244.83   1
  -9  -1  -2 300532. 8186.90   1
 -10   1   2 328301. 8555.77   1
  10  -9  -2 312322. 8114.41   1
   9 -10   2 316041. 8182.22   1
   1 -10   2 302601. 8153.67   2
  -1  -9  -2 301068. 8134.64   2
 -10   9   2 292715. 8001.24   1
  -9  10  -2 316805. 8277.70   1
  -9  -1  -1 142251. 5361.96   2
   9   1   1 148409. 5262.51   1
   9 -10   1 135999. 4954.70   1
  -1  10  -1 136745. 5061.10   1
  -1  -9  -1 139116. 5222.20   1
  10  -1  -1 155985. 5382.72   1
   1   9   1 147265. 5215.08   1
  -9  -1  -1 127490. 4941.71   1
  10  -9  -1 142201. 5041.36   1
 -10   1   1 155776. 5415.01   1
   9 -10   1 135546. 5195.57   2
   1 -10   1 143441. 5191.21   2
  -1  -9  -1 142445. 5125.49   2
 -10   9   1 140296. 5077.29   1
  -9  10  -1 148144. 5157.46   1
   9   1   0 39043.3 2553.23   1
   1 -10   0 38850.7 2589.49   1
  -1  10   0 36517.0 2491.12   1
  10  -1   0 40644.9 2591.19   1
   1   9   0 38402.3 2510.38   1
  10  -9   0 37692.4 2410.71   1
  -9  -1   0 38168.6 2516.63   1
 -10   1   0 41182.8 2639.06   1
   9 -10   0 39210.5 2692.13   2
   1 -10   0 39351.3 2571.08   2
   9 -10   0 39729.1 2472.19   1
  -1  -9   0 40237.2 2537.56   2
 -10   9   0 39480.4 2521.95   1
  -9  10   0 39248.6 2469.42   1
   9   1  -1 102895. 4296.19   1
   1 -10  -1 102802. 4321.06   1
  10  -1   1 96807.2 4155.37   1
  -1  10   1 101382. 4253.98   1
  10  -9   1 99073.7 4082.07   1
  -9  -1   1 92028.3 4145.71   1
 -10   1  -1 89412.8 4092.48   1
   9 -10  -1 108968. 4499.32   2
   1 -10  -1 102176. 4267.07   2
  -1  -9   1 107279. 4287.56   2
 -10   9  -1 98851.6 4150.47   1
  -9  10   1 105327. 4208.34   1
   9 -10  -1 104331. 4201.24   1
 -10   1  -2 308361. 8598.96   2
   9 -10  -2 307196. 8057.40   1
   1 -10  -2 289891. 8073.62   1
  10  -1   2 281750. 7896.48   1
  -1  10   2 299675. 8108.29   1
  10  -9   2 307417. 7969.78   1
 -10   1  -2 301025. 8160.63   1
   9 -10  -2 290028. 8212.92   2
  -1  -9   2 280182. 7961.06   2
   1 -10  -2 293083. 8070.70   2
 -10   9  -2 300331. 8013.87   1
  -9  10   2 300249. 7982.62   1
 -10   1  -3 80088.3 3937.67   2
   9 -10  -3 78585.0 3628.94   1
  10  -1   3 78263.0 3693.02   1
   1 -10  -3 69264.1 3512.60   1
  10  -9   3 75532.7 3496.46   1
  -1  10   3 73259.4 3584.88   1
 -10   1  -3 82622.7 3820.17   1
   9 -10  -3 77607.3 3860.75   2
  -1  -9   3 81445.9 3826.85   2
 -10   9  -3 73724.0 3529.76   1
   1 -10  -3 78193.7 3608.84   2
  -9  10   3 74371.5 3555.18   1
 -10   9  -4 808.075 559.255   1
 -10   1  -4 808.442 532.370   2
  10  -9   4 1166.50 505.121   1
  -9  10   4 914.823 472.023   1
   1 -10  -4 1230.42 505.733   1
  -1  10   4 933.269 444.091   1
 -10   1  -4 894.343 495.543   1
   9 -10  -4 634.237 493.025   2
   9 -10  -4 209.342 264.610   1
  10  -1   4 357.156 368.491   1
  -1  -9   4 652.907 445.309   2
   1 -10  -4 572.904 444.406   2
  -9  10   5 20692.7 1847.54   1
 -10   1  -5 17542.3 1769.72   2
  10  -9   5 20646.4 1796.02   1
  10  -1   5 20009.6 1797.52   1
   1 -10  -5 19201.7 1808.38   1
   9 -10  -5 18168.7 1731.33   1
  -1  10   5 19323.4 1796.29   1
 -10   1  -5 17666.3 1748.30   1
 -10   9  -5 19158.9 1761.81   1
  -1  -9   5 18502.6 1790.03   2
   1 -10  -5 16585.2 1702.32   2
  -9  10   6 53484.9 3022.45   1
  10  -9   6 56597.1 3066.00   1
 -10   1  -6 49760.8 3019.87   2
  10  -1   6 55275.6 3107.37   1
   1 -10  -6 55968.2 3116.89   1
  -1  10   6 52909.2 3018.20   1
   9 -10  -6 60168.1 3171.11   1
 -10   1  -6 56986.1 3159.80   1
 -10   9  -6 51992.2 2987.14   1
  -1  -9   6 49203.7 3025.77   2
   1 -10  -6 52980.1 3030.54   2
 -10   9  -7 9008.45 1201.09   1
  -9  10   7 10050.8 1323.76   1
  10  -1   7 11165.2 1337.72   1
 -10   1  -7 9532.00 1288.29   2
   1 -10  -7 8985.07 1255.87   1
   9 -10  -7 10239.2 1336.49   1
 -10   1  -7 10991.0 1337.58   1
  -1  10   7 9342.79 1247.38   1
   1 -10  -7 10531.8 1350.06   2
  -1  -9   7 9163.19 1292.62   2
  10  -9   7 9417.31 1247.82   1
  -9  10   8 55534.4 3121.01   1
 -10   1  -8 49458.8 2962.75   2
  10  -1   8 54223.3 3043.48   1
   1 -10  -8 52980.6 3025.01   1
  -1  10   8 54638.2 3024.58   1
   9 -10  -8 55453.3 3127.41   1
 -10   1  -8 48799.0 2958.24   1
 -10   9  -8 47768.2 2930.13   1
  10  -9   8 43465.3 2750.75   1
   1 -10  -8 54871.5 3077.71   2
  -9  10   9 125886. 4850.43   1
 -10   1  -9 108301. 4590.06   2
  10  -1   9 121491. 4704.46   1
   1 -10  -9 118503. 4756.40   1
  -1  10   9 116508. 4685.25   1
   9 -10  -9 123852. 4825.85   1
 -10   1  -9 137288. 4997.84   1
 -10   9  -9 107689. 4631.89   1
  10  -9   9 97629.3 4404.05   1
   1 -10  -9 121015. 4833.82   2
  -9  10  10 140797. 5237.78   1
  10  -1  10 139586. 5127.30   1
 -10   1 -10 126804. 5025.03   2
   1 -10 -10 133923. 5093.81   1
  -1  10  10 131393. 5022.36   1
 -10   1 -10 136033. 5101.76   1
   9 -10 -10 132888. 5141.36   1
  10  -9  10 116769. 4861.40   1
 -10   9 -10 116616. 4936.66   1
   1 -10 -10 138265. 5284.77   2
  -9  10  11 69542.8 3678.12   1
   9 -10 -11 79912.2 3884.37   1
  10  -9  11 73518.6 3827.14   1
 -10   9 -11 77684.0 3876.99   1
   1 -10 -11 85128.3 4049.47   2
  10   0   0 46879.4 2848.83   1
 -10   0   0 47609.3 2931.68   1
  10 -10   0 47807.1 2770.56   1
   0 -10   0 51929.7 2927.89   2
 -10  10   0 45437.1 2751.12   1
  10   0   1 136667. 5172.44   1
  10   0  -1 143149. 5283.39   1
   0 -10  -1 120175. 4960.80   1
   0  10   1 128397. 5050.83   1
  10 -10   1 143572. 5049.91   1
 -10   0  -1 124761. 4943.10   1
 -10   0   1 116304. 4864.19   1
  10 -10  -1 148670. 5100.48   1
   0 -10   1 140363. 5157.39   2
   0 -10  -1 145063. 5202.10   2
 -10  10  -1 139522. 5081.90   1
 -10  10   1 146739. 5130.23   1
  10   0   2 334171. 8710.09   1
   0 -10  -2 323159. 8737.14   1
   0  10   2 306117. 8481.60   1
  10 -10   2 341179. 8555.15   1
 -10   0  -2 285344. 8341.40   1
  10 -10  -2 341150. 8568.63   1
   0 -10   2 324983. 8677.17   2
   0 -10  -2 310553. 8399.25   2
 -10  10  -2 338934. 8677.21   1
 -10  10   2 321010. 8429.02   1
 -10   0  -3 43248.3 2858.70   2
  10   0   3 42756.1 2774.33   1
   0 -10  -3 34112.6 2455.08   1
  10 -10   3 40700.6 2601.06   1
   0  10   3 40933.0 2669.58   1
 -10   0  -3 37575.6 2573.01   1
  10 -10  -3 45945.7 2691.31   1
   0 -10   3 45122.2 2763.63   2
   0 -10  -3 40351.8 2637.48   2
 -10  10  -3 44446.1 2671.48   1
 -10  10   3 47841.8 2760.09   1
   0 -10  -4 7594.21 1141.43   2
 -10  10  -4 7824.75 1091.90   1
 -10   0  -4 7395.61 1241.41   2
   0 -10  -4 6595.08 1074.11   1
  10 -10   4 7458.95 1107.85   1
 -10   0  -4 8927.25 1263.63   1
   0  10   4 7641.47 1134.89   1
  10   0   4 6999.70 1142.68   1
  10 -10  -4 7772.20 1121.77   1
   0 -10   4 7339.06 1120.12   2
 -10  10   4 8541.40 1182.26   1
 -10   0  -5 15206.7 1724.35   2
  10   0   5 17442.6 1701.64   1
  10 -10   5 16231.5 1617.80   1
   0 -10  -5 14957.0 1600.19   1
   0  10   5 15608.3 1658.01   1
 -10   0  -5 16971.9 1745.78   1
   0 -10   5 15620.4 1699.07   2
 -10  10  -5 16313.7 1667.08   1
   0 -10  -5 17695.4 1796.09   2
 -10  10   5 15644.3 1597.39   1
  10 -10  -5 16466.0 1644.42   1
  10 -10  -6 16272.9 1652.39   1
 -10   0  -6 13337.2 1599.56   2
  10   0   6 16822.9 1706.47   1
  10 -10   6 12467.1 1457.26   1
   0 -10  -6 16232.6 1651.96   1
   0  10   6 14732.9 1605.37   1
 -10   0  -6 16531.9 1690.84   1
   0 -10   6 13127.2 1587.29   2
 -10  10  -6 14219.0 1528.64   1
   0 -10  -6 14884.9 1640.75   2
 -10  10   6 15893.1 1616.01   1
  10 -10   7 27847.7 2191.04   1
  10   0   7 33223.4 2439.53   1
 -10   0  -7 28596.3 2345.72   2
  10 -10  -7 32543.1 2376.85   1
   0 -10  -7 32805.3 2433.68   1
   0  10   7 37390.3 2504.01   1
 -10   0  -7 29746.7 2322.74   1
   0 -10   7 27822.5 2272.54   2
 -10  10  -7 29609.4 2263.84   1
   0 -10  -7 34144.0 2469.85   2
 -10  10   7 31435.1 2332.59   1
   0 -10  -8 6334.59 1111.99   2
 -10  10  -8 4641.31 916.481   1
 -10   0  -8 5054.51 963.384   2
 -10  10   8 7590.22 1123.82   1
  10 -10   8 3607.97 819.630   1
   0 -10  -8 4626.87 958.936   1
  10   0   8 5625.94 965.585   1
  10 -10  -8 3892.77 849.291   1
 -10   0  -8 6035.61 1038.40   1
   0  10   8 5141.34 950.389   1
 -10   0  -9 49775.2 3030.14   2
  10 -10  -9 52951.4 3081.78   1
   0 -10  -9 54316.0 3107.04   1
   0  10   9 51324.0 3030.35   1
 -10  10  -9 39756.5 2769.57   1
  10 -10   9 44557.0 2901.38   1
   0 -10  -9 49006.1 2991.09   2
 -10  10   9 55118.9 3169.72   1
 -10  10 -10 2044.91 704.948   1
   5 -11  11 21419.6 2040.87   2
  -6  -5 -10 176897. 6047.30   2
  -5  -6 -10 183836. 6079.00   1
  -6  -5 -10 190011. 6208.76   1
   5   6  10 190656. 6200.72   1
   6   5  10 205687. 6266.21   1
   5 -11  10 173070. 6232.54   2
  -5  -6 -10 189731. 6168.18   2
   5 -11   9 63716.7 3442.12   2
  -5  -6  -9 59540.9 3258.55   1
  -6  -5  -9 61143.1 3318.24   1
   5   6   9 64122.3 3314.80   1
   6   5   9 61188.7 3241.86   1
   6 -11   9 58265.8 3337.24   2
  -5  -6  -9 64470.2 3361.54   2
  -6  -5  -9 64939.7 3406.03   2
  -5  -6  -8 738.418 530.508   2
  -6  -5  -8 452.173 405.888   2
   5   6   8 791.259 463.671   1
   6   5   8 1272.07 513.466   1
  -5  -6  -8 832.207 434.988   1
  -6  -5  -8 853.226 466.114   1
   6 -11   8 1496.49 577.666   2
   5 -11   8 1572.68 624.546   2
  11  -6  -8 1721.27 574.155   1
  11  -6  -7 29769.3 2286.76   1
  -5  -6  -7 34675.9 2387.68   1
  -6  -5  -7 37048.8 2512.44   1
   5   6   7 37698.5 2458.20   1
   6   5   7 33384.2 2412.61   1
   6 -11   7 42841.9 2688.15   2
   5 -11   7 36710.0 2497.31   2
 -11   6   7 37989.7 2521.49   1
  11  -5  -7 28493.6 2214.18   1
  -5  -6  -7 37583.4 2550.95   2
  -6  -5  -7 34338.2 2454.13   2
  11  -6  -6 79531.1 3684.00   1
   6 -11   6 76902.2 3682.45   2
  -5  -6  -6 77895.9 3704.05   1
  -6  -5  -6 76936.4 3666.66   1
   5   6   6 72649.7 3603.31   1
   6   5   6 73071.5 3619.77   1
   5 -11   6 84547.3 3852.65   2
 -11   5   6 83954.1 3871.85   1
 -11   6   6 71891.8 3541.29   1
  11  -5  -6 81769.4 3722.19   1
  -5  -6  -6 74307.2 3630.34   2
  -6  -5  -6 80616.1 3811.03   2
  11  -6  -5 38217.5 2495.29   1
  -5  -6  -5 35515.6 2435.91   1
  -6  -5  -5 38518.3 2580.55   1
   5   6   5 37629.2 2517.46   1
   6   5   5 34735.2 2425.89   1
   6 -11   5 40197.0 2587.56   2
   5 -11   5 37844.7 2536.86   2
 -11   5   5 31237.2 2311.65   1
 -11   6   5 32542.8 2276.43   1
  11  -5  -5 41540.7 2582.48   1
  -5  -6  -5 40394.9 2616.81   2
  -6  11  -5 39439.3 2579.23   1
  -6  -5  -5 38725.1 2607.61   2
  -6  11  -4 25204.9 2085.19   1
  -5  11  -4 24647.7 2059.31   1
  11  -6  -4 26746.2 2060.77   1
   6 -11   4 26928.1 2099.87   1
  -5  -6  -4 21463.0 1914.60   1
  -6  -5  -4 26314.4 2096.80   1
   5   6   4 24306.6 2032.47   1
   6   5   4 26589.4 2083.86   1
   6 -11   4 24753.7 2024.64   2
 -11   5   4 20984.6 1878.94   1
   5 -11   4 26524.6 2091.73   2
  11  -5  -4 24325.0 1969.20   1
 -11   6   4 20209.2 1817.50   1
  -5  -6  -4 22599.9 1985.21   2
  -6  -5  -4 23418.9 2006.26   2
  11  -6  -3 117125. 4575.19   1
  -6  11  -3 123108. 4790.41   1
  -5  11  -3 128380. 4851.95   1
   6 -11   3 114708. 4639.65   1
  -5  -6  -3 119398. 4714.78   1
  -6  -5  -3 121996. 4790.82   1
   5   6   3 131263. 4828.51   1
   6   5   3 129377. 4813.98   1
 -11   5   3 114277. 4611.29   1
   5 -11   3 124068. 4769.34   1
   6 -11   3 125305. 4734.66   2
   5 -11   3 132752. 4877.91   2
 -11   6   3 132430. 4799.32   1
  11  -5  -3 124339. 4704.90   1
  -5  -6  -3 121467. 4712.02   2
  -6  -5  -3 111797. 4579.29   2
  -6  11  -2 292073. 8023.69   1
  -5  11  -2 296915. 8034.25   1
   5 -11   2 298347. 8058.90   1
  -5  -6  -2 290929. 7989.15   1
  -6  -5  -2 293835. 8026.54   1
   6 -11   2 297946. 7954.02   1
   5   6   2 301107. 8085.45   1
   6   5   2 289898. 7986.58   1
 -11   5   2 282698. 7830.46   1
   6 -11   2 295112. 7992.20   2
   5 -11   2 280659. 7846.91   2
 -11   6   2 304338. 8066.32   1
  11  -5  -2 301861. 8016.55   1
  -5  -6  -2 288335. 7962.74   2
  -6  -5  -2 299123. 8075.43   2
  11  -6  -2 312231. 8031.44   1
  -6  11  -1 47602.5 2788.13   1
  -5  11  -1 44775.4 2767.36   1
  -5  -6  -1 48222.7 2873.70   1
  -6  -5  -1 50372.3 2930.12   1
   5   6   1 49272.4 2844.26   1
   6   5   1 50723.1 2856.40   1
 -11   5   1 47879.7 2817.84   1
   6 -11   1 46333.6 2800.97   2
  11  -5  -1 51037.1 2867.89   1
 -11   6   1 47586.9 2809.51   1
   5 -11   1 49770.2 2864.78   2
   6 -11   1 47616.1 2801.11   1
  11  -6  -1 51358.3 2818.71   1
  -5  -6  -1 47106.2 2801.10   2
  -6  -5  -1 47343.6 2848.86   2
  -6  11   0 18767.1 1711.25   1
  -5  11   0 19500.1 1723.58   1
   5 -11   0 16145.1 1611.77   1
   6 -11   0 18152.0 1657.54   1
   6   5   0 16471.8 1627.98   1
 -11   5   0 19163.0 1750.34   1
  11  -5   0 17406.1 1635.97   1
 -11   6   0 20291.1 1739.75   1
   6 -11   0 18372.3 1758.31   2
   5 -11   0 16955.0 1670.37   2
  11  -6   0 17964.9 1691.55   1
  -5  -6   0 13991.0 1538.46   2
  -6  -5   0 19152.8 1809.37   2
 -11   6  -1 6062.94 1029.82   1
  -5  -6   1 6317.53 1086.89   2
  -6  -5   1 5799.13 994.520   2
  11  -6   1 5341.97 900.305   1
   5 -11  -1 4863.77 895.566   1
  -6  11   1 5529.62 971.407   1
  -5  11   1 5855.30 1028.08   1
  11  -5   1 6142.09 962.820   1
   6 -11  -1 6420.53 1005.75   2
   5 -11  -1 6313.16 1037.67   2
 -11   5  -1 7234.26 1030.70   1
  -6  11   2 251350. 7170.94   1
  -5  11   2 248179. 7187.07   1
   6 -11  -2 251109. 7160.72   1
   5 -11  -2 239547. 7062.15   1
  11  -5   2 257955. 7147.77   1
 -11   5  -2 257444. 7252.84   1
 -11   6  -2 257630. 7231.27   1
   6 -11  -2 251712. 7307.17   2
  11  -6   2 234996. 6962.03   1
   5 -11  -2 249797. 7269.55   2
  -5  -6   2 247282. 7402.14   2
  -6  11   3 70142.0 3423.39   1
  -5  11   3 64417.3 3314.09   1
   6 -11  -3 67107.2 3370.32   1
   5 -11  -3 62636.8 3303.29   1
  11  -5   3 66874.7 3304.03   1
 -11   5  -3 68195.0 3365.80   1
 -11   6  -3 63819.1 3264.30   1
  11  -6   3 72857.3 3375.39   1
   6 -11  -3 68956.4 3443.38   2
   5 -11  -3 67191.5 3434.73   2
  -6  11   4 16170.5 1611.33   1
   6 -11  -4 17559.7 1675.93   1
  -5  11   4 14138.4 1473.27   1
   5 -11  -4 12720.7 1497.89   1
  11  -5   4 15847.6 1534.00   1
 -11   5  -4 16683.2 1571.01   1
  11  -6   4 14870.0 1515.50   1
 -11   6  -4 15637.1 1535.88   1
   6 -11  -4 14647.7 1583.00   2
   5 -11  -4 14290.2 1561.73   2
  -6  11   5 76511.8 3643.91   1
   6 -11  -5 73942.3 3623.46   1
  -5  11   5 74563.3 3574.27   1
   5 -11  -5 76959.0 3671.55   1
  11  -5   5 80438.7 3666.53   1
  11  -6   5 81250.7 3599.15   1
 -11   5  -5 80584.6 3725.50   1
 -11   6  -5 82432.4 3675.52   1
   6 -11  -5 70187.3 3630.27   2
   5 -11  -5 72337.0 3629.73   2
  -6  11   6 86117.3 3851.42   1
   6 -11  -6 77332.0 3700.82   1
  -5  11   6 81325.1 3759.05   1
   5 -11  -6 82659.4 3849.56   1
  11  -5   6 83466.7 3770.13   1
  11  -6   6 75139.1 3586.99   1
 -11   5  -6 80150.5 3743.44   1
 -11   6  -6 74076.2 3594.86   1
   6 -11  -6 75397.4 3794.76   2
   5 -11  -6 79358.1 3810.68   2
  -6  11   7 26890.3 2139.53   1
   6 -11  -7 26787.3 2137.38   1
   5 -11  -7 26950.6 2096.71   1
  -5  11   7 27411.9 2115.17   1
  11  -5   7 26283.6 2031.60   1
  11  -6   7 26464.5 2059.64   1
 -11   5  -7 28437.5 2184.67   1
 -11   6  -7 26746.4 2062.03   1
   6 -11  -7 24241.5 2127.49   2
   5 -11  -7 24811.5 2139.22   2
  -6  11   8 16040.4 1682.22   1
   6 -11  -8 15880.6 1638.34   1
  -5  11   8 18260.9 1678.81   1
   5 -11  -8 18530.2 1724.40   1
  11  -5   8 17219.7 1651.28   1
  11  -6   8 18410.1 1716.15   1
 -11   5  -8 19025.5 1770.88   1
 -11   6  -8 17584.9 1737.29   1
   6 -11  -8 16056.9 1713.16   2
   5 -11  -8 16845.5 1730.64   2
  -6  11   9 55738.8 3154.01   1
   6 -11  -9 62354.5 3334.32   1
   5 -11  -9 59955.1 3278.38   1
  -5  11   9 57607.3 3133.07   1
  11  -5   9 70993.4 3459.30   1
  11  -6   9 59209.2 3214.40   1
 -11   5  -9 62175.5 3368.13   1
 -11   6  -9 62563.8 3321.68   1
   5 -11  -9 55856.8 3329.05   2
  -6  11  10 237756. 7072.15   1
   6 -11 -10 219770. 6848.21   1
   5 -11 -10 222833. 6939.19   1
  -5  11  10 220554. 6871.69   1
  11  -5  10 241501. 7198.44   1
  11  -6  10 247162. 7226.56   1
 -11   5 -10 243045. 7206.86   1
 -11   6 -10 233332. 7126.81   1
  11  -6  11 62140.2 3397.74   1
 -11   6 -11 70404.8 3658.09   1
   4 -11  11 942.457 457.442   2
  -7  -4 -10 11952.2 1457.77   2
  -4  -7 -10 11252.3 1397.31   1
  -7  -4 -10 9046.63 1264.85   1
   4   7  10 12408.3 1370.44   1
   4 -11  10 8776.06 1303.39   2
   7   4  10 11000.0 1332.56   1
  -4  -7 -10 10605.7 1360.42   2
  -7  -4  -9 13528.0 1598.34   2
  11  -7  -9 12548.3 1511.95   1
  -4  -7  -9 16373.9 1650.43   1
  -7  -4  -9 16179.8 1663.62   1
   4   7   9 13522.9 1526.06   1
   4 -11   9 12735.9 1543.62   2
   7   4   9 15062.3 1578.62   1
  -4  -7  -9 12936.5 1531.18   2
  -7  -4  -8 469933. 10891.7   2
  11  -7  -8 406782. 10476.6   1
  -4  -7  -8 485056. 10983.2   1
  -7  -4  -8 467380. 10898.5   1
   4   7   8 464675. 10795.8   1
   7 -11   8 476340. 11015.4   2
   4 -11   8 386919. 10361.2   2
   7   4   8 453791. 10671.7   1
 -11   7   8 383944. 10306.1   1
  -4  -7  -8 475103. 10823.8   2
   4   7   7 297.639 445.826   1
  -4  -7  -7 376.335 406.638   2
 -11   7   7 257.986 343.235   1
  -7  -4  -7 1088.18 588.748   2
   7   4   7-261.384 389.306   1
  11  -7  -7 245.228 367.345   1
  -4  -7  -7 53.4751 299.065   1
  -7  -4  -7-55.6141 357.448   1
   7 -11   7 689.721 522.042   2
   4 -11   7 105.641 391.538   2
   4   7   6 3325.21 772.206   1
  -4  -7  -6 3548.01 821.466   2
 -11   7   6 2601.30 689.290   1
  -7  -4  -6 3809.45 833.749   2
  -7  11  -6 2890.45 743.312   1
   7   4   6 4465.82 871.216   1
  11  -7  -6 4054.09 851.983   1
  -4  -7  -6 3830.52 828.883   1
  -7  -4  -6 4580.55 888.647   1
   7 -11   6 3243.33 732.868   2
   4 -11   6 2689.65 694.820   2
  -7  -4  -5 31284.0 2360.36   2
  11  -7  -5 37918.4 2443.53   1
  -4  -7  -5 30634.3 2313.79   1
  -7  -4  -5 28912.2 2224.99   1
   4   7   5 33459.4 2395.23   1
  11  -4  -5 36333.7 2462.97   1
 -11   4   5 38002.5 2508.36   1
   7 -11   5 32918.2 2376.70   2
   4 -11   5 31119.5 2327.35   2
   7 -11   5 34917.4 2388.15   1
   7   4   5 29457.2 2247.02   1
 -11   7   5 29020.3 2218.00   1
  -4  -7  -5 30829.7 2232.38   2
  -7  11  -5 33041.4 2385.18   1
  -7  -4  -4 203061. 6536.76   2
  11  -7  -4 227716. 6650.38   1
  -4  -7  -4 204946. 6488.22   1
  -7  -4  -4 201829. 6463.49   1
   4   7   4 208850. 6535.52   1
  11  -4  -4 203362. 6393.55   1
 -11   4   4 208137. 6551.59   1
   7 -11   4 231849. 6777.04   2
   4 -11   4 216092. 6623.32   2
   7   4   4 199429. 6463.78   1
 -11   7   4 211084. 6458.14   1
  -4  -7  -4 215446. 6534.30   2
   7 -11   4 208382. 6560.02   1
  -7  11  -4 211245. 6556.94   1
   4   7   3 529.221 347.711   1
  -4  -7  -3 1406.55 493.358   2
 -11   7   3 2253.65 616.644   1
  -7  -4  -3 1039.07 418.593   2
  11  -7  -3 1673.46 530.469   1
  -7  11  -3 1403.36 567.773   1
   7   4   3 1327.00 527.928   1
  -4  11  -3 1439.29 491.331   1
  -4  -7  -3 738.557 484.131   1
   7 -11   3 1558.31 568.929   1
  -7  -4  -3 1395.98 549.286   1
  11  -4  -3 1700.68 598.663   1
   7 -11   3 1223.35 506.770   2
   4 -11   3 960.110 536.492   2
 -11   4   3 1713.26 554.346   1
  -7  11  -2 33271.4 2360.22   1
  -4  11  -2 37974.2 2519.88   1
  11  -7  -2 36344.6 2395.80   1
   4 -11   2 35560.2 2428.18   1
   7 -11   2 31635.8 2304.87   1
  -4  -7  -2 35402.7 2403.48   1
  -7  -4  -2 31545.6 2309.70   1
   4   7   2 32266.9 2346.23   1
  11  -4  -2 39986.1 2477.97   1
 -11   4   2 36532.3 2417.06   1
   7 -11   2 35694.7 2477.46   2
   4 -11   2 34782.1 2367.01   2
   7   4   2 35783.1 2408.15   1
 -11   7   2 33559.2 2281.03   1
  -4  -7  -2 30120.0 2245.98   2
  -7  -4  -2 33455.7 2445.32   2
  -4  -7  -1 6589.68 1053.24   2
 -11   7   1 5465.22 932.988   1
  -7  -4  -1 5630.93 1089.27   2
   4 -11   1 4632.56 901.813   1
  -7  11  -1 6303.54 1038.98   1
   7   4   1 7152.89 1092.23   1
  -4  11  -1 6691.59 1075.32   1
   7 -11   1 5605.63 954.993   1
  -4  -7  -1 6359.01 1066.83   1
  -7  -4  -1 5849.28 996.963   1
  11  -4  -1 7003.80 1029.45   1
  11  -7  -1 4484.90 896.551   1
   7 -11   1 6670.33 1123.94   2
   4 -11   1 6209.63 1015.35   2
 -11   4   1 7729.50 1113.41   1
   4   7   1 6140.47 1038.98   1
  11  -7   0 454511. 10489.1   1
  -7  11   0 429237. 10546.4   1
  -4  11   0 464580. 10776.4   1
   4 -11   0 425534. 10573.8   1
   7 -11   0 432823. 10434.3   1
  11  -4   0 480994. 10693.5   1
   7 -11   0 435669. 10676.0   2
 -11   7   0 463896. 10630.0   1
   4 -11   0 444687. 10601.4   2
   7   4   0 425992. 10487.1   1
  -4  -7   0 449257. 10692.5   2
  -7  -4   0 485186. 11172.1   2
  -4  -7   1 1036.33 473.096   2
 -11   7  -1 1176.48 538.358   1
   4 -11  -1 1331.38 522.562   1
  -7  11   1 1043.15 438.648   1
   7 -11  -1 1230.96 539.653   1
  -4  11   1 1785.58 657.086   1
  11  -7   1 1647.65 564.854   1
  11  -4   1 1250.44 523.263   1
   7 -11  -1 1819.13 615.635   2
 -11   4  -1 3.78787 318.594   1
   4 -11  -1 605.404 497.048   2
   7 -11  -2 40412.3 2555.75   1
  -7  11   2 43459.8 2591.92   1
  -4  11   2 41848.3 2585.79   1
   4 -11  -2 38916.4 2574.67   1
  11  -4   2 38394.3 2488.66   1
 -11   4  -2 42941.4 2597.69   1
   7 -11  -2 37804.2 2615.20   2
 -11   7  -2 39500.6 2527.43   1
   4 -11  -2 40219.1 2597.73   2
  -4  -7   2 37173.5 2565.24   2
  11  -7   2 37700.7 2402.62   1
  -4  -7   3 6495.11 1087.59   2
 -11   7  -3 6328.39 1035.80   1
  -7  11   3 7965.17 1158.13   1
  11  -7   3 7984.88 1137.23   1
   4 -11  -3 8126.43 1186.46   1
   7 -11  -3 6063.19 997.669   1
  -4  11   3 6641.43 1045.62   1
  11  -4   3 7452.29 1088.50   1
   7 -11  -3 6723.81 1096.30   2
 -11   4  -3 8202.07 1157.72   1
   4 -11  -3 8035.66 1179.25   2
  -7  11   4 227683. 6798.31   1
   4 -11  -4 228073. 6953.46   1
  -4  11   4 218210. 6680.17   1
  11  -4   4 231575. 6812.97   1
 -11   7  -4 218612. 6720.96   1
   7 -11  -4 229850. 7041.08   2
  11  -7   4 239878. 6848.92   1
   4 -11  -4 227332. 6942.04   2
  11  -7   5 168.134 274.925   1
   7 -11  -5-464.963 385.956   1
   4 -11  -5 190.362 395.799   1
  11  -4   5 260.410 349.771   1
  -7  11   5 197.118 499.505   1
  -4  11   5 325.776 352.713   1
 -11   4  -5 482.123 423.731   1
   7 -11  -5 546.967 445.514   2
   4 -11  -5 173.128 352.858   2
 -11   7  -5 72.0757 330.389   1
   7 -11  -6 4524.43 873.376   1
  11  -4   6 4675.33 909.665   1
   4 -11  -6 3825.25 802.699   1
  -7  11   6 3881.33 846.988   1
  -4  11   6 5117.65 967.975   1
 -11   4  -6 5099.39 933.718   1
  11  -7   6 6600.67 1031.48   1
   7 -11  -6 4432.95 960.013   2
   4 -11  -6 5836.45 1061.54   2
 -11   7  -6 4812.66 926.912   1
  -7  11   7 25760.0 1968.97   1
   7 -11  -7 20845.5 1826.39   1
   4 -11  -7 20272.0 1888.57   1
  -4  11   7 20631.0 1836.36   1
  11  -4   7 24499.8 2019.71   1
 -11   4  -7 19855.3 1859.39   1
  11  -7   7 24306.5 1978.37   1
 -11   7  -7 21329.9 1858.39   1
   7 -11  -7 18079.2 1895.81   2
   4 -11  -7 23142.7 2016.64   2
  -7  11   8 496515. 11391.5   1
   7 -11  -8 515711. 11502.4   1
   4 -11  -8 510590. 11586.4   1
  -4  11   8 489874. 11316.5   1
  11  -4   8 449333. 11139.3   1
  11  -7   8 501520. 11380.7   1
 -11   4  -8 505908. 11575.0   1
 -11   7  -8 485976. 11321.3   1
   4 -11  -8 452579. 11406.3   2
  11  -4   9-96.7415 296.686   1
   7 -11  -9-259.114 367.019   1
   4 -11  -9 637.130 518.131   1
  -7  11   9 116.262 414.676   1
  11  -7   9-288.644 334.774   1
  -4  11   9-236.892 438.159   1
 -11   4  -9 49.9631 284.735   1
 -11   7  -9-371.537 450.032   1
   4 -11  -9 50.1215 357.901   2
  -7  11  10 33153.0 2407.98   1
   7 -11 -10 31231.8 2399.06   1
   4 -11 -10 32714.5 2403.01   1
  -4  11  10 35344.9 2444.54   1
  11  -4  10 37652.1 2514.36   1
  11  -7  10 33320.0 2426.52   1
 -11   4 -10 34301.5 2499.13   1
 -11   7 -10 30733.9 2372.42   1
   4 -11 -10 27495.9 2343.76   2
  11  -7  11 5764.91 1034.91   1
 -11   7 -11 5454.80 1050.08   1
   4 -11 -11 4178.65 945.402   2
  11  -8 -10 46406.2 2992.03   1
   3 -11  10 44942.3 3022.37   2
  -8  -3  -9 119515. 4867.34   2
  -3  -8  -9 124388. 4922.37   1
  -8  -3  -9 124158. 4908.09   1
  11  -8  -9 95148.8 4401.98   1
   3   8   9 117718. 4733.32   1
   3 -11   9 108099. 4784.50   2
   8   3   9 118552. 4725.10   1
 -11   8   9 100684. 4520.22   1
  -3  -8  -9 120358. 4753.99   2
  -3  -8  -8 224.564 307.618   2
  -8  -3  -8-50.6529 391.284   2
 -11   8   8 246.225 332.077   1
   8   3   8 131.113 282.809   1
  -3  -8  -8 634.689 485.605   1
  -8  -3  -8 428.329 334.766   1
  11  -8  -8-169.207 256.882   1
   3 -11   8 257.764 378.574   2
   3   8   8 171.125 322.434   1
  -8  -3  -7 118318. 4761.18   2
  -3  -8  -7 114122. 4739.44   1
  11  -8  -7 112335. 4582.47   1
  -8  -3  -7 119711. 4768.20   1
   3   8   7 116007. 4685.58   1
   3 -11   7 113376. 4683.51   2
   8   3   7 127851. 4846.64   1
  -8  11  -7 107845. 4633.38   1
 -11   8   7 102041. 4433.03   1
  -3  -8  -7 112628. 4643.07   2
  -8  -3  -6 292570. 8154.29   2
  -3  -8  -6 271916. 7940.97   1
  11  -8  -6 296696. 7950.51   1
   8 -11   6 263050. 7771.31   1
  -8  -3  -6 253681. 7786.89   1
   3   8   6 293526. 8092.69   1
   8 -11   6 303341. 8225.59   2
   3 -11   6 284696. 8062.29   2
   8   3   6 286988. 7940.01   1
 -11   8   6 315088. 8196.71   1
  -8  11  -6 267581. 7867.65   1
  -3  -8  -6 282114. 7878.11   2
  -8  -3  -5 33367.3 2495.39   2
  -3  -8  -5 33171.8 2460.67   1
  11  -8  -5 40527.0 2589.62   1
  -8  -3  -5 35890.7 2521.67   1
   3   8   5 38568.6 2555.46   1
   8 -11   5 35546.9 2438.90   1
   8 -11   5 35838.2 2490.57   2
   3 -11   5 37140.8 2557.52   2
   8   3   5 38263.4 2543.66   1
 -11   8   5 36246.3 2488.12   1
  -8  11  -5 36278.8 2511.92   1
  -3  -8  -5 38716.8 2562.27   2
  -8  -3  -4 138759. 5244.63   2
  -3  -8  -4 129244. 5081.64   1
  11  -8  -4 139538. 5019.28   1
  -8  -3  -4 137022. 5116.13   1
   3   8   4 139694. 5181.06   1
  11  -3  -4 133739. 5085.55   1
 -11   3   4 143589. 5237.03   1
   8 -11   4 136638. 5058.90   1
   8 -11   4 146401. 5350.97   2
   3 -11   4 141373. 5191.83   2
 -11   8   4 136247. 5035.24   1
   8   3   4 138301. 5158.32   1
  -3  -8  -4 148562. 5245.38   2
  -8  11  -4 141925. 5170.94   1
  -8  -3  -3 9531.58 1331.14   2
  11  -8  -3 9171.06 1223.55   1
  -3  -8  -3 9903.88 1354.25   1
  -8  -3  -3 9053.08 1279.32   1
   3   8   3 9494.96 1298.93   1
  11  -3  -3 10773.0 1309.44   1
 -11   3   3 9762.20 1286.79   1
   8 -11   3 11076.9 1376.75   2
   3 -11   3 10031.6 1314.69   2
   8 -11   3 8841.99 1215.62   1
 -11   8   3 11039.9 1341.72   1
   8   3   3 9347.67 1234.80   1
  -3  -8  -3 10194.4 1324.13   2
  -8  11  -3 9647.25 1254.59   1
  -8  -3  -2 135074. 5440.10   2
  -3  11  -2 138068. 5183.58   1
  11  -8  -2 150715. 5195.05   1
  -3  -8  -2 127537. 5086.48   1
  -8  -3  -2 143754. 5264.87   1
   3   8   2 141092. 5203.39   1
  11  -3  -2 137346. 5086.38   1
 -11   3   2 134036. 5058.69   1
   8 -11   2 144889. 5308.71   2
   3 -11   2 149897. 5276.43   2
 -11   8   2 157478. 5361.57   1
   8   3   2 147725. 5279.37   1
  -3  -8  -2 133951. 5073.78   2
  -8  11  -2 138762. 5104.61   1
   8 -11   2 140371. 5106.91   1
  -3  -8  -1 6085.70 1035.92   2
 -11   8   1 5822.36 1003.04   1
  -8  -3  -1 4752.09 1010.74   2
  -8  11  -1 4754.74 913.511   1
   3 -11   1 5629.45 1032.45   1
  11  -8  -1 5731.78 947.553   1
  11  -3  -1 5975.73 990.382   1
   8   3   1 6380.36 1026.60   1
  -3  11  -1 6554.67 1034.44   1
  -8  -3  -1 6709.54 1102.55   1
   8 -11   1 4798.00 903.738   1
   8 -11   1 4754.40 996.581   2
   3   8   1 6737.44 1082.83   1
 -11   3   1 5226.73 943.071   1
   3 -11   1 6882.68 1049.60   2
  -3  -8   0 4005.84 861.696   2
 -11   8   0 4980.69 832.436   1
  11  -8   0 4614.52 830.321   1
  -8  11   0 5530.99 980.083   1
   3 -11   0 5556.02 979.776   1
  11  -3   0 4783.58 895.958   1
   8   3   0 4768.09 855.788   1
  -3  11   0 4744.30 925.687   1
   8 -11   0 4287.29 880.786   2
 -11   3   0 4472.76 899.719   1
   3 -11   0 5950.52 962.490   2
   8 -11   0 4700.85 936.817   1
  -8  11   1 33372.2 2295.55   1
  11  -8   1 34383.1 2289.84   1
   3 -11  -1 29678.3 2299.52   1
  -3  11   1 27770.4 2170.80   1
   8 -11  -1 34861.2 2385.33   1
  11  -3   1 29661.7 2204.48   1
 -11   3  -1 34032.1 2391.49   1
   8 -11  -1 28968.6 2270.76   2
   3 -11  -1 31215.8 2260.39   2
 -11   8  -1 32500.6 2247.72   1
  -3  -8   1 31669.6 2340.49   2
  -8  11   2 108155. 4435.81   1
  11  -8   2 116337. 4422.50   1
   3 -11  -2 107485. 4460.59   1
  -3  11   2 105202. 4367.09   1
  11  -3   2 96464.2 4257.74   1
   8 -11  -2 115633. 4477.28   1
 -11   3  -2 109157. 4485.70   1
   8 -11  -2 104572. 4484.85   2
 -11   8  -2 112743. 4382.34   1
   3 -11  -2 106751. 4408.38   2
  -3  -8   2 105414. 4487.55   2
  11  -8   3 140945. 4942.22   1
  -8  11   3 138162. 4992.42   1
   3 -11  -3 127643. 4990.55   1
  -3  11   3 137503. 5021.95   1
  11  -3   3 132838. 4972.87   1
 -11   3  -3 156725. 5392.21   1
   8 -11  -3 124246. 4836.38   1
   8 -11  -3 131123. 5116.55   2
 -11   8  -3 137071. 4995.85   1
   3 -11  -3 138665. 5130.23   2
  -3  -8   3 110865. 4718.44   2
 -11   8  -4 3565.94 805.270   1
   8 -11  -4 4610.09 833.703   1
  11  -3   4 4332.78 848.495   1
  -8  11   4 3962.46 835.950   1
   3 -11  -4 3018.03 761.374   1
  11  -8   4 4584.70 917.672   1
  -3  11   4 4417.04 864.133   1
 -11   3  -4 3282.85 845.711   1
   8 -11  -4 4442.66 913.539   2
   3 -11  -4 2900.76 726.676   2
  -3  -8   4 3298.44 817.499   2
  -8  11   5 158475. 5538.41   1
   3 -11  -5 155935. 5613.04   1
  -3  11   5 160319. 5580.18   1
  11  -3   5 166411. 5669.84   1
 -11   3  -5 143334. 5364.26   1
   8 -11  -5 150666. 5657.88   2
 -11   8  -5 169100. 5665.43   1
   3 -11  -5 163727. 5732.47   2
  11  -8   5 158951. 5451.83   1
   8 -11  -5 168899. 5582.04   1
   8 -11  -6 241289. 7033.04   1
  -8  11   6 237680. 7081.29   1
   3 -11  -6 230487. 7186.57   1
  -3  11   6 240098. 7161.12   1
  11  -3   6 248457. 7211.31   1
 -11   3  -6 268308. 7472.81   1
 -11   8  -6 245338. 7209.68   1
   8 -11  -6 225777. 7320.46   2
  11  -8   6 255006. 7198.29   1
   3 -11  -6 250260. 7403.44   2
  -8  11   7 79521.0 3746.65   1
   3 -11  -7 76860.7 3734.26   1
   8 -11  -7 78508.5 3736.07   1
  -3  11   7 76531.7 3682.06   1
  11  -3   7 75166.0 3621.46   1
 -11   3  -7 75593.0 3670.42   1
 -11   8  -7 78228.8 3689.41   1
  11  -8   7 70920.4 3549.19   1
   3 -11  -7 76799.0 3804.39   2
  -8  11   8 103229. 4360.33   1
   3 -11  -8 102641. 4396.27   1
  11  -3   8 93592.1 4148.65   1
  -3  11   8 110198. 4521.62   1
   8 -11  -8 104018. 4405.37   1
 -11   3  -8 104901. 4469.03   1
  11  -8   8 108437. 4409.10   1
 -11   8  -8 104348. 4467.38   1
   3 -11  -8 101884. 4509.29   2
  -8  11   9 15918.8 1598.23   1
  11  -3   9 14780.2 1585.34   1
   3 -11  -9 15330.5 1641.89   1
  -3  11   9 13352.1 1482.99   1
   8 -11  -9 12919.8 1530.27   1
 -11   3  -9 14237.1 1591.60   1
  11  -8   9 12591.5 1473.62   1
 -11   8  -9 14128.3 1606.21   1
   3 -11  -9 12626.6 1536.37   2
  11  -8  10 149562. 5456.98   1
 -11   8 -10 139903. 5350.58   1
   3 -11 -10 141936. 5489.26   2
   3 -11 -11 2607.02 721.166   2
  11  -9 -10 39103.7 2729.28   1
  11  -9  -9 22325.0 2015.63   1
   2 -11   9 22920.1 2091.56   2
 -11   9   9 21866.6 2000.41   1
  -2  -9  -8 1601.61 618.844   2
  -9  11  -8 1953.04 622.470   1
  -9  -2  -8 1406.70 506.206   2
 -11   9   8 1904.81 591.744   1
  -2  -9  -8 1951.96 645.690   1
   9   2   8 2190.21 639.957   1
  -9  -2  -8 1117.80 489.939   1
   2   9   8 1445.90 590.938   1
   2 -11   8 1302.71 652.372   2
  11  -9  -8 1783.78 577.493   1
  -9  -2  -7 16642.9 1754.90   2
   9 -11   7 17378.3 1760.18   1
  -2  -9  -7 16925.5 1706.87   1
   2   9   7 17617.0 1790.53   1
  -9  -2  -7 17909.6 1815.54   1
  11  -9  -7 18085.3 1760.97   1
   2 -11   7 17843.0 1756.39   2
  -9  11  -7 16420.5 1725.39   1
  -2  -9  -7 18957.2 1823.84   2
 -11   9   7 20227.2 1879.86   1
   9   2   7 17203.4 1694.19   1
  -9  -2  -6 197020. 6635.91   2
   9 -11   6 183036. 6305.29   1
  -2  -9  -6 208268. 6649.33   1
   2   9   6 217530. 6729.83   1
  -9  -2  -6 229386. 6973.68   1
  11  -9  -6 228246. 6738.49   1
   2 -11   6 216623. 6882.88   2
  -9  11  -6 187461. 6451.32   1
  -2  -9  -6 220761. 6686.47   2
 -11   9   6 198709. 6498.74   1
   9   2   6 213109. 6616.30   1
  -9  -2  -5 154287. 5756.73   2
  -2  -9  -5 150450. 5610.17   1
   9 -11   5 150899. 5497.00   1
   2   9   5 167386. 5841.47   1
  -9  -2  -5 170204. 5930.97   1
  11  -9  -5 175724. 5746.59   1
   2 -11   5 165858. 5831.81   2
  -9  11  -5 168585. 5795.53   1
 -11   9   5 180201. 5919.98   1
  -2  -9  -5 168792. 5734.41   2
   9   2   5 166314. 5742.07   1
  -9  -2  -4 58993.7 3445.60   2
  -2  -9  -4 61019.1 3376.55   1
   2   9   4 57724.9 3269.68   1
  -9  -2  -4 59861.6 3342.93   1
  11  -9  -4 71502.5 3467.33   1
   9 -11   4 67504.4 3395.55   1
   2 -11   4 63691.7 3402.92   2
  -2  -9  -4 66180.5 3421.84   2
 -11   9   4 68291.5 3457.35   1
  -9  11  -4 65503.6 3452.07   1
   9   2   4 67451.9 3488.85   1
  -9  -2  -3 30302.2 2481.83   2
  -2  -9  -3 33386.8 2468.39   1
  11  -2  -3 30210.6 2337.88   1
   2   9   3 37182.9 2555.88   1
  11  -9  -3 40694.7 2595.48   1
  -9  -2  -3 33371.9 2455.50   1
   9 -11   3 37220.1 2474.46   1
   9 -11   3 35531.7 2561.22   2
   2 -11   3 37451.2 2541.62   2
 -11   9   3 37874.3 2500.75   1
  -2  -9  -3 37161.8 2494.55   2
  -9  11  -3 36198.0 2477.05   1
   9   2   3 29436.7 2325.49   1
  -9  -2  -2 186747. 6745.68   2
  -2  -9  -2 201038. 6712.02   1
  11  -2  -2 216555. 6762.74   1
  11  -9  -2 225135. 6589.40   1
   2   9   2 214097. 6797.67   1
  -9  -2  -2 177781. 6411.46   1
 -11   2   2 240634. 7115.08   1
   9 -11   2 230841. 6732.03   1
   9 -11   2 213710. 6892.82   2
   2 -11   2 220317. 6674.64   2
 -11   9   2 238116. 6823.90   1
  -2  -9  -2 223156. 6742.16   2
  -9  11  -2 221379. 6735.29   1
   9   2   2 216074. 6755.44   1
  -2  -9  -1 708.314 425.865   2
 -11   9   1 971.563 439.080   1
   9 -11   1 1150.71 522.982   1
  11  -2  -1 534.318 328.410   1
  -9  11  -1 1385.08 552.089   1
  11  -9  -1 677.290 496.960   1
   9   2   1 836.454 475.898   1
  -9  -2  -1 909.770 436.415   1
   9 -11   1 1094.81 541.412   2
 -11   2   1 684.634 400.233   1
   2 -11   1 301.980 361.737   2
  -2  -9   0 4966.50 937.238   2
 -11   9   0 4671.42 904.588   1
  11  -2   0 6400.60 1038.07   1
  -9  11   0 5063.63 918.263   1
   2 -11   0 4792.61 998.124   1
   9 -11   0 6638.00 1033.36   1
  11  -9   0 6088.23 991.591   1
  -2  11   0 4691.99 920.836   1
   9   2   0 5885.29 943.323   1
   9 -11   0 4928.96 984.230   2
 -11   2   0 4239.61 863.598   1
   2 -11   0 5793.49 912.773   2
   9 -11  -1 73117.2 3527.11   1
   2 -11  -1 65533.1 3474.16   1
  11  -9   1 68318.1 3348.66   1
  -2  11   1 68421.9 3527.85   1
  11  -2   1 75231.1 3662.49   1
 -11   2  -1 65028.7 3432.88   1
   9 -11  -1 69859.2 3636.80   2
   2 -11  -1 69927.2 3558.51   2
 -11   9  -1 74733.9 3537.62   1
  -2  -9   1 65546.8 3476.07   2
  -9  11   1 70658.4 3491.50   1
  11  -9   2 83369.0 3716.63   1
   9 -11  -2 82512.5 3771.25   1
   2 -11  -2 74062.4 3765.12   1
  -2  11   2 80538.3 3775.23   1
  11  -2   2 78415.3 3772.91   1
 -11   2  -2 71574.9 3642.70   1
   9 -11  -2 64838.2 3677.58   2
 -11   9  -2 78360.9 3637.43   1
   2 -11  -2 79051.9 3774.93   2
  -2  -9   2 71333.6 3645.85   2
  -9  11   2 83783.7 3740.56   1
  -9  11   3 143481. 5096.49   1
  11  -9   3 135915. 4882.71   1
   2 -11  -3 117297. 4855.51   1
   9 -11  -3 133907. 4968.87   1
  -2  11   3 125139. 4933.71   1
  11  -2   3 130930. 5010.01   1
 -11   2  -3 129880. 4991.71   1
   9 -11  -3 123039. 5083.44   2
 -11   9  -3 140101. 4977.20   1
   2 -11  -3 128682. 5009.42   2
  -2  -9   3 116986. 4859.71   2
  -9  11   4 12921.6 1485.76   1
  11  -9   4 13245.0 1398.29   1
 -11   2  -4 8122.57 1179.09   2
   2 -11  -4 10435.8 1385.62   1
  11  -2   4 11863.2 1449.48   1
  -2  11   4 11362.9 1384.61   1
   9 -11  -4 13590.7 1505.50   1
 -11   2  -4 10467.7 1370.93   1
   9 -11  -4 11824.6 1496.76   2
 -11   9  -4 12182.3 1432.16   1
  -2  -9   4 12106.6 1521.24   2
   2 -11  -4 12123.7 1458.55   2
  -9  11   5 99892.4 4171.44   1
 -11   2  -5 65778.1 3746.34   2
   2 -11  -5 86303.5 4034.18   1
  11  -2   5 99032.7 4158.41   1
  -2  11   5 82489.3 3970.04   1
   9 -11  -5 95560.1 4020.59   1
 -11   2  -5 89860.0 4117.06   1
 -11   9  -5 90333.2 4046.09   1
  -2  -9   5 79688.3 4014.95   2
   2 -11  -5 84702.9 4014.23   2
  11  -9   5 96676.2 4062.80   1
  -9  11   6 206346. 6414.08   1
  11  -2   6 200967. 6474.83   1
   2 -11  -6 195186. 6447.72   1
  -2  11   6 204241. 6497.61   1
   9 -11  -6 205188. 6350.61   1
 -11   2  -6 210896. 6633.63   1
 -11   9  -6 201735. 6452.50   1
   2 -11  -6 204075. 6513.88   2
  11  -9   6 206084. 6411.50   1
  -9  11   7 28258.5 2218.11   1
 -11   2  -7 22975.1 2195.24   2
  11  -2   7 30898.2 2287.21   1
   2 -11  -7 26797.9 2206.97   1
  -2  11   7 29487.9 2266.45   1
   9 -11  -7 33532.8 2330.05   1
 -11   2  -7 29156.4 2241.63   1
 -11   9  -7 32626.8 2318.99   1
  11  -9   7 29670.6 2203.80   1
   2 -11  -7 28826.9 2254.05   2
  -9  11   8 9680.15 1298.28   1
 -11   2  -8 6361.61 1153.26   2
  11  -2   8 10067.6 1357.17   1
   2 -11  -8 8667.56 1183.16   1
  -2  11   8 8508.26 1211.52   1
 -11   9  -8 8311.89 1213.69   1
 -11   2  -8 8716.55 1231.25   1
  11  -9   8 7680.47 1181.78   1
   9 -11  -8 8347.48 1217.48   1
   2 -11  -8 7577.03 1179.14   2
  11  -9   9 3321.42 797.580   1
 -11   9  -9 3240.36 797.652   1
 -10  11  -8 109827. 4724.92   1
 -10  11  -7 4704.07 954.743   1
 -10  -1  -7 4837.85 967.199   2
  -1 -10  -7 4367.07 914.001   1
   1  10   7 5296.78 995.423   1
  10 -11   7 4604.06 938.893   1
   1 -11   7 4626.87 999.467   2
 -10  11  -6 7956.23 1176.48   1
  10 -11   6 6952.89 1095.32   1
 -10  -1  -6 6785.60 1129.14   2
 -11  10   6 7259.44 1101.19   1
  -1 -10  -6 7060.05 1169.54   1
  10   1   6 8233.00 1219.87   1
 -10  -1  -6 6966.32 1157.79   1
   1  10   6 7256.09 1176.67   1
   1 -11   6 6329.81 1083.56   2
  11 -10  -6 6475.99 1087.38   1
  -1 -10  -5 6025.47 1049.43   2
 -10  11  -5 4890.43 947.810   1
 -10  -1  -5 4638.78 975.152   2
 -11  10   5 5886.81 1054.95   1
  -1 -10  -5 5401.13 962.370   1
  10 -11   5 5208.36 937.917   1
  10   1   5 5496.82 996.043   1
 -10  -1  -5 6062.85 1071.89   1
   1  10   5 6082.78 1016.14   1
   1 -11   5 6116.26 1054.28   2
  11 -10  -5 4852.38 890.975   1
  10   1   4 264854. 7629.11   1
 -10  -1  -4 216823. 7395.60   2
  -1 -10  -4 213822. 7139.67   1
  10 -11   4 255264. 7333.80   1
   1  10   4 232827. 7235.64   1
 -10  -1  -4 241529. 7331.32   1
  11 -10  -4 258840. 7309.70   1
   1 -11   4 243619. 7364.39   2
 -10  11  -4 242749. 7273.43   1
  -1 -10  -4 254217. 7350.55   2
 -11  10   4 266550. 7481.50   1
  -1 -10  -3 104.526 395.497   2
 -10  11  -3 759.869 541.205   1
 -11  10   3 137.677 368.470   1
  -1 -10  -3 395.662 335.615   1
  10   1   3 443.834 460.364   1
  10 -11   3 392.810 352.251   1
 -10  -1  -3-66.8852 391.600   1
   1  10   3 589.563 432.464   1
  11 -10  -3 563.796 370.238   1
   1 -11   3 274.062 434.893   2
  -1 -10  -2 1574.47 565.139   2
 -11  10   2 2201.93 668.482   1
 -10  11  -2 1405.25 517.736   1
  -1 -10  -2 677.388 431.378   1
  10   1   2 1542.56 617.375   1
 -10  -1  -2 1892.07 641.882   1
   1  10   2 953.376 470.590   1
  11 -10  -2 1587.01 535.019   1
  10 -11   2 1731.42 543.811   1
   1 -11   2 1304.93 579.053   2
 -11  10   1 2118.19 618.743   1
 -10  11  -1 3291.95 776.287   1
  10   1   1 1272.80 526.718   1
  11 -10  -1 2839.14 722.500   1
 -10  -1  -1 1722.71 631.250   1
 -11   1   1 1789.37 633.717   1
  10 -11   1 1925.19 613.031   1
   1 -11   1 1424.45 597.766   2
  11  -1  -1 1947.88 677.237   1
  -1 -10  -1 1417.00 519.896   2
  10   1   0 349086. 9581.79   1
  11  -1   0 379979. 9755.24   1
  11 -10   0 399419. 9518.82   1
 -11   1   0 348348. 9507.58   1
  10 -11   0 393265. 9504.38   1
   1 -11   0 386944. 9706.26   2
  -1 -10   0 362104. 9490.63   2
 -11  10   0 383942. 9504.07   1
 -10  11   0 391653. 9607.72   1
  10 -11  -1 2369.69 598.122   1
 -11  10  -1 2616.14 661.681   1
 -10  11   1 3100.14 640.514   1
  11 -10   1 4245.22 845.805   1
  -1  11   1 3593.73 862.810   1
 -11   1  -1 1967.31 654.329   1
  11  -1   1 2047.21 639.720   1
   1 -11  -1 2293.22 704.133   2
  -1 -10   1 2217.24 692.726   2
 -11  10  -2 566.525 448.906   1
 -10  11   2 278.569 439.434   1
  10 -11  -2-53.7381 364.798   1
   1 -11  -2-373.214 400.789   1
  11 -10   2-226.091 377.392   1
  -1  11   2-126.440 318.669   1
 -11   1  -2 191.521 327.815   1
  11  -1   2 259.922 397.989   1
  -1 -10   2 331.648 512.195   2
   1 -11  -2 77.8894 376.132   2
 -11  10  -3 7319.94 1129.95   1
 -10  11   3 7748.11 1115.27   1
  11 -10   3 7492.48 1079.86   1
   1 -11  -3 5285.53 1021.68   1
  10 -11  -3 9172.21 1216.24   1
  -1  11   3 6364.11 1068.17   1
 -11   1  -3 5104.27 949.066   1
  11  -1   3 6844.78 1109.05   1
  -1 -10   3 4697.86 955.003   2
   1 -11  -3 7845.68 1222.23   2
  10 -11  -4 169970. 5682.29   1
 -11   1  -4 119018. 5399.97   2
  11 -10   4 163376. 5540.05   1
  11  -1   4 170653. 5868.19   1
   1 -11  -4 152785. 5643.57   1
  -1  11   4 153734. 5594.45   1
 -11   1  -4 160923. 5754.40   1
  -1 -10   4 136473. 5512.78   2
 -11  10  -4 165338. 5571.84   1
   1 -11  -4 166709. 5702.63   2
 -10  11   4 181524. 5857.22   1
  11 -10   5 8331.04 1169.26   1
 -11  10  -5 8220.78 1135.47   1
  10 -11  -5 8721.74 1225.92   1
 -11   1  -5 4538.54 956.988   2
   1 -11  -5 7922.06 1184.19   1
  -1  11   5 7673.06 1157.82   1
 -11   1  -5 8052.89 1213.55   1
  11  -1   5 8582.97 1291.02   1
   1 -11  -5 8303.37 1216.80   2
  -1 -10   5 7380.20 1148.31   2
 -10  11   5 8960.20 1234.20   1
 -11  10  -6 1497.05 606.224   1
 -11   1  -6 1135.40 525.768   2
 -10  11   6 524.201 299.820   1
   1 -11  -6 1470.44 645.673   1
  11 -10   6 1120.30 477.311   1
  -1  11   6 1685.93 643.967   1
  10 -11  -6 1166.89 515.373   1
 -11   1  -6 1547.81 602.543   1
  11  -1   6 1538.17 560.849   1
  -1 -10   6 258.915 358.822   2
   1 -11  -6 1002.06 493.533   2
 -11  10  -7 8727.24 1217.06   1
 -11   1  -7 7375.44 1160.40   2
  11 -10   7 9738.32 1282.88   1
  11   0   0 25294.6 2197.36   1
   0 -11   0 23088.0 2030.76   2
  11   0   1 14357.7 1619.46   1
  11 -11   1 13058.4 1457.10   1
 -11   0  -1 11869.5 1520.13   1
   0 -11   1 13538.4 1590.57   2
   0 -11  -1 14110.0 1589.56   2
 -11  11  -1 14874.3 1563.74   1
  11   0   2 103890. 4584.70   1
   0  11   2 103958. 4612.33   1
 -11   0  -2 91148.8 4321.68   1
   0 -11   2 117193. 4802.85   2
 -11  11  -2 116234. 4629.52   1
  11   0   3 74474.5 3722.88   1
   0 -11  -3 60889.2 3492.24   1
   0  11   3 63669.6 3528.68   1
 -11   0  -3 58096.3 3420.50   1
   0 -11   3 72093.9 3692.80   2
  11   0   4 25401.2 2201.05   1
   0 -11  -4 21778.5 2064.31   1
   0  11   4 22489.6 1987.59   1
 -11   0  -4 22691.7 2073.87   1
   0 -11   4 25042.0 2164.81   2
   0 -11  -5 77601.3 3972.55   1
   0  11   5 79972.3 3933.75   1
   0 -11   5 76096.8 3950.48   2
  -6  -6  -7 475.111 450.640   2
   6   6   7 255.495 446.063   1
  -6  -6  -7-208.423 447.650   1
   6 -12   7 358.358 402.355   2
  -6  -6  -6 35972.7 2558.17   1
   6   6   6 35281.9 2493.02   1
   6 -12   6 37250.0 2534.22   2
 -12   6   6 32454.8 2436.67   1
  12  -6  -6 33415.2 2420.58   1
  -6  -6  -6 36557.3 2531.80   2
 -12   6   5 121.407 351.619   1
  -6  -6  -5 321.917 334.191   2
   6   6   5 201.958 292.198   1
  12  -6  -5 277.213 402.829   1
  -6  -6  -5-113.202 358.109   1
   6 -12   5 70.7380 436.253   2
  -6  -6  -4 374898. 10040.9   1
   6   6   4 410991. 10322.4   1
 -12   6   4 408555. 10229.7   1
   6 -12   4 460869. 10539.7   2
  12  -6  -4 409064. 10128.9   1
  -6  -6  -4 444872. 10516.1   2
  -6  -6  -3-299.722 359.704   2
   6   6   3 106.908 274.021   1
  12  -6  -3 325.645 407.585   1
   6 -12   3-24.3629 329.445   1
  -6  12  -3 329.388 411.555   1
  -6  -6  -3-368.567 391.056   1
   6 -12   3-317.778 436.444   2
 -12   6   3 323.793 404.166   1
  -6  -6  -2 3236.85 800.422   2
  12  -6  -2 5747.16 1005.39   1
   6   6   2 4201.03 855.906   1
  -6  12  -2 4029.85 830.966   1
   6 -12   2 3126.62 768.184   1
   6 -12   2 3230.41 805.003   2
 -12   6   2 4200.90 845.704   1
  12  -6  -1 335.885 293.951   1
  -6  -6  -1-86.9454 325.285   2
  -6  12  -1 192.250 404.106   1
   6 -12   1 589.911 484.378   1
   6 -12   1 115.354 392.386   2
 -12   6   1 138.176 347.813   1
  -6  12   0 170892. 5854.75   1
   6 -12   0 162684. 5781.95   1
 -12   6   0 161674. 5680.09   1
  12  -6   0 183943. 5898.44   1
   6 -12   0 169781. 5866.13   2
  -6  -6   0 176435. 6172.10   2
  -6  12   1-48.5708 347.181   1
   6 -12  -1 310.140 352.236   1
   6 -12  -1 1145.92 569.385   2
  12  -6   1 271.918 241.274   1
 -12   6  -1 590.818 504.870   1
   6 -12  -2 1145.07 522.002   1
  -6  12   2 563.306 384.289   1
  12  -6   2 1283.85 532.131   1
   6 -12  -2 1137.05 509.933   2
 -12   6  -2 852.426 458.837   1
   6 -12  -3-230.716 466.308   1
  -6  12   3 468.449 342.644   1
  12  -6   3 383.040 452.018   1
   6 -12  -3-125.724 418.240   2
 -12   6  -3-141.087 370.636   1
  -6  12   4 270639. 7810.78   1
   6 -12  -4 283318. 7901.12   1
  12  -6   4 277253. 7651.91   1
 -12   6  -4 259794. 7596.16   1
   6 -12  -4 287127. 8100.13   2
   6 -12  -5 24.0491 252.712   1
  -6  12   5 58.7183 350.156   1
  12  -6   5-29.4316 400.282   1
   6 -12  -5-87.8301 348.560   2
 -12   6  -5 213.041 426.917   1
  -6  12   6 20127.8 1872.13   1
   6 -12  -6 18307.0 1791.40   1
  12  -6   6 18033.7 1710.22   1
 -12   6  -6 19780.7 1829.17   1
   6 -12  -6 17229.4 1777.95   2
   6 -12  -7-11.1926 280.241   2
   6 -12  -8 298460. 8726.79   2
  12  -7  -7 96777.3 4364.09   1
  -5  -7  -7 103540. 4524.33   1
  -7  -5  -7 107081. 4613.76   1
   5   7   7 111476. 4620.18   1
   7   5   7 107129. 4538.26   1
   5 -12   7 121989. 4824.51   2
 -12   7   7 84958.5 4122.72   1
  -7  -5  -7 112489. 4613.30   2
  12  -7  -6 185830. 6226.74   1
  -5  -7  -6 186163. 6345.02   1
  -7  -5  -6 192257. 6418.99   1
   5   7   6 197920. 6418.24   1
   7   5   6 195840. 6386.33   1
   7 -12   6 212413. 6619.46   2
   5 -12   6 213375. 6604.76   2
  -5  -7  -6 207732. 6471.58   2
  -7  -5  -6 197295. 6479.42   2
  12  -7  -5 109445. 4531.27   1
  -5  -7  -5 98899.7 4477.91   1
  -7  -5  -5 97995.1 4471.75   1
   5   7   5 112953. 4675.98   1
 -12   5   5 100182. 4481.18   1
  12  -5  -5 123219. 4794.42   1
   7   5   5 113466. 4692.02   1
   7 -12   5 113345. 4611.55   2
   5 -12   5 117667. 4659.43   2
 -12   7   5 90911.1 4202.37   1
  -5  -7  -5 124857. 4842.38   2
  -7  -5  -5 113916. 4695.08   2
   5   7   4 3010.95 759.145   1
 -12   7   4 4353.08 813.200   1
  -5  -7  -4 3120.80 762.409   2
  -7  -5  -4 3186.11 806.414   2
   7   5   4 2848.66 702.648   1
  -7  12  -4 2723.73 672.790   1
   7 -12   4 4958.01 983.958   1
  -5  -7  -4 3080.49 753.581   1
  -7  -5  -4 3630.71 849.999   1
  12  -7  -4 3832.06 805.890   1
   7 -12   4 4053.86 917.476   2
   5 -12   4 3627.72 771.253   2
  12  -5  -4 4043.04 847.923   1
 -12   5   4 4202.14 901.751   1
   5   7   3 892.349 480.637   1
 -12   7   3 1319.29 565.534   1
  -5  -7  -3 1372.79 651.256   2
  -7  -5  -3 417.325 401.084   2
   7   5   3 1522.22 589.410   1
  -7  12  -3 639.096 435.591   1
  -5  -7  -3 805.793 395.444   1
  12  -7  -3 1233.41 517.505   1
  -7  -5  -3 583.458 462.057   1
   7 -12   3 981.458 472.462   1
   7 -12   3 895.648 415.199   2
  12  -5  -3 1040.54 476.109   1
   5 -12   3 976.463 504.410   2
 -12   5   3 903.719 499.231   1
  -7  12  -2 141883. 5327.70   1
   5 -12   2 135465. 5245.58   1
  -5  12  -2 132767. 5287.39   1
   7 -12   2 132985. 5164.06   1
   5   7   2 134603. 5235.32   1
  12  -5  -2 163604. 5507.34   1
 -12   5   2 140193. 5245.00   1
   7   5   2 146558. 5378.64   1
   7 -12   2 154269. 5468.93   2
   5 -12   2 161698. 5479.12   2
 -12   7   2 171490. 5627.08   1
  -5  -7  -2 141931. 5329.65   2
  12  -7  -2 157780. 5411.52   1
  -7  -5  -2 125206. 5207.10   2
  -7  12  -1 30057.1 2289.98   1
  -5  12  -1 30012.1 2315.41   1
   7 -12   1 29146.7 2248.38   1
  12  -5  -1 31868.3 2296.00   1
 -12   5   1 29514.1 2274.96   1
   7 -12   1 31253.3 2343.40   2
 -12   7   1 33282.0 2346.48   1
   5 -12   1 32276.8 2340.02   2
  -5  -7  -1 28855.0 2268.79   2
  12  -7  -1 34133.3 2313.23   1
   5 -12   1 28512.1 2300.39   1
  -7  -5  -1 29583.8 2377.53   2
  -7  12   0 25902.1 2094.30   1
  -5  12   0 24893.5 2081.56   1
   5 -12   0 23504.4 2086.31   1
  12  -5   0 29449.9 2198.59   1
   7 -12   0 24638.5 2025.12   1
 -12   5   0 25974.4 2072.34   1
   7 -12   0 24622.0 2107.64   2
 -12   7   0 24568.3 2028.23   1
   5 -12   0 28800.8 2188.44   2
  12  -7   0 24462.8 2020.00   1
  -5  -7   0 21517.9 2013.67   2
  -7  12   1 117855. 4700.25   1
  -5  12   1 109097. 4567.51   1
   5 -12  -1 99463.9 4392.48   1
  12  -5   1 118200. 4628.15   1
 -12   5  -1 125005. 4733.49   1
 -12   7  -1 124609. 4710.72   1
   7 -12  -1 103203. 4593.11   2
   5 -12  -1 111558. 4638.65   2
   7 -12  -1 113544. 4571.72   1
  12  -7   1 119723. 4614.09   1
  -5  -7   1 100583. 4558.86   2
   7 -12  -2 63027.7 3379.83   1
  -7  12   2 65849.2 3369.37   1
  -5  12   2 57627.5 3271.36   1
   5 -12  -2 56907.4 3235.72   1
  12  -5   2 62054.3 3222.66   1
 -12   5  -2 62722.5 3309.48   1
 -12   7  -2 65345.0 3383.64   1
   7 -12  -2 61041.8 3412.92   2
  12  -7   2 64727.7 3302.89   1
   5 -12  -2 59603.7 3305.90   2
  -7  12   3 10554.0 1364.87   1
  -5  12   3 12219.0 1473.25   1
   5 -12  -3 10857.8 1416.26   1
   7 -12  -3 12135.9 1434.46   1
  12  -5   3 11391.2 1348.76   1
 -12   5  -3 11691.3 1419.67   1
 -12   7  -3 13110.6 1425.03   1
  12  -7   3 15038.4 1485.93   1
   7 -12  -3 10952.0 1425.45   2
   5 -12  -3 11324.3 1451.25   2
   5 -12  -4 7132.56 1183.57   1
  -7  12   4 8963.33 1241.37   1
  -5  12   4 7943.40 1226.42   1
  12  -5   4 9768.11 1224.43   1
  12  -7   4 8076.26 1154.50   1
   7 -12  -4 6658.53 1133.33   2
 -12   5  -4 8270.74 1238.24   1
   5 -12  -4 7927.42 1215.57   2
 -12   7  -4 8586.83 1221.25   1
  -7  12   5 12553.3 1512.55   1
   7 -12  -5 14307.8 1534.48   1
  -5  12   5 13873.0 1497.98   1
   5 -12  -5 14169.1 1581.38   1
  12  -5   5 14687.3 1533.46   1
  12  -7   5 14650.1 1509.64   1
 -12   5  -5 14414.4 1493.37   1
 -12   7  -5 12552.4 1370.94   1
   7 -12  -5 11559.7 1516.57   2
   5 -12  -5 13195.1 1596.77   2
  -7  12   6 338523. 9006.54   1
   7 -12  -6 356732. 9192.66   1
  -5  12   6 341363. 9035.41   1
   5 -12  -6 345894. 9163.60   1
  12  -5   6 348900. 8984.19   1
  12  -7   6 389322. 9296.49   1
 -12   5  -6 368393. 9278.67   1
 -12   7  -6 373052. 9211.67   1
   7 -12  -6 298772. 8997.22   2
   5 -12  -6 328687. 9132.61   2
   7 -12  -7 57859.9 3444.98   2
   5 -12  -7 61701.3 3457.45   2
   5 -12  -8 20278.4 1968.04   2
  12  -8  -8 3945.81 854.912   1
  12  -8  -7 54579.7 3173.61   1
  -4  -8  -7 53491.1 3215.01   1
   4   8   7 59973.4 3267.49   1
  -8  -4  -6 220385. 7210.39   2
  12  -8  -6 246513. 7208.78   1
  -4  -8  -6 223549. 7164.61   1
  -8  -4  -6 233984. 7130.44   1
   4   8   6 232992. 7132.05   1
   4 -12   6 222742. 7084.80   2
   8   4   6 250240. 7252.21   1
 -12   8   6 199285. 6656.68   1
  12  -8  -5 12509.2 1439.55   1
  -4  -8  -5 9671.02 1277.07   1
   4   8   5 8876.31 1281.78   1
  -8  -4  -5 6606.84 1131.52   1
   8 -12   5 9525.43 1316.33   1
   8 -12   5 11808.4 1471.04   2
   4 -12   5 9296.50 1301.74   2
   8   4   5 8497.87 1236.52   1
 -12   8   5 8843.30 1247.63   1
  -4  -8  -5 10033.1 1312.45   2
  -8  12  -5 9681.41 1306.43   1
  -8  -4  -5 9042.56 1373.61   2
  12  -8  -4 83244.9 3836.67   1
  -4  -8  -4 63335.6 3532.74   1
  -8  -4  -4 66911.3 3614.67   1
   4   8   4 71818.2 3702.15   1
  12  -4  -4 77632.9 3777.76   1
   8 -12   4 78212.9 3778.16   2
   8 -12   4 65201.1 3530.81   1
   4 -12   4 74133.7 3712.10   2
   8   4   4 71024.1 3612.59   1
 -12   8   4 75413.0 3642.32   1
  -4  -8  -4 69672.1 3581.19   2
  -8  12  -4 70284.5 3622.42   1
  -8  -4  -4 71075.6 3812.98   2
  12  -8  -3 54978.6 3031.98   1
  -4  -8  -3 51074.4 3120.54   1
  -8  -4  -3 42203.9 2818.67   1
   4   8   3 49850.6 3066.02   1
  12  -4  -3 46872.7 2917.70   1
 -12   4   3 45218.1 2868.01   1
   8 -12   3 58355.4 3270.69   2
   4 -12   3 57633.6 3118.62   2
   8   4   3 47627.7 2971.30   1
 -12   8   3 55053.7 3056.87   1
   8 -12   3 46503.1 2900.97   1
  -4  -8  -3 48927.3 2990.13   2
  -8  12  -3 48256.5 2957.18   1
  -8  -4  -3 38619.7 2789.75   2
   8 -12   2 123975. 4881.04   1
  12  -8  -2 123182. 4731.80   1
  -8  -4  -2 105569. 4656.49   1
  12  -4  -2 122145. 4818.17   1
 -12   4   2 128689. 4983.32   1
   8 -12   2 127045. 4941.92   2
   4 -12   2 137012. 5025.34   2
   8   4   2 110279. 4723.06   1
  -4  -8  -2 115748. 4845.35   2
  -8  -4  -2 105223. 4848.43   2
  -8  12  -2 118120. 4731.83   1
  12  -8  -1 35581.8 2422.03   1
  -4  12  -1 27228.0 2261.08   1
   8 -12   1 33229.4 2378.49   1
  12  -4  -1 30142.9 2225.65   1
 -12   4   1 32022.1 2377.69   1
   8 -12   1 33809.5 2477.10   2
   4 -12   1 33692.7 2349.14   2
 -12   8   1 34212.7 2369.64   1
  -4  -8  -1 29612.7 2388.11   2
  -8  12  -1 31491.8 2321.39   1
   8 -12   0 519.925 506.464   1
  -4  -8   0 205.040 380.012   2
 -12   8   0-298.597 448.211   1
  -8  12   0 6.51925 309.371   1
   4 -12   0 644.317 401.020   1
  -4  12   0 346.656 433.484   1
  12  -4   0 442.163 362.906   1
  12  -8   0-363.127 546.063   1
   8 -12   0 471.345 507.822   2
 -12   4   0-237.869 415.341   1
   4 -12   0 239.171 348.716   2
  -4  -8   1 9131.98 1274.62   2
  -8  12   1 8544.16 1223.25   1
 -12   8  -1 8521.12 1180.33   1
   4 -12  -1 7282.78 1138.41   1
   8 -12  -1 10355.0 1283.57   1
  12  -4   1 7669.23 1178.62   1
  -4  12   1 7415.76 1161.14   1
 -12   4  -1 8518.66 1219.19   1
   8 -12  -1 8270.51 1269.22   2
   4 -12  -1 8272.57 1231.76   2
  12  -8   1 9623.61 1239.24   1
  -8  12   2 118278. 4715.18   1
  -4  12   2 113164. 4674.34   1
   4 -12  -2 104692. 4592.03   1
  12  -4   2 126605. 4827.86   1
   8 -12  -2 129936. 4823.94   1
 -12   4  -2 102923. 4525.01   1
   8 -12  -2 116320. 4886.65   2
 -12   8  -2 127386. 4800.49   1
   4 -12  -2 119467. 4718.64   2
  -4  -8   2 98048.8 4545.06   2
  12  -8   2 123151. 4660.16   1
  -8  12   3 73650.6 3612.53   1
  -4  12   3 62152.0 3391.26   1
   4 -12  -3 57917.3 3325.10   1
  12  -4   3 69722.8 3444.51   1
 -12   4  -3 60364.4 3349.50   1
   8 -12  -3 66237.4 3429.16   1
 -12   8  -3 65482.0 3312.60   1
   8 -12  -3 62401.6 3470.62   2
   4 -12  -3 66314.7 3492.66   2
  12  -8   3 71635.7 3434.73   1
  12  -8   4 3214.97 787.361   1
  12  -4   4 1905.80 595.118   1
   4 -12  -4 1044.59 595.082   1
  -8  12   4 1863.07 586.198   1
   8 -12  -4 2948.76 793.404   1
  -4  12   4 1417.62 595.050   1
 -12   4  -4 1691.54 602.507   1
   8 -12  -4 1825.72 617.880   2
   4 -12  -4 2109.74 696.023   2
 -12   8  -4 1288.66 458.227   1
  -8  12   5 120774. 4734.29   1
   4 -12  -5 117874. 4801.01   1
  -4  12   5 113360. 4628.42   1
  12  -4   5 125269. 4772.71   1
 -12   4  -5 119718. 4805.67   1
 -12   8  -5 115221. 4637.52   1
  12  -8   5 115106. 4620.22   1
   8 -12  -5 103778. 4738.94   2
   4 -12  -5 111886. 4742.31   2
   8 -12  -5 112500. 4632.72   1
   4 -12  -6 149806. 5487.94   1
  -4  12   6 146148. 5336.08   1
   4 -12  -6 150813. 5583.28   2
   4 -12  -7 59039.1 3410.13   2
  -9  -3  -6 10047.2 1441.38   2
  -3  -9  -6 9258.71 1342.34   1
   3   9   6 10522.1 1411.06   1
  -9  12  -6 9984.56 1385.21   1
 -12   9   5 2158.78 631.898   1
  -9  -3  -5 1511.61 588.043   2
  -9  12  -5 1403.56 518.251   1
   9   3   5 2004.33 698.759   1
  -3  -9  -5 2390.24 677.480   1
  12  -9  -5 2743.78 733.801   1
  -9  -3  -5 1334.08 573.218   1
   9 -12   5 1550.88 580.400   1
   3   9   5 1922.01 656.960   1
  -9  -3  -4 339432. 9794.82   2
  12  -9  -4 386401. 9545.94   1
  -3  -9  -4 341090. 9500.23   1
  -9  -3  -4 346473. 9529.03   1
   3   9   4 342988. 9475.63   1
   9 -12   4 345274. 9330.12   1
   9 -12   4 403431. 9953.90   2
   3 -12   4 402844. 9826.89   2
 -12   9   4 401792. 9767.24   1
   9   3   4 367008. 9548.76   1
  -3  -9  -4 385333. 9622.56   2
  -9  12  -4 370890. 9634.38   1
  -3  -9  -3 7691.33 1106.70   2
  -9  -3  -3 6937.98 1289.01   2
  12  -3  -3 7233.33 1144.87   1
  12  -9  -3 7946.19 1163.95   1
   9   3   3 8889.60 1241.30   1
  -9  -3  -3 6488.83 1086.71   1
   9 -12   3 7404.37 1169.89   2
   3   9   3 5830.54 1020.70   1
 -12   9   3 10262.2 1303.59   1
   3 -12   3 5937.05 1052.90   2
  -9  12  -3 9762.73 1357.77   1
   9 -12   3 8353.75 1202.84   1
  -3  -9  -2 199.494 301.013   2
 -12   9   2 352.067 347.816   1
   9 -12   2 171.324 303.406   1
  -9  12  -2 760.007 426.419   1
  12  -9  -2 1133.95 466.626   1
  12  -3  -2 553.067 465.640   1
   9   3   2 405.901 333.269   1
  -9  -3  -2 475.926 415.741   1
   9 -12   2 1238.31 589.567   2
 -12   3   2 803.896 501.546   1
   3 -12   2 1216.60 572.863   2
  -3  -9  -1 1650.38 550.696   2
 -12   9   1 755.240 401.609   1
  12  -9  -1 1545.28 556.949   1
  -9  12  -1 1095.08 457.307   1
  12  -3  -1 1175.03 462.334   1
   9 -12   1 1023.43 465.305   1
   9 -12   1 1095.78 603.244   2
 -12   3   1 1188.68 535.579   1
   3 -12   1 1287.44 504.346   2
   9 -12   0 123641. 4853.91   1
  12  -9   0 124066. 4696.06   1
  -3  12   0 102555. 4646.21   1
  12  -3   0 110337. 4652.17   1
 -12   3   0 111620. 4750.53   1
   9 -12   0 115115. 4911.22   2
   3 -12   0 118818. 4741.02   2
 -12   9   0 133353. 4860.04   1
  -3  -9   0 116728. 4891.00   2
  -9  12   0 117014. 4715.83   1
 -12   9  -1 265.729 439.658   1
  12  -3   1 700.056 573.261   1
  -9  12   1 326.361 293.063   1
   3 -12  -1 508.109 343.611   1
  -3  12   1 51.5059 340.626   1
   9 -12  -1 366.812 408.863   1
  12  -9   1-69.9665 325.311   1
   9 -12  -1 39.7510 327.327   2
 -12   3  -1 666.639 465.757   1
   3 -12  -1 43.8709 342.010   2
  -3  -9   1 319.156 336.955   2
  12  -9   2 9134.56 1201.21   1
   3 -12  -2 8511.60 1281.29   1
  -9  12   2 9122.56 1198.08   1
  12  -3   2 8383.76 1249.81   1
  -3  12   2 8586.23 1220.25   1
 -12   3  -2 9336.72 1278.78   1
 -12   9  -2 9168.56 1224.54   1
   9 -12  -2 7392.87 1218.07   2
   9 -12  -2 7607.57 1142.88   1
   3 -12  -2 8017.83 1188.95   2
  -3  -9   2 8266.99 1255.40   2
 -12   9  -3 1120.85 559.957   1
   9 -12  -3 1800.84 600.576   1
  12  -3   3 1341.37 580.409   1
  -9  12   3 1604.06 561.236   1
   3 -12  -3 1085.18 541.586   1
  12  -9   3 1896.69 651.641   1
  -3  12   3 881.825 469.402   1
 -12   3  -3 1538.97 591.846   1
   9 -12  -3 652.294 441.052   2
   3 -12  -3 472.013 299.297   2
  -3  -9   3 950.942 579.182   2
   3 -12  -4 275834. 8234.96   1
  -3  12   4 277357. 8041.26   1
  12  -3   4 309807. 8296.58   1
 -12   3  -4 308142. 8392.88   1
   9 -12  -4 273107. 8398.21   2
   3 -12  -4 279307. 8103.31   2
 -12   3  -5 1030.04 522.578   2
   3 -12  -5 3353.86 828.721   1
  -3  12   5 2910.06 747.474   1
 -12   3  -6 348.557 332.015   2
  10   2   4 5214.37 979.002   1
 -10  -2  -4 5436.69 1046.76   1
   2  10   4 5557.11 1030.29   1
 -10  -2  -3 100062. 4566.29   1
  10   2   3 94854.8 4355.70   1
  10   2   2 96785.7 4408.79   1
  12  -2  -1 37518.0 2636.44   1
  12  -2   0 11136.5 1408.91   1
 -12   2   0 10384.7 1342.44   1
  -2 -10   0 11462.4 1456.49   2
  12  -2   1 801.395 441.854   1
 -12   2  -1 355.667 347.008   1
  10 -12  -1 581.943 545.339   2
  -2 -10   1 194.922 313.271   2
   2 -12  -2 95503.5 4569.04   1
  -2  12   2 101271. 4509.91   1
  12  -2   2 110367. 4625.58   1
 -12   2  -2 101990. 4565.73   1
  10 -12  -2 97966.9 4649.83   2
  -2 -10   2 94575.6 4493.13   2
   2 -12  -3 18473.6 1895.11   1
  -2  12   3 18404.5 1852.54   1
  -2 -10   3 20843.6 1991.74   2
   2 -12  -4 20538.9 2028.77   1
  -2  12   4 21699.3 1963.72   1
  -7  13  -2 66610.4 3629.83   1
  -6  -7  -2 62394.9 3634.38   2
  -7  -6  -2 64198.9 3649.31   2
  -6  -7  -1 2063.98 746.855   2
  -7  13  -1 1691.09 569.216   1
  -6  13  -1 2262.69 684.101   1
   7 -13   1 2238.94 685.944   1
  -7  13   0 138.303 361.485   1
  -6  13   0 250.759 379.748   1
   7 -13   0 129.180 257.498   1
   6 -13   0 697.826 438.161   1
  -6  13   1 2876.93 801.440   1
   6 -13  -1 2454.58 734.620   1
  -5  13   0 207421. 6895.60   1
   5 -13  -1 248.113 319.573   1
  -5  13   1 127.614 316.709   1
   0   0   0    0.00    0.00   0
;
_shelx_hkl_checksum              94307
loop_
_space_group_symop_operation_xyz
'x, y, z'
'-y, x-y, z'
'-x+y, -x, z'
'-y, -x, -z+1/2'
'-x+y, y, -z+1/2'
'x, x-y, -z+1/2'
'-x, -y, -z'
'y, -x+y, -z'
'x-y, x, -z'
'y, x, z-1/2'
'x-y, -y, z-1/2'
'-x, -x+y, z-1/2'
loop_
_atom_site_label
_atom_site_type_symbol
_atom_site_fract_x
_atom_site_fract_y
_atom_site_fract_z
_atom_site_U_iso_or_equiv
_atom_site_adp_type
_atom_site_occupancy
_atom_site_site_symmetry_order
_atom_site_calc_flag
_atom_site_refinement_flags_posn
_atom_site_refinement_flags_adp
_atom_site_refinement_flags_occupancy
Co1 Co 0.6667 0.3333 0.2500 0.00973(14) Uani 1 6 d S T P
Fe1 Fe 1.0000 0.0000 0.0000 0.00833(14) Uani 1 6 d S T P
O1 O 0.88337(13) 0.34344(11) 0.16809(7) 0.0201(2) Uani 1 1 d . . .
O2 O 1.01303(11) 0.20890(12) 0.08289(6) 0.0162(2) Uani 1 1 d . . .
C1 C 0.87322(15) 0.20984(15) 0.12038(9) 0.0157(2) Uani 1 1 d . . .
H1 H 0.7553 0.1041 0.1118 0.036(6) Uiso 1 1 calc R . .
N1 N 1.2774(5) 0.5549(9) 0.2500 0.129(7) Uani 0.334 2 d S T P
C2 C 1.3333 0.6667 0.1537(13) 0.174(6) Uani 1 3 d S T P
loop_
_atom_site_aniso_label
_atom_site_aniso_U_11
_atom_site_aniso_U_22
_atom_site_aniso_U_33
_atom_site_aniso_U_23
_atom_site_aniso_U_13
_atom_site_aniso_U_12
Co1 0.00842(15) 0.00842(15) 0.0123(2) 0.000 0.000 0.00421(8)
Fe1 0.00742(15) 0.00742(15) 0.0102(2) 0.000 0.000 0.00371(8)
O1 0.0179(4) 0.0157(4) 0.0258(5) -0.0059(3) 0.0054(3) 0.0076(3)
O2 0.0145(3) 0.0148(3) 0.0201(4) -0.0029(2) 0.0023(2) 0.0080(3)
C1 0.0145(4) 0.0153(4) 0.0189(5) -0.0039(3) -0.0002(3) 0.0087(4)
N1 0.031(3) 0.014(2) 0.34(2) 0.000 -0.072(7) 0.0069(11)
C2 0.0255(11) 0.0255(11) 0.471(18) 0.000 0.000 0.0127(5)
loop_
_atom_type_symbol
_atom_type_description
_atom_type_scat_dispersion_real
_atom_type_scat_dispersion_imag
_atom_type_scat_source
C C 0.0030 0.0010 'International Tables Vol C Tables 4.2.6.8 and 6.1.1.4'
H H 0.0000 0.0000 'International Tables Vol C Tables 4.2.6.8 and 6.1.1.4'
N N 0.0050 0.0030 'International Tables Vol C Tables 4.2.6.8 and 6.1.1.4'
O O 0.0090 0.0050 'International Tables Vol C Tables 4.2.6.8 and 6.1.1.4'
Fe Fe 0.3380 0.7600 'International Tables Vol C Tables 4.2.6.8 and 6.1.1.4'
Co Co 0.3460 0.8760 'International Tables Vol C Tables 4.2.6.8 and 6.1.1.4'
loop_
_geom_angle_atom_site_label_1
_geom_angle_atom_site_label_2
_geom_angle_atom_site_label_3
_geom_angle
_geom_angle_site_symmetry_1
_geom_angle_site_symmetry_3
O1 Co1 O1 93.47(4) 4_665 6
O1 Co1 O1 83.69(5) 4_665 3_665
O1 Co1 O1 176.02(4) 6 3_665
O1 Co1 O1 176.02(4) 4_665 2_655
O1 Co1 O1 89.50(5) 6 2_655
O1 Co1 O1 93.47(4) 3_665 2_655
O1 Co1 O1 93.47(4) 4_665 5_655
O1 Co1 O1 93.47(4) 6 5_655
O1 Co1 O1 89.50(5) 3_665 5_655
O1 Co1 O1 83.69(5) 2_655 5_655
O1 Co1 O1 89.50(5) 4_665 .
O1 Co1 O1 83.69(5) 6 .
O1 Co1 O1 93.47(4) 3_665 .
O1 Co1 O1 93.47(4) 2_655 .
O1 Co1 O1 176.02(4) 5_655 .
O2 Fe1 O2 91.43(3) 7_755 9_545
O2 Fe1 O2 88.57(3) 7_755 3_765
O2 Fe1 O2 180.00(6) 9_545 3_765
O2 Fe1 O2 88.57(3) 7_755 2_645
O2 Fe1 O2 88.57(3) 9_545 2_645
O2 Fe1 O2 91.43(3) 3_765 2_645
O2 Fe1 O2 91.43(3) 7_755 8_665
O2 Fe1 O2 91.43(3) 9_545 8_665
O2 Fe1 O2 88.57(3) 3_765 8_665
O2 Fe1 O2 180.00(6) 2_645 8_665
O2 Fe1 O2 180.0 7_755 .
O2 Fe1 O2 88.57(3) 9_545 .
O2 Fe1 O2 91.43(3) 3_765 .
O2 Fe1 O2 91.43(3) 2_645 .
O2 Fe1 O2 88.57(3) 8_665 .
C1 O1 Co1 124.89(7) . .
C1 O2 Fe1 124.98(7) . .
O1 C1 O2 124.02(11) . .
N1 N1 N1 60.000(1) 3_775 2_755
N1 N1 C2 63.4(3) 3_775 .
N1 N1 C2 63.4(3) 2_755 .
N1 N1 C2 63.4(3) 3_775 4_775
N1 N1 C2 63.4(3) 2_755 4_775
C2 N1 C2 117.8(8) . 4_775
N1 C2 N1 53.2(6) 3_775 2_755
N1 C2 N1 53.2(6) 3_775 .
N1 C2 N1 53.2(6) 2_755 .
loop_
_geom_bond_atom_site_label_1
_geom_bond_atom_site_label_2
_geom_bond_distance
_geom_bond_site_symmetry_2
Co1 O1 2.0700(9) 4_665
Co1 O1 2.0700(9) 6
Co1 O1 2.0700(9) 3_665
Co1 O1 2.0700(9) 2_655
Co1 O1 2.0700(9) 5_655
Co1 O1 2.0700(9) .
Fe1 O2 2.0147(8) 7_755
Fe1 O2 2.0147(8) 9_545
Fe1 O2 2.0147(8) 3_765
Fe1 O2 2.0147(8) 2_645
Fe1 O2 2.0147(8) 8_665
Fe1 O2 2.0147(8) .
O1 C1 1.2436(12) .
O2 C1 1.2616(12) .
N1 N1 1.378(11) 3_775
N1 N1 1.378(11) 2_755
N1 C2 1.539(15) .
N1 C2 1.539(15) 4_775
C2 N1 1.539(15) 3_775
C2 N1 1.539(15) 2_755
