#------------------------------------------------------------------------------
#$Date: 2017-02-04 00:26:44 +0200 (Sat, 04 Feb 2017) $
#$Revision: 191257 $
#$URL: file:///home/coder/svn-repositories/cod/cif/4/34/51/4345109.cif $
#------------------------------------------------------------------------------
#
# This file is available in the Crystallography Open Database (COD),
# http://www.crystallography.net/
#
# All data on this site have been placed in the public domain by the
# contributors.
#
data_4345109
loop_
_publ_author_name
'Mazzuca, Lidia'
'Ca\~nadillas-Delgado, Laura'
'Rodr\'iguez-Velamaz\'an, J Alberto'
'Fabelo, Oscar'
'Scarrozza, Marco'
'Stroppa, Alessandro'
'Picozzi, Silvia'
'Zhao, Jiong-Peng'
'Bu, Xian-He'
'Rodr\'iguez-Carvajal, Juan'
_publ_section_title
;
 Magnetic Structures of Heterometallic M(II)-M(III) Formate Compounds.
;
_journal_issue                   1
_journal_name_full               'Inorganic chemistry'
_journal_page_first              197
_journal_page_last               207
_journal_paper_doi               10.1021/acs.inorgchem.6b01866
_journal_volume                  56
_journal_year                    2017
_chemical_formula_sum            'C8 H14 Fe Mn N O12'
_chemical_formula_weight         426.98
_chemical_name_systematic
;
 ?
;
_space_group_crystal_system      trigonal
_space_group_IT_number           163
_space_group_name_Hall           '-P 3 2c'
_space_group_name_H-M_alt        'P -3 1 c'
_symmetry_space_group_name_Hall  '-P 3 2c'
_symmetry_space_group_name_H-M   'P -3 1 c'
_atom_sites_solution_hydrogens   geom
_audit_creation_method           SHELXL-2014
_cell_angle_alpha                90
_cell_angle_beta                 90
_cell_angle_gamma                120
_cell_formula_units_Z            2
_cell_length_a                   8.2722(2)
_cell_length_b                   8.2722(2)
_cell_length_c                   13.8867(3)
_cell_measurement_reflns_used    5326
_cell_measurement_temperature    95(2)
_cell_measurement_theta_max      32.2830
_cell_measurement_theta_min      2.7150
_cell_volume                     822.95(3)
_computing_cell_refinement       'CrysAlis PRO software program'
_computing_data_collection       'CrysAlis PRO software program'
_computing_data_reduction        'CrysAlis PRO software program'
_computing_molecular_graphics    'Mercury (McRae, 2006)'
_computing_publication_material  'WINGX (Farrugia, 1999)'
_computing_structure_refinement  'SHELXL-2014 (Sheldrick, 2014)'
_computing_structure_solution    'SHELXL-2014 (Sheldrick, 2014)'
_diffrn_ambient_temperature      95(2)
_diffrn_measured_fraction_theta_full 0.918
_diffrn_measured_fraction_theta_max 0.931
_diffrn_measurement_device_type  'CRISTAL beamline, SOLEIL synchrotron'
_diffrn_radiation_type           synchrotron
_diffrn_radiation_wavelength     0.66951
_diffrn_reflns_av_R_equivalents  0.0745
_diffrn_reflns_av_unetI/netI     0.0289
_diffrn_reflns_Laue_measured_fraction_full 0.918
_diffrn_reflns_Laue_measured_fraction_max 0.931
_diffrn_reflns_limit_h_max       11
_diffrn_reflns_limit_h_min       -12
_diffrn_reflns_limit_k_max       12
_diffrn_reflns_limit_k_min       -12
_diffrn_reflns_limit_l_max       22
_diffrn_reflns_limit_l_min       -22
_diffrn_reflns_number            10388
_diffrn_reflns_point_group_measured_fraction_full 0.918
_diffrn_reflns_point_group_measured_fraction_max 0.931
_diffrn_reflns_theta_full        23.685
_diffrn_reflns_theta_max         32.619
_diffrn_reflns_theta_min         2.763
_diffrn_source                   synchrotron
_exptl_absorpt_coefficient_mu    1.438
_exptl_absorpt_correction_T_max  1.00000
_exptl_absorpt_correction_T_min  0.84455
_exptl_absorpt_correction_type   multi-scan
_exptl_absorpt_process_details
;
CrysAlisPro, Agilent Technologies,
Version 1.171.37.33 (release 27-03-2014 CrysAlis171 .NET)
(compiled Mar 27 2014,17:12:48)
Empirical absorption correction using spherical harmonics,
 implemented in SCALE3 ABSPACK scaling algorithm.
;
_exptl_crystal_colour            dark-yellow
_exptl_crystal_density_diffrn    1.723
_exptl_crystal_description       prism
_exptl_crystal_F_000             432
_exptl_crystal_size_max          0.08
_exptl_crystal_size_mid          0.07
_exptl_crystal_size_min          0.06
_refine_diff_density_max         0.821
_refine_diff_density_min         -0.584
_refine_diff_density_rms         0.077
_refine_ls_extinction_method     none
_refine_ls_goodness_of_fit_ref   1.143
_refine_ls_hydrogen_treatment    refU
_refine_ls_matrix_type           full
_refine_ls_number_parameters     41
_refine_ls_number_reflns         1123
_refine_ls_number_restraints     0
_refine_ls_restrained_S_all      1.143
_refine_ls_R_factor_all          0.0472
_refine_ls_R_factor_gt           0.0433
_refine_ls_shift/su_max          0.000
_refine_ls_shift/su_mean         0.000
_refine_ls_structure_factor_coef Fsqd
_refine_ls_weighting_details
'w=1/[\s^2^(Fo^2^)+(0.0552P)^2^+0.7068P] where P=(Fo^2^+2Fc^2^)/3'
_refine_ls_weighting_scheme      calc
_refine_ls_wR_factor_gt          0.1223
_refine_ls_wR_factor_ref         0.1276
_reflns_Friedel_coverage         0.000
_reflns_number_gt                1025
_reflns_number_total             1123
_reflns_threshold_expression     'I > 2\s(I)'
_cod_data_source_file            FeMn_95K.cif
_cod_data_source_block           shelx
_cod_original_cell_volume        822.95(4)
_cod_database_code               4345109
_shelx_space_group_comment
;
The symmetry employed for this shelxl refinement is uniquely defined
by the following loop, which should always be used as a source of
symmetry information in preference to the above space-group names.
They are only intended as comments.
;
_shelxl_version_number           2014-3
_shelx_res_file
;
TITL FeMn_warm6 in P-31c
CELL  0.66951   8.2722   8.2722  13.8867   90.000   90.000  120.000
ZERR     2.00   0.0002   0.0002   0.0003    0.000    0.000    0.000
LATT   1
SYMM  - Y,   X - Y,   Z
SYMM  - X + Y, - X,   Z
SYMM  - Y, - X, 1/2 - Z
SYMM  - X + Y,   Y, 1/2 - Z
SYMM    X,   X - Y, 1/2 - Z
SFAC  C        2.31000 20.84392  1.02000 10.20751   1.58860   0.56870 =
         0.86500  51.65125   0.21560   0.003   0.001    10.064   0.770  12.011
SFAC  H        0.49300 10.51091  0.32291 26.12573   0.14019   3.14236 =
         0.04081  57.79977   0.00304   0.000   0.000     0.666   0.320   1.008
SFAC  N       12.21261  0.00570  3.13220  9.89331   2.01250  28.99754 =
         1.16630   0.58260 -11.52901   0.005   0.003    16.889   0.700  14.007
SFAC  O        3.04850 13.27711  2.28680  5.70111   1.54630   0.32390 =
         0.86700  32.90894   0.25080   0.009   0.005    27.551   0.660  15.999
SFAC  FE      11.76951  4.76111  7.35731  0.30720   3.52220  15.35351 =
         2.30450  76.88058   1.03690   0.338   0.762  2939.485   1.260  55.845
SFAC  MN      11.28191  5.34091  7.35731  0.34320   3.01930  17.86742 =
         2.24410  83.75438   1.08960   0.324   0.657  2538.176   1.370  54.938
UNIT  16   28   2    24   2    2
MERG   2
FMAP   2
PLAN   20
ACTA
L.S.  15
WGHT    0.055200    0.706800
FVAR      20.21373
MN2   6    0.666667    0.333333    0.250000    10.16667    0.01987    0.01987 =
         0.02547    0.00000    0.00000    0.00993
FE1   5    1.000000    0.000000    0.000000    10.16667    0.01947    0.01947 =
         0.02629    0.00000    0.00000    0.00973
O1    4    0.889027    0.341856    0.166193    11.00000    0.03291    0.03293 =
         0.05291   -0.01000    0.01005    0.01551
O2    4    1.015596    0.208402    0.081979    11.00000    0.02968    0.02960 =
         0.04133   -0.00492    0.00314    0.01624
C1    1    0.879246    0.211387    0.118982    11.00000    0.02845    0.03122 =
         0.03781   -0.00635    0.00080    0.01603
AFIX  43
H1    2    0.761723    0.107230    0.110151    11.00000    0.06386
AFIX   0
C2    1    1.333333    0.666667    0.162486    10.33333    0.04113    0.04113 =
         1.02528    0.00000    0.00000    0.02056
N1    3    1.280819    0.561638    0.250000    10.16667    0.05009    0.02278 =
         0.51664    0.00000   -0.10994    0.01139
HKLF    4  1.0  0.00  1.00  0.00  1.00  0.00  0.00  0.00  0.00 -1.00

REM  FeMn_warm6 in P-31c
REM R1 =  0.0433 for    1025 Fo > 4sig(Fo)  and  0.0472 for all    1123 data
REM     41 parameters refined using      0 restraints

END

WGHT      0.0552      0.7068

REM Highest difference peak  0.821,  deepest hole -0.584,  1-sigma level  0.077
Q1    1   1.3333  0.6667  0.0866  10.33333  0.05    0.82
Q2    1   1.3333  0.6667  0.2500  10.16667  0.05    0.51
Q3    1   1.3288  0.5596  0.1704  11.00000  0.05    0.46
Q4    1   0.9018 -0.0408 -0.0318  11.00000  0.05    0.38
Q5    1   0.9473  0.1946  0.0397  11.00000  0.05    0.34
Q6    1   0.8711  0.2441  0.1593  11.00000  0.05    0.30
Q7    1   0.8527  0.2934  0.1274  11.00000  0.05    0.30
Q8    1   0.9385  0.0917  0.0684  11.00000  0.05    0.29
Q9    1   0.8632  0.2624  0.2123  11.00000  0.05    0.27
Q10   1   0.9498  0.1515  0.1218  11.00000  0.05    0.24
Q11   1   0.8270  0.1730  0.2500  10.50000  0.05    0.21
Q12   1   0.9245  0.3244  0.1196  11.00000  0.05    0.19
Q13   1   0.8798  0.2656  0.2493  11.00000  0.05    0.18
Q14   1   0.9772  0.2934  0.0847  11.00000  0.05    0.18
Q15   1   0.6997 -0.0554  0.0764  11.00000  0.05    0.17
Q16   1   1.3266  0.7813  0.1743  11.00000  0.05    0.17
Q17   1   0.9055  0.3882  0.2765  11.00000  0.05    0.17
Q18   1   1.1778  0.3616  0.1152  11.00000  0.05    0.17
Q19   1   0.8055  0.0854  0.1607  11.00000  0.05    0.16
Q20   1   0.8640  0.3412  0.2403  11.00000  0.05    0.16
;
_shelx_res_checksum              50651
_shelx_hkl_file
;
   0   0   2 37506.8 1635.97   1
   0   0   2 39733.6 1436.48   2
   0   0  -2 35621.6 1534.43   1
   0   0   3 221.683 163.435   2
   0   0   3 31.2512 172.176   1
   0   0   5 69.4167 274.992   1
   0   0  -5-183.078 271.277   1
   0   0   5 29.5259 173.254   2
   0   0  -6 71764.3 3626.43   1
   0   0   6 78147.6 3394.74   2
   0   0   7-269.969 428.665   1
   0   0   7 658.936 465.824   2
   0   0  -7-735.495 484.644   1
   0   0   9-43.8530 254.274   1
   0   0   9-570.001 499.003   2
   0   0  -9 554.086 494.522   1
   0   0 -10 11223.2 1714.16   1
   0   0  10 13240.4 1679.95   2
   0   0  10 13677.7 2015.48   1
   0   0  11 1382.27 839.652   1
   0   0  11 758.676 781.532   2
   0   0 -11 1578.04 593.957   1
   0   0  13-47.3019 423.354   2
   0   0  13 962.777 818.056   1
   0   0 -13 362.748 597.817   1
   0   0 -14 2590.05 899.371   1
   0   0  14 2454.06 952.667   2
   0   0  14 768.964 754.232   1
   0   0 -15 567.933 523.097   1
   0   0  15-206.554 275.313   2
   0   0  15 851.777 689.645   1
   0   0  16 140952. 8399.70   1
   0   0 -16 159779. 8433.49   1
   0   0 -17-431.641 370.661   1
   0   0  17 1015.72 891.809   1
   0   0 -18 2178.10 1107.83   1
   0   0  18 1966.04 311.215   1
   0   0  19-222.925 702.006   1
   0   0 -19 872.052 754.663   1
   0   0  20 13260.3 2759.20   1
   0   0 -20 11770.7 2556.37   1
   0   0  21-51.2155 387.354   1
   0   0 -21 648.392 394.846   1
   0   0 -22 599.059 912.343   1
   0   0  22 2428.80 1300.05   1
  -1   1  -3 216783. 6307.49   1
   1  -1  -3 199751. 5840.26   1
   1  -1   3 237661. 6127.97   2
   0  -1   3 214982. 6120.71   2
  -1   0  -3 206118. 5827.93   1
  -1   0   3 217686. 6218.49   1
   0   1  -3 226481. 6221.85   1
   1   0  -4 5828.70 863.939   1
   0   1   4 7358.70 840.722   1
  -1   1  -4 8025.50 956.837   1
  -1   0   4 6690.65 832.112   2
  -1   0   4 7172.12 934.603   1
   0   1  -4 8594.59 1009.68   1
   0  -1  -4 9240.48 877.718   1
  -1   1   4 6378.32 844.365   1
   0  -1   4 6987.22 861.615   2
   1  -1  -4 9529.35 972.915   1
   1   0   4 5975.50 798.375   1
   0  -1   4 7757.35 1073.28   1
   1   0   4 7738.84 947.028   2
  -1   0  -4 8674.91 927.570   1
   1  -1   4 8173.54 893.012   2
   0   1   4 4777.44 514.266   2
  -1   1   4 6070.78 650.156   2
   1  -1   4 7097.28 959.375   1
   1   0   5 7447.28 905.758   2
  -1   1   5 7264.55 988.980   1
  -1   0   5 7962.64 1089.65   1
   1   0   5 7974.07 1009.77   1
   0   1   5 7765.10 961.647   1
   1  -1   5 7131.39 1024.77   2
   0  -1   5 7658.07 1019.29   2
  -1   1  -5 6810.25 979.214   1
   1  -1   5 8448.41 1144.08   1
   1   0  -5 6733.93 1031.11   1
  -1   0   5 8363.32 1044.51   2
   0  -1  -5 7043.75 852.089   1
   0  -1   5 7979.44 1105.78   1
   1  -1  -5 7487.17 983.425   1
  -1   1   5 8503.93 815.671   2
   0   1   5 6235.28 647.672   2
   0   1  -5 6378.07 989.385   1
  -1   0  -5 5907.89 842.880   1
   0  -1  -6 63067.5 3115.65   1
   0  -1   6 62536.9 3320.45   2
  -1   0   6 60636.2 3078.79   2
   1   0  -6 47867.6 3060.38   1
   1  -1  -6 45628.3 2846.94   1
   1  -1   6 62435.7 3246.34   2
   0  -1   6 60467.4 3452.63   1
  -1   1  -6 59339.2 3289.81   1
   1   0   6 57453.0 2912.18   2
   0   1   6 59755.9 2533.81   2
   0   1  -6 52852.4 3136.76   1
   0   1   6 68025.6 3378.84   1
  -1   0  -6 59856.0 3205.61   1
   1   0   6 68985.5 3454.12   1
   1  -1   6 58144.3 3326.10   1
  -1   0   6 77235.1 3887.82   1
  -1   1   6 54989.3 2567.23   2
  -1   1   6 57821.9 3265.54   1
  -1   0   7 157937. 5853.02   2
   1  -1   7 168175. 6557.73   1
   0   1  -7 143968. 6139.44   1
   1  -1   7 152088. 6035.55   2
  -1   1  -7 160186. 6343.34   1
  -1   1   7 201958. 6935.81   1
   0  -1   7 155862. 6077.26   2
  -1   0   7 169837. 6698.03   1
  -1   0  -7 152044. 5931.72   1
   1   0   7 156737. 5756.13   2
   1   0  -7 131221. 5884.60   1
   1   0   7 155560. 6187.81   1
   0  -1  -7 213169. 6604.26   1
   0   1   7 156357. 5134.63   2
   0  -1   7 155993. 6620.78   1
   1  -1  -7 166562. 6155.30   1
  -1   1   7 152421. 5274.31   2
   0   1   7 161860. 6198.40   1
   1   0  -8 49908.2 3335.31   1
   1  -1  -8 48702.0 3200.99   1
   0   1   8 38000.0 2412.73   2
   0  -1   8 63700.4 3953.28   1
   0   1  -8 53494.3 3517.02   1
  -1   1   8 44012.0 3248.15   1
   0   1   8 39253.7 3003.54   1
   1  -1   8 49334.8 3294.46   2
   0  -1   8 50761.3 3323.67   2
   1  -1   8 48314.2 3489.82   1
  -1   0   8 45978.6 2956.96   2
   0  -1  -8 35811.0 2695.35   1
   1   0   8 54047.6 3501.19   1
  -1   1   8 47342.8 2690.37   2
  -1   0   8 47313.0 3458.00   1
   1   0   8 42326.7 2788.50   2
  -1   1  -8 43733.9 3156.41   1
  -1   0  -8 54571.4 3358.27   1
  -1   1   9 250785. 9326.82   1
   0   1   9 257336. 8112.88   2
   0   1   9 248035. 9237.40   1
   1  -1   9 293060. 10118.2   1
  -1   0   9 246633. 9582.49   1
   1  -1  -9 343266. 10052.9   1
   0  -1   9 293487. 10290.4   1
  -1   0   9 216641. 8446.26   2
  -1   1  -9 221145. 8852.51   1
   0   1  -9 355128. 10658.9   1
   1   0   9 290890. 9914.20   1
  -1   0  -9 210237. 8516.29   1
  -1   1   9 246148. 8131.60   2
   1  -1   9 265118. 9210.82   2
   0  -1   9 294170. 9523.31   2
   1   0  -9 274166. 9495.98   1
   1   0   9 272668. 8994.90   2
   0  -1  -9 301751. 9507.01   1
   1   0  10 758403. 20600.1   1
   0   1  10 799982. 20666.9   1
  -1   1 -10 824567. 20718.1   1
  -1   0  10 749106. 19504.9   2
   1  -1  10 781291. 21077.3   1
  -1   1  10 742358. 20359.7   1
   0   1 -10 721646. 20120.4   1
   0  -1  10 712877. 20787.6   1
   0  -1 -10 689987. 19526.5   1
  -1   0  10 720134. 20584.1   1
   0  -1  10 853123. 20578.3   2
   0  -1  11 152951. 7616.45   1
   0   1 -11 147942. 7195.94   1
  -1   0  11 128605. 6918.02   1
   1   0  11 146470. 6639.92   2
  -1   1 -11 140747. 6901.45   1
  -1   0  11 146073. 6679.93   2
   0   1  11 144180. 6149.25   2
   1   0 -11 156608. 7221.96   1
   1  -1 -11 156301. 6979.47   1
  -1   1  11 152934. 6375.56   2
   0   1  11 159514. 7424.58   1
  -1   1  11 142770. 7170.20   1
  -1   0 -11 135941. 6682.88   1
   0  -1 -11 142376. 6764.74   1
   0  -1  11 141470. 6814.53   2
   1  -1  11 146009. 7359.32   1
   1  -1  11 131522. 6575.84   2
   1   0  11 150242. 7424.80   1
   0  -1  12 51854.1 4306.51   1
   1   0  12 69768.5 4458.50   2
   0   1 -12 53336.0 4282.56   1
  -1   1  12 65013.1 4084.89   2
   0  -1  12 61905.8 4410.03   2
   1   0  12 54973.4 4472.26   1
   1  -1  12 54886.8 4237.00   2
   0   1  12 61318.5 3942.95   2
  -1   1  12 53087.1 4420.44   1
   1  -1 -12 56757.6 4147.44   1
   0  -1 -12 56165.1 4226.77   1
  -1   0  12 56325.1 4144.69   2
  -1   1 -12 56121.3 4322.71   1
   0   1  12 58638.8 4433.28   1
   1   0 -12 51764.6 4130.74   1
   1  -1  12 53738.2 4576.19   1
  -1   0  12 52928.5 4422.53   1
  -1   0 -12 55667.7 4171.29   1
  -1   0 -13 79188.2 5418.73   1
   1  -1  13 91897.4 6204.73   1
  -1   0  13 78236.7 5686.95   1
   0  -1 -13 88312.3 5475.65   1
   0  -1  13 96216.0 5845.48   2
   0   1  13 95657.3 5366.25   2
  -1   0  13 98226.8 5630.72   2
   0   1 -13 93472.1 5772.41   1
   0   1  13 89159.9 5886.57   1
   1  -1  13 95717.4 5809.99   2
   1   0  13 83122.2 5899.60   1
  -1   1  13 82427.7 4987.03   2
   0  -1  13 77067.8 5683.97   1
   1  -1 -13 85504.2 5511.61   1
   1   0  13 88045.6 5529.14   2
  -1   1 -13 101590. 6072.07   1
   1   0 -13 69002.1 5080.09   1
  -1   1  13 91892.7 6112.22   1
   1   0  14 241026. 9962.77   2
   1  -1 -14 241365. 10129.6   1
  -1   1 -14 247411. 10479.6   1
  -1   0 -14 201667. 9571.70   1
   0  -1  14 209252. 10244.3   1
  -1   1  14 247361. 10839.8   1
   0   1 -14 199424. 9670.67   1
  -1   0  14 257512. 10280.3   2
   1   0 -14 217014. 9779.62   1
   1  -1  14 231467. 10058.9   2
  -1   0  14 233198. 10517.3   1
   0  -1 -14 227530. 9857.90   1
   1   0  14 247882. 10818.8   1
   1  -1  14 245851. 11002.9   1
   0  -1  14 226705. 9971.22   2
   0   1  14 224170. 10254.1   1
  -1   0 -15 54726.1 4675.33   1
  -1   0  15 45950.1 4586.85   1
   1   0  15 55034.8 4555.10   2
  -1   0  15 57418.8 4724.82   2
  -1   1  15 50002.8 4791.92   1
   0  -1  15 56437.8 4788.07   2
   0  -1  15 51487.8 4727.49   1
  -1   1 -15 45317.3 4232.83   1
   0  -1 -15 50743.6 4399.47   1
   1  -1  15 60813.1 4980.56   2
   0   1 -15 56272.0 4638.41   1
   1   0  15 53888.6 4944.25   1
   1   0 -15 57917.6 4790.05   1
   0   1  15 45840.8 4521.82   1
   1  -1 -15 56708.1 4652.09   1
   1  -1  15 49812.4 4720.94   1
   1   0 -16 12295.9 2284.81   1
  -1   0  16 10376.0 2165.78   1
   0  -1  16 10664.6 2235.47   1
   1  -1 -16 11499.6 2079.71   1
   0  -1 -16 12422.9 2178.99   1
   1   0  16 14087.9 2571.71   1
  -1   1 -16 13266.7 2226.30   1
  -1   1  16 9836.26 2104.84   1
   0   1  16 13430.6 2384.12   1
   0  -1  16 14111.1 2538.86   2
   1  -1  16 15866.4 2527.19   1
  -1   0 -16 16247.7 2567.60   1
   0   1 -16 10254.8 1997.25   1
   1  -1  16 12452.3 2380.09   2
   1   0  17 10769.2 2286.01   1
  -1   0  17 11770.0 2445.96   1
   0  -1  17 12701.4 2339.44   1
   1  -1  17 12622.6 2453.01   1
  -1   1 -17 11666.2 2187.85   1
  -1   1  17 10688.2 2239.34   1
   1   0 -17 11545.6 2174.78   1
   0   1  17 12808.8 2460.82   1
   1  -1 -17 13306.9 2267.48   1
   0   1 -17 9776.31 2081.45   1
   0  -1 -17 8589.59 1963.07   1
  -1   0 -17 13777.5 2452.87   1
   0  -1  18 24744.2 3504.73   1
  -1   1  18 28550.7 3776.67   1
   1  -1  18 33875.1 4129.41   1
   1   0  18 20100.4 3248.00   1
  -1   1 -18 25735.1 3477.87   1
   1   0 -18 22187.9 3183.23   1
   0   1 -18 27071.5 3514.16   1
   0   1  18 25398.8 3602.26   1
   1  -1 -18 21537.6 3154.56   1
   0  -1 -18 25481.2 3280.71   1
  -1   0 -18 26548.0 3383.48   1
  -1   0  18 23391.0 3482.35   1
   1  -1 -19 6598.31 1743.15   1
   0  -1  19 6917.44 1976.07   1
   1   0 -19 5416.29 1549.38   1
   0  -1 -19 4282.10 1549.51   1
   0   1  19 5881.39 1820.80   1
   1  -1  19 6005.50 1820.37   1
  -1   1 -19 4185.39 1526.62   1
  -1   1  19 4991.72 1678.47   1
  -1   0 -19 4899.90 1479.69   1
  -1   0  19 4416.22 1571.58   1
   1   0  19 4253.20 1502.12   1
   0   1 -19 5304.86 1633.89   1
   1   0 -20 1587.90 870.336   1
   0   1  20 882.766 532.301   1
   1  -1  20 658.937 655.560   1
   0   1 -20 1197.43 779.110   1
   1   0  20 710.387 738.826   1
  -1   0 -20 709.957 300.376   1
  -1   1 -20 517.189 434.940   1
  -1   0  20-81.8620 547.459   1
  -1   1  20 702.004 869.842   1
   0  -1  20 1223.69 950.611   1
   0  -1 -20 813.220 450.484   1
   1  -1 -20 1093.49 979.594   1
   1  -1  21 9423.16 2248.74   1
  -1   0 -21 6031.07 1733.96   1
  -1   0  21 8176.52 2229.78   1
   0   1 -21 9528.91 2366.53   1
   1   0  21 7406.84 2108.47   1
   0   1  21 7502.75 2070.50   1
   1   0 -21 7601.84 2063.78   1
   0  -1  21 8541.78 2262.78   1
   1  -1 -21 8474.88 2092.83   1
  -1   1 -21 10552.5 2326.08   1
  -1   1  21 6841.50 2074.72   1
  -1   1 -22 17053.2 3082.30   1
  -1   0  22 22096.8 3586.67   1
  -1   1  22 22084.9 3732.71   1
   1   0 -22 19608.4 3255.96   1
   1  -1  22 17472.9 3102.63   1
  -2   1  22 167.337 683.199   1
   1  -2  21 160.472 414.584   1
  -1   2 -21 70.2126 434.244   1
  -2   1  21-155.722 501.552   1
   2  -1 -21-218.650 701.625   1
  -2   1  20 72236.1 6453.60   1
   2  -1 -20 60907.0 5790.75   1
  -1   2 -20 68983.5 6080.33   1
   1  -2  20 81014.6 6851.56   1
  -1   2 -19 765.494 853.237   1
   1  -2  19-802.220 426.180   1
   1   1  19 1159.79 1049.04   1
   2  -1 -19 275.783 626.635   1
  -2   1  19 437.987 777.176   1
   1   1  18-1080.77 830.481   1
  -1  -1 -18-273.211 492.764   1
   1  -2  18 752.612 991.010   1
  -2   1  18-410.392 760.021   1
  -1   2 -18 21.1808 304.873   1
   1  -2  18 749.559 880.470   2
   2  -1 -18 262.201 775.952   1
  -1   2 -17 416.127 355.437   1
  -2   1  17-195.687 418.895   1
   1  -2  17 50.4823 420.902   2
  -1  -1 -17 429.844 496.590   1
   1  -2  17-150.627 393.396   1
   1   1  17-541.298 695.737   1
   2  -1 -17-999.358 895.592   1
  -1  -1 -16 103127. 6813.20   1
   1  -2  16 115741. 7392.10   2
   1   1  16 119161. 7436.74   1
  -2   1  16 107593. 7343.89   1
   2  -1 -16 120217. 7276.64   1
   1  -2  16 122044. 7869.88   1
  -1   2 -16 101503. 7010.09   1
   2  -1 -15-253.143 568.647   1
   1   1  15-1172.42 1011.09   1
  -2   1  15 854.671 794.265   1
  -1  -1 -15-140.872 408.066   1
   1  -2  15 488.589 741.160   2
  -1   2 -15-655.537 632.983   1
   1  -2  15 1019.33 327.062   1
   2  -1 -14 21613.6 2754.91   1
  -1   2 -14 20693.6 2894.78   1
   1  -2  14 25310.2 3037.56   2
  -2   1  14 24395.6 3266.64   1
  -2   1  14 19818.5 2546.45   2
   1  -2  14 23197.5 3210.69   1
  -1  -1 -14 25062.4 3021.97   1
   1   1  14 20919.3 2892.82   1
   1   1  13-21.5893 371.389   2
  -1  -1 -13 1348.15 798.534   1
   2  -1 -13 562.795 312.078   1
   1  -2  13-164.893 540.350   1
  -2   1  13 669.020 373.472   2
  -1   2 -13-320.534 352.095   1
   1   1  13 1766.74 996.445   1
  -2   1  13-1698.70 984.069   1
   1  -2  13-130.367 438.232   2
  -1  -1 -12 515529. 15687.0   1
   1  -2  12 548153. 16490.6   2
  -2   1  12 545706. 15550.2   2
   1  -2  12 518076. 16869.2   1
   2  -1 -12 516991. 16017.0   1
  -1   2 -12 501129. 16143.7   1
   1   1  12 523971. 15114.6   2
   1   1  12 477048. 15925.7   1
   1   1  11 190.489 289.809   2
  -1   2 -11 628.201 291.426   1
  -2   1  11 1074.48 619.539   1
   2  -1 -11 88.3965 421.022   1
   1  -2  11 1008.93 793.290   1
   1  -2  11 242.043 317.376   2
  -1  -1 -11-377.789 377.920   1
  -2   1  11-198.241 306.496   2
   1   1  11 888.576 614.445   1
  -2   1  10 82920.7 5360.10   1
   1   1  10 111672. 5793.01   1
  -1  -1 -10 129559. 5744.72   1
   2  -1 -10 90692.5 5258.64   1
   1  -2  10 108296. 6105.67   1
   1   1  10 85353.9 4516.44   2
  -1   2 -10 101212. 5517.33   1
  -2   1  10 91366.4 4813.97   2
   1  -2  10 102326. 5630.82   2
   1  -2   9-221.874 434.121   1
   1  -2   9-294.789 556.894   2
  -1  -1  -9 418.682 384.004   1
   1   1   9 79.3590 405.258   1
   1   1   9-207.406 345.329   2
   2  -1  -9 851.725 760.485   1
  -2   1   9 443.539 385.627   1
  -1   2  -9 903.242 688.820   1
  -2   1   9-15.4915 207.517   2
   2  -1  -7 447.058 289.710   1
   1   1   7 602.445 237.331   2
  -1   2  -7 883.925 322.876   1
   1   1   7-231.129 190.296   1
  -1  -1  -7 165.023 134.219   1
   1  -2   7 240.302 318.766   1
   1  -2   7-261.103 222.310   2
  -2   1   7 154.405 299.122   1
  -2   1   6 36032.3 2742.41   1
   1  -2   6 35756.3 2604.98   2
  -1   2  -6 31957.2 2426.03   1
  -1  -1  -6 29932.1 2031.77   1
   1  -2   6 36198.1 2660.91   1
   1   1   6 26596.2 1884.15   2
   2  -1  -6 36409.3 2611.28   1
   1   1   6 36286.5 2296.34   1
  -2   1   6 29341.6 2161.63   2
  -2   1   5 519.116 266.644   2
  -2   1   5 2712.30 740.879   1
   1  -2   5 258.620 198.745   2
   1  -2   5 665.311 416.027   1
  -1   2  -5 609.524 427.822   1
   2  -1  -5 3459.87 849.006   1
  -1  -1  -5 106.592 272.613   1
   1   1   5-278.263 238.575   1
   2  -1  -3 462.021 379.346   1
   1  -2   3 558.972 491.958   1
  -2   1   3 323.453 257.731   2
  -1  -1  -3 298.002 173.780   1
  -1   2  -3-174.608 289.267   1
   1   1   3 301.188 177.056   1
   1  -2   3 205.878 194.868   2
  -2   1   3-279.253 312.238   1
  -2   1   1 434.787 274.193   1
  -1  -1  -1 173.034 81.5376   1
   1  -2   1 764.041 323.561   1
  -1  -1  -1-130.559 223.181   2
   1   1   1-53.5260 152.024   1
   1  -2   1-193.093 187.340   2
   2  -1  -1-264.841 309.445   1
  -1   2  -1-111.777 128.042   1
  -1   2   1 17.3766 122.709   1
  -2   1  -1 44.9230 182.868   1
   1  -2  -1 565.520 199.274   2
  -1  -1   1 364.835 182.298   2
   2  -1   1 632.173 260.680   1
   1  -2  -1-32.9892 105.064   1
   1   1  -1 213.119 224.398   1
  -1  -1   1 541.393 264.114   1
   1   1  -3 229.376 217.788   1
  -1  -1   3-76.1616 292.027   1
  -2   1  -3 40.6793 163.232   1
  -1  -1   3 290.351 167.775   2
   1  -2  -3 3.97041 162.826   1
  -1   2   3 312.107 172.682   1
   2  -1   3-285.346 325.400   1
   2  -1   5 164.157 328.845   2
  -1   2   5 461.988 250.025   1
  -2   1  -5-32.8586 266.283   1
   1  -2  -5-189.535 289.155   1
   1   1  -5 24.8590 424.604   1
  -1  -1   5 467.174 527.511   1
   2  -1   5 8.12740 337.729   1
  -1  -1   5 656.712 534.620   2
   1  -2  -6 3630.02 679.429   1
   2  -1   6 3213.34 711.114   2
  -1   2   6 3079.60 387.618   2
   1   1  -6 6259.00 1137.89   1
  -1  -1   6 3817.34 745.057   2
  -1   2   6 4063.91 775.996   1
   2  -1   6 4926.58 987.917   1
  -1  -1   6 4013.17 839.612   1
  -2   1  -6 4146.58 898.985   1
  -1  -1   7 1279.79 678.553   1
   1  -2  -7 163.653 292.292   1
  -1   2   7 192.664 142.139   2
   2  -1   7 684.644 579.488   2
  -1   2   7-11.8506 303.520   1
   2  -1   7-703.382 568.064   1
   1   1  -7 464.216 483.876   1
  -1  -1   7-551.483 479.262   2
  -2   1  -7 409.611 531.066   1
   2  -1   8 930148. 23237.0   1
   1  -2  -9 83.9055 352.909   1
  -1  -1   9 500.699 405.681   2
  -1   2   9 334.517 293.306   1
  -1  -1   9 617.110 732.853   1
   2  -1   9 331.337 214.658   2
  -2   1  -9-666.737 581.359   1
   2  -1   9-360.847 521.022   1
  -1   2   9-0.48218 135.095   2
   1   1  -9 267.704 436.225   1
  -2   1 -10 52363.1 3891.90   1
  -1   2  10 61163.6 4205.77   1
   1  -2 -10 64124.6 4046.84   1
  -1   2  10 58597.1 3067.38   2
  -1  -1  10 69144.9 4631.73   1
   1   1 -10 67894.5 4528.35   1
   2  -1  10 65409.1 4220.02   2
   2  -1  10 66235.0 4431.03   1
  -1  -1  10 67931.0 4388.40   2
   1  -2 -11-413.868 666.085   1
  -1   2  11 195.019 294.328   2
   1   1 -11 1037.04 795.264   1
  -2   1 -11 77.4513 222.174   1
   2  -1  11 540.467 572.384   2
  -1  -1  11 1034.94 805.543   1
   2  -1  11 147.647 386.450   1
  -1  -1  11 674.242 582.817   2
  -1   2  11-1120.90 467.601   1
  -1   2  12 428723. 14560.0   1
  -1  -1  12 427074. 14349.6   2
   1   1 -12 475955. 15054.4   1
  -1  -1  12 410297. 14802.1   1
   2  -1  12 401069. 14249.4   2
   1  -2 -12 519610. 14754.0   1
   2  -1  12 435001. 15106.0   1
  -2   1 -12 472897. 14829.2   1
   2  -1  13-521.669 572.819   2
  -1  -1  13-437.237 610.638   2
   2  -1  13 656.981 675.170   1
   1  -2 -13 264.263 555.508   1
  -2   1 -13-934.573 715.722   1
  -1  -1  13-593.566 921.895   1
  -1   2  13 674.468 317.640   1
   1   1 -13 437.791 548.087   1
  -1  -1  14 3493.81 1248.90   2
   2  -1  14 1132.24 636.989   1
   1   1 -14 3499.06 1073.27   1
   1  -2 -14 3237.32 989.979   1
   2  -1  14 2062.63 1126.03   2
  -1   2  14 3299.92 1294.09   1
  -2   1 -14 2242.89 948.403   1
  -1  -1  14 1908.90 922.916   1
  -2   1 -15-78.0758 268.825   1
   2  -1  15 237.028 333.716   2
  -1  -1  15 123.592 460.591   2
  -1   2  15 304.223 600.453   1
   1  -2 -15-374.056 577.698   1
   2  -1  15 94.5046 314.057   1
   1   1 -15 109.683 510.591   1
  -1  -1  15 135.536 623.536   1
  -1   2  16 150941. 8657.25   1
   2  -1  16 150203. 8634.45   2
   1  -2 -16 180881. 8774.75   1
  -2   1 -16 135601. 8002.52   1
  -1  -1  16 147308. 8434.79   2
   1   1 -16 124883. 7696.30   1
   2  -1  16 157951. 9170.32   1
  -1  -1  16 147075. 8742.56   1
  -2   1 -17 845.231 787.584   1
   1  -2 -17 430.568 649.350   1
  -1  -1  17-458.570 582.867   1
  -1   2  17-96.7787 695.397   1
   1   1 -17-706.831 778.890   1
   2  -1  17-49.8766 425.137   1
  -1  -1  17 11.5347 700.630   2
  -2   1 -18 5455.86 1621.52   1
   1  -2 -18 3851.94 1259.40   1
   1   1 -18 4788.73 1423.09   1
  -1   2  18 4199.67 1415.83   1
   2  -1  18 3486.81 1404.23   1
  -1  -1  18 4044.43 1401.83   1
  -2   1 -19 702.464 914.671   1
   1  -2 -19 169.181 323.269   1
  -1  -1  19-911.692 1174.21   1
   1   1 -19 77.0056 388.571   1
  -1   2  19-24.5175 294.635   1
   2  -1  19 1259.08 987.866   1
   2  -1  20 63138.3 6148.58   1
  -1  -1  20 73529.8 6479.36   1
   1   1 -20 59076.9 5533.08   1
  -2   1 -20 43430.2 4706.74   1
  -1   2  20 51874.8 5452.13   1
  -2   1 -21 61.1194 209.906   1
   1   1 -21-238.640 241.711   1
   2  -1  21 1038.32 1149.43   1
  -1  -1  21 1049.57 906.799   1
   2  -1  22 5101.07 1733.04   1
   2   0   0 197355. 5777.09   1
  -2   0   0 184024. 5578.25   1
  -2   2   0 184031. 5591.31   1
  -2   0  -1 229451. 5971.52   1
   2  -2   1 201444. 6052.51   1
   0  -2  -1 209320. 5371.48   2
  -2   2   1 180721. 5733.18   1
  -2   0   1 197505. 5864.48   1
   2   0  -1 215781. 6218.51   1
   2   0   1 207811. 5789.09   1
   2  -2  -1 180900. 5730.10   1
  -2   0   1 248239. 6665.10   2
   0  -2   1 207635. 5930.17   2
  -2   2  -1 215522. 6125.26   1
   0  -2   1 176541. 5266.57   1
   0  -2   4 478362. 12600.3   1
  -2   0   7 110440. 5088.12   2
   0  -2   7 118578. 5680.41   1
   0  -2  -7 109599. 4395.63   1
   0   2   7 117189. 4746.31   1
   2   0   7 137771. 5489.08   2
  -2   2   7 87413.0 3795.91   2
   2  -2   7 114862. 5497.92   1
   2  -2  -7 122162. 5224.90   1
  -2   0   7 104288. 5356.91   1
   2   0   7 98562.2 4844.82   1
   0  -2   7 116502. 5409.88   2
  -2   2  -7 123470. 5578.83   1
  -2   2   7 122361. 5497.06   1
   0   2  -7 105845. 5229.28   1
   2  -2   7 114166. 5216.51   2
   2   0  -7 119171. 5445.53   1
  -2   0  -7 126389. 5278.43   1
   0   2   7 88858.6 3316.97   2
   0   2   8 13742.2 1139.98   2
   0   2  -8 14577.6 1997.65   1
   2   0   8 12655.7 1613.20   2
  -2   2   8 16213.9 1993.71   1
  -2   2   8 12831.4 1268.72   2
   0   2   8 12916.9 1554.33   1
   2   0  -8 11996.4 1715.27   1
   0  -2   8 13875.2 1912.35   1
   0  -2  -8 14508.6 1568.66   1
  -2   0   8 13538.9 1665.08   2
  -2   0  -8 12014.3 1606.35   1
   0  -2   8 10910.0 1594.09   2
  -2   2  -8 12704.3 1734.15   1
  -2   0   8 15480.0 1934.78   1
   2   0   8 14863.9 1857.40   1
   2  -2   8 15972.6 1967.33   2
   2  -2   8 13987.2 1862.55   1
   2  -2  -8 11400.3 1589.90   1
   0   2   9 55570.7 2793.09   2
   0  -2  -9 40567.8 3031.97   1
   0   2   9 55420.2 3635.38   1
   2   0  -9 51652.8 3836.61   1
   0   2  -9 58994.6 4113.34   1
   0  -2   9 65922.5 4466.06   1
  -2   2  -9 62389.4 4102.36   1
  -2   2   9 65673.7 4305.83   1
   0  -2   9 59482.6 4008.42   2
  -2   0   9 55686.6 4137.95   1
   2  -2   9 60257.8 4090.67   1
  -2   2   9 61257.7 3151.73   2
   2   0   9 59579.6 3708.27   2
   2  -2   9 58696.5 3939.34   2
   2  -2  -9 68293.7 4096.33   1
  -2   0   9 59685.7 3853.19   2
   2   0   9 60837.4 4014.54   1
  -2   0  -9 45726.2 3424.85   1
   0  -2  10 212126. 8972.32   2
   2   0  10 264916. 9657.25   1
   2  -2  10 256789. 9599.65   2
   0   2  10 263164. 9243.67   1
   2   0 -10 218731. 9125.45   1
  -2   0 -10 251703. 9158.27   1
   2  -2  10 246100. 9692.97   1
   2  -2 -10 262095. 9267.97   1
  -2   0  10 262189. 10063.2   1
  -2   0  10 268108. 9347.35   2
   2   0  10 238552. 8749.79   2
  -2   2 -10 240735. 9391.55   1
   0   2 -10 260901. 9715.79   1
   0  -2 -10 277702. 9074.62   1
   0  -2  10 236405. 9630.33   1
  -2   2  10 226180. 7705.93   2
  -2   2  10 264830. 9904.00   1
   0   2  10 164961. 6603.80   2
   0  -2 -11 214604. 8518.71   1
   0  -2  11 239429. 10071.9   1
  -2   2 -11 248146. 9646.04   1
   2   0  11 259735. 9273.06   2
  -2   0  11 225246. 9810.16   1
  -2   0 -11 199303. 8536.40   1
   2  -2  11 247265. 10143.8   1
  -2   2  11 219552. 7933.09   2
   0   2 -11 225780. 9537.33   1
   0   2  11 230787. 7574.33   2
  -2   2  11 239002. 9768.15   1
   2  -2 -11 209510. 8841.79   1
   2   0  11 212128. 9301.28   1
   2   0 -11 259573. 9882.77   1
   2  -2  11 255995. 9892.60   2
  -2   0  11 246443. 9285.11   2
   0  -2  11 242871. 9649.41   2
   0   2  11 205502. 8691.45   1
   0   2 -12 60710.4 4605.23   1
   0  -2  12 65878.1 4802.83   2
  -2   0 -12 63584.8 4508.25   1
  -2   2  12 62483.5 3846.82   2
   2  -2  12 61983.3 4719.98   2
   2   0  12 70448.9 5108.41   1
   0   2  12 64170.9 4641.46   1
   0  -2  12 63319.3 4850.95   1
   2  -2  12 67415.1 4994.74   1
   0  -2 -12 53866.5 3979.81   1
  -2   2 -12 63365.8 4631.93   1
   2   0 -12 62456.9 4678.26   1
  -2   0  12 65300.3 5078.31   1
   2   0  12 75855.2 4794.69   2
  -2   0  12 71637.7 4813.89   2
   2  -2 -12 57526.2 4403.57   1
  -2   2  12 62534.7 4817.99   1
   2   0  13 61608.0 4682.19   2
   2  -2  13 62317.6 5140.61   1
  -2   0 -13 76651.0 5097.48   1
  -2   0  13 68549.7 4872.14   2
   2   0  13 60864.7 4958.42   1
   0  -2  13 54315.7 4828.52   1
   0  -2 -13 53923.1 4191.28   1
  -2   2 -13 54142.0 4514.29   1
  -2   2  13 65213.6 4974.64   1
   0   2  13 60338.7 4622.70   1
   0   2 -13 59320.2 4794.22   1
   2   0 -13 68529.1 4933.51   1
   0  -2  13 59371.6 4672.25   2
   2  -2  13 58271.9 4863.44   2
  -2   0  13 63813.4 5041.90   1
   2  -2 -13 65484.0 4787.64   1
   2  -2 -14 144935. 7633.06   1
   2   0 -14 150785. 7899.83   1
   0   2  14 138705. 7608.08   1
   0   2 -14 136323. 7799.29   1
   2  -2  14 138662. 7841.24   2
   0  -2 -14 135671. 7166.29   1
   2  -2  14 170876. 8965.62   1
  -2   0  14 151525. 8453.92   1
   0  -2  14 148742. 7967.68   2
   0  -2  14 147117. 8175.81   1
   2   0  14 142024. 7645.16   2
  -2   2 -14 132626. 7579.03   1
   2   0  14 126688. 7817.40   1
  -2   2  14 133195. 7860.05   1
  -2   0  14 145812. 7712.16   2
  -2   0 -14 151294. 7900.88   1
   2  -2 -15 601.631 239.336   1
   2  -2  15 2606.00 1128.56   1
  -2   2 -15 2401.07 1047.14   1
   0   2 -15 2004.95 999.799   1
  -2   0 -15 3223.28 1333.56   1
   0  -2  15 2117.70 962.252   1
  -2   0  15 1745.12 376.395   1
   2   0 -15 1339.82 589.524   1
   0  -2 -15 1215.79 567.865   1
   2   0  15 1202.16 534.912   1
   0  -2  15 874.186 378.856   2
   2  -2  15 893.237 603.401   2
   0   2  15 2595.21 934.919   1
  -2   0  15 1558.11 743.093   2
  -2   2  15 1965.45 898.638   1
  -2   2  16 2313.88 1188.76   1
   2  -2  16 2288.11 1221.37   1
   2   0  16 3016.41 1360.97   1
   0   2  16 1773.03 660.649   1
   0  -2  16 1579.35 928.573   2
   0  -2 -16 1559.84 825.215   1
   0   2 -16 3281.23 1187.95   1
   0  -2  16 2856.61 1232.28   1
   2  -2 -16 1589.96 834.553   1
  -2   0 -16 2232.59 1043.10   1
   2   0 -16 1865.88 922.406   1
   2  -2  16 1834.82 1061.83   2
  -2   2 -16 1522.47 987.380   1
  -2   0  16 2497.25 917.864   1
   0  -2  17 24324.8 3491.15   1
   2  -2  17 34038.7 4061.04   1
  -2   0 -17 29006.8 3639.31   1
   0  -2  17 24377.2 3381.15   2
   2   0  17 29845.3 3931.35   1
   2  -2 -17 23728.3 3238.60   1
  -2   2  17 24584.7 3563.50   1
  -2   0  17 28539.5 3708.17   1
   0   2  17 26246.8 3511.00   1
  -2   2 -17 24178.5 3321.83   1
   0   2 -17 23066.2 3136.05   1
   0  -2 -17 24162.0 3111.81   1
   2  -2  17 25594.2 3479.02   2
   2   0 -17 26756.2 3487.93   1
  -2   0  18 54561.3 5332.52   1
   0  -2  18 52018.2 5177.08   1
   0  -2  18 60373.7 5482.92   2
   2   0  18 56084.7 5528.76   1
   2   0 -18 57820.8 5231.11   1
  -2   2  18 59478.7 5698.88   1
  -2   0 -18 58901.2 5343.41   1
   2  -2  18 64277.3 5985.65   1
   2  -2 -18 60612.2 5407.53   1
   0   2 -18 55672.9 5083.71   1
  -2   2 -18 54668.0 5274.82   1
   0   2  18 51090.2 5146.96   1
   2   0  19 39925.6 4694.52   1
   2  -2  19 41128.5 4797.41   1
   0  -2  19 37888.3 4355.60   1
  -2   0 -19 33936.2 3966.72   1
  -2   2 -19 31406.9 3837.49   1
   0   2 -19 42539.1 4422.18   1
  -2   2  19 35075.7 4453.44   1
  -2   0  19 30839.6 4161.45   1
   2   0 -19 34778.4 4092.50   1
   2  -2 -19 34388.5 4256.27   1
  -2   0 -20 9363.91 2179.36   1
  -2   2 -20 8701.16 2094.54   1
   2  -2 -20 7642.71 1874.98   1
   2  -2  20 10568.6 2438.02   1
   2   0  20 6496.26 1972.39   1
   0  -2  20 9418.59 2263.62   1
   2   0 -20 8975.03 2114.26   1
   0   2 -20 7933.74 1956.75   1
  -2   0  20 7404.36 2068.34   1
  -2   2  20 9993.79 2439.40   1
   2   0 -21 4973.53 1541.99   1
   0  -2  21 5374.84 1651.39   1
  -2   2 -21 7371.69 2047.29   1
  -2   0  21 5098.85 1687.76   1
  -2   2  21 4565.61 1723.14   1
   2  -2  21 8223.18 2282.95   1
   0   2 -21 3831.48 1393.39   1
   3  -2 -21 12336.3 2480.72   1
   3  -1 -21 14666.4 2847.47   1
   1  -3  21 14556.9 2791.58   1
  -2   3 -21 14901.9 2761.89   1
  -3   2  21 8117.47 2320.15   1
   2  -3  21 15331.1 2944.27   1
  -3   1  21 12445.0 2757.57   1
   3  -2 -20 845.597 601.853   1
   1  -3  20 1400.38 1049.06   1
  -1   3 -20 2832.21 1233.79   1
  -2   3 -20 1174.65 820.919   1
   2  -3  20-216.324 860.728   1
  -3   1  20 1566.23 1070.20   1
  -3   2  20 1180.42 751.066   1
   3  -1 -20 1419.15 1268.97   1
   3  -1 -19 15875.7 2699.29   1
   3  -2 -19 14193.0 2641.17   1
  -2   3 -19 14297.1 2706.04   1
  -3   1  19 15797.5 3010.95   1
  -1   3 -19 18868.8 3015.41   1
   1  -3  19 15440.7 2848.17   1
   1  -3  19 12474.7 2593.26   2
   2  -3  19 13760.5 2714.56   1
   2  -3  19 13152.2 2789.22   2
   1  -3  18 88112.9 7117.61   2
   2  -3  18 101148. 7698.09   2
   3  -2 -18 110270. 7588.44   1
   2  -3  18 115289. 7943.02   1
   3  -1 -18 114161. 7618.12   1
  -3   2  18 83013.8 7137.12   1
  -2   3 -18 103834. 7384.55   1
  -1   3 -18 107389. 7296.04   1
  -3   1  18 83189.7 6995.08   1
   1  -3  18 109804. 7635.92   1
  -3   2  17 10915.1 2371.90   1
   3  -2 -17 12185.3 2404.46   1
   2  -3  17 11116.3 2430.97   2
  -1   3 -17 13255.0 2381.87   1
   1  -3  17 11794.3 2454.33   1
  -2   3 -17 12285.1 2305.67   1
   3  -1 -17 13246.7 2517.08   1
   2   1  17 13449.2 2532.65   1
  -3   1  17 12841.2 2527.89   1
  -2  -1 -17 12317.7 2301.42   1
   2  -3  17 14324.1 2655.16   1
   1  -3  17 12791.1 2586.88   2
  -3   2  16 64811.7 5746.76   1
   2  -3  16 68864.4 5782.62   1
   1  -3  16 52058.3 5040.03   1
   3  -2 -16 78106.4 5885.84   1
   2  -3  16 57287.6 5283.81   2
  -1   3 -16 69916.9 5652.88   1
   2   1  16 59645.2 5268.77   1
  -2   3 -16 55289.3 5058.60   1
   3  -1 -16 59533.3 5292.44   1
  -3   1  16 59039.9 5533.47   1
   1   2  16 60285.4 5213.62   1
   1  -3  16 55651.9 5209.28   2
  -2  -1 -16 65704.2 5296.30   1
   1  -3  15 25869.7 3460.19   1
   1  -3  15 29053.8 3468.79   2
   1   2  15 26628.6 3225.41   1
  -3   1  15 23963.7 3420.48   1
  -3   2  15 22655.5 3295.64   1
   2  -3  15 25760.1 3452.88   1
   2  -3  15 23115.3 3268.02   2
  -1   3 -15 24555.1 3330.30   1
   3  -1 -15 29718.3 3473.70   1
   3  -2 -15 25922.1 3267.89   1
  -1  -2 -15 28691.6 3176.93   1
  -2   3 -15 25565.6 3272.04   1
   2   1  15 26058.5 3380.08   1
  -2  -1 -15 23833.8 3054.26   1
   2   1  14 89098.7 6218.78   1
  -3   2  14 99645.0 6694.57   1
   1  -3  14 96876.9 6738.40   1
  -3   1  14 68980.1 5778.35   2
   1  -3  14 92045.4 6445.08   2
   2  -3  14 101221. 6473.80   2
   3  -1 -14 98094.3 6370.46   1
   1   2  14 99470.0 6316.69   1
  -2  -1 -14 90095.9 5886.75   1
  -3   1  14 109232. 7136.31   1
  -1   3 -14 97099.4 6390.34   1
   3  -2 -14 103661. 6620.67   1
  -2   3 -14 94219.6 6301.70   1
  -1  -2 -14 103543. 6032.27   1
   2  -3  14 96283.3 6802.94   1
   1  -3  13 18406.0 2820.66   1
  -2  -1 -13 16144.9 2300.16   1
  -1  -2 -13 19552.3 2430.20   1
  -2   3 -13 19766.8 2585.35   1
  -1   3 -13 14712.8 2357.00   1
   3  -1 -13 16813.7 2486.46   1
   2  -3  13 17735.5 2554.97   2
   2   1  13 15410.7 2374.55   1
  -3   2  13 16408.3 2582.31   1
   2  -3  13 14777.1 2492.22   1
  -3   1  13 16200.5 2604.02   1
   1   2  13 15469.0 2279.66   1
   1  -3  13 18766.0 2769.67   2
   3  -2 -13 16449.1 2464.71   1
  -3   1  13 17879.4 2471.98   2
  -1   3 -12 3966.71 1273.45   1
   2  -3  12 3408.30 1344.67   2
   2   1  12 2393.56 891.890   2
  -2  -1 -12 3085.12 949.850   1
   3  -1 -12 3227.95 1246.20   1
   2  -3  12 2524.02 928.123   1
  -1  -2 -12 2022.06 667.627   1
  -3   2  12 2713.45 858.646   2
  -3   2  12 3351.19 1291.48   1
   3  -2 -12 2577.24 947.616   1
  -3   1  12 4312.86 1240.91   2
   1  -3  12 1292.73 608.292   2
   1   2  12 4478.70 1259.74   1
  -2   3 -12 3378.06 1027.77   1
  -3   1  12 1832.72 864.921   1
   1  -3  12 4412.12 1493.75   1
   2   1  12 1585.13 473.271   1
  -3   2  11 18424.1 2647.73   1
   2   1  11 29632.2 2930.99   1
   2  -3  11 29166.4 3090.14   2
   3  -1 -11 29904.4 3225.64   1
   1  -3  11 31695.2 3272.13   1
  -3   1  11 29049.6 3302.21   1
   2  -3  11 28115.2 3227.75   1
   1   2  11 30406.1 2923.50   1
  -3   1  11 27961.6 2876.32   2
  -2   3 -11 23025.9 2726.20   1
   2   1  11 25769.8 2670.81   2
   3  -2 -11 29256.0 3124.66   1
  -2  -1 -11 32729.5 2973.48   1
  -1  -2 -11 28398.2 2701.47   1
  -1   3 -11 27204.7 3029.85   1
   1  -3  11 33753.9 3260.80   2
   1   2  11 24583.6 2186.99   2
  -3   2  11 23840.6 2509.07   2
   2   1  10 183628. 7137.20   2
  -1  -2 -10 194189. 7315.08   1
  -3   2  10 187169. 7224.48   2
  -1   3 -10 161454. 7669.60   1
   3  -1 -10 180468. 8123.13   1
  -3   2  10 189285. 8435.43   1
   1  -3  10 173182. 7994.22   2
   2  -3  10 180278. 8333.64   1
   1  -3  10 170285. 8131.67   1
  -3   1  10 183220. 7703.39   2
   1   2  10 139533. 5976.11   2
  -2  -1 -10 185371. 7353.31   1
  -3   1  10 182770. 8535.10   1
   1   2  10 157917. 7142.08   1
   2  -3  10 185758. 8153.56   2
  -2   3 -10 165032. 7771.91   1
   2   1  10 194602. 8050.18   1
   3  -2 -10 211287. 8559.92   1
  -2  -1  -9 279201. 10997.3   1
   1  -3   9 434860. 13475.2   2
  -1  -2  -9 413089. 11840.1   1
  -1   3  -9 395789. 13046.5   1
   1   2   9 378226. 10886.1   2
   3  -1  -9 398232. 13201.8   1
  -3   1   9 445947. 14103.5   1
   3  -2  -9 399243. 13047.2   1
   2   1   9 416165. 12042.9   2
   2  -3   9 420368. 13597.0   1
  -3   2   9 464523. 12411.6   2
  -3   1   9 386681. 12642.2   2
   1  -3   9 461896. 14212.3   1
   2  -3   9 453875. 13742.7   2
   1   2   9 453389. 12685.2   1
   2   1   9 486088. 13402.6   1
  -2   3  -9 436236. 13522.0   1
  -3   2   8 25716.4 2615.36   1
   3  -2  -8 23610.0 2531.78   1
   1   2   8 27602.0 2318.15   1
   2   1   8 26334.7 2390.50   1
   1   2   8 18740.8 1617.73   2
   3  -1  -8 27590.6 2648.23   1
  -2  -1  -8 20064.5 2022.31   1
  -3   1   8 25040.7 2401.99   2
  -3   2   8 24393.7 2178.85   2
   2   1   8 25879.1 2238.83   2
  -1   3  -8 24638.8 2547.99   1
  -3   1   8 27350.2 2766.74   1
   1  -3   8 27449.5 2766.46   1
   2  -3   8 26155.1 2614.57   2
  -1  -2  -8 21025.8 1917.91   1
   2  -3   8 31266.1 2884.58   1
   1  -3   8 28384.5 2765.58   2
  -2   3  -8 25063.1 2634.27   1
  -3   1   5 371997. 10182.6   2
   2  -3   5 333292. 10197.1   1
   3  -2  -5 253994. 9321.10   1
   1  -3   5 330112. 9945.42   1
   2  -3   5 297101. 9775.62   2
   2   1   5 337333. 9121.82   1
  -2   3  -5 331590. 10189.0   1
   3  -1  -5 319642. 10069.7   1
   1  -3   5 348060. 10292.6   2
  -3   1   5 336254. 10243.2   1
  -1   3  -5 361053. 10302.8   1
  -2  -1  -5 270296. 8574.53   1
  -3   2   5 364496. 10404.7   1
   3  -2  -3 73296.0 3621.93   1
   3  -1  -3 65649.6 3481.06   1
   2  -3   3 58301.3 3113.69   2
   1  -3   3 58905.8 3101.09   1
   1   2   3 47212.7 1800.31   1
  -1   3  -3 70569.3 3338.60   1
  -2  -1  -3 54659.5 2476.08   1
   1  -3   3 60797.3 3323.82   2
  -3   1   3 63691.0 3372.64   2
  -2   3  -3 57284.8 3241.86   1
  -3   2   3 62918.0 3329.50   1
  -3   1   3 57853.1 3195.81   1
  -1  -2  -3 57414.2 1880.36   1
   2  -3   3 48009.8 2992.99   1
   2   1   3 60795.6 2727.68   1
   1  -3   1 239668. 7019.26   2
  -2  -1  -1 208252. 6289.64   1
  -1   3  -1 224210. 6611.85   1
   2  -3   1 214443. 6774.43   2
   1  -3   1 253631. 6735.89   1
  -3   1   1 226131. 7294.07   1
   2  -3   1 253464. 7173.72   1
  -2   3  -1 248254. 7177.73   1
  -2  -1  -1 266082. 7729.33   2
   3  -1  -1 234360. 7482.89   1
  -1  -2  -1 251800. 6968.97   2
   3  -2  -1 256768. 7648.54   1
  -3   2   1 259239. 7589.39   1
   2  -3   0 665.168 357.124   1
  -2  -1   0 1063.68 327.136   1
  -1   3   0 741.659 251.708   1
   1  -3   0 981.162 343.828   2
   1   2   0 897.740 252.937   1
  -2   3   0 1182.41 430.852   1
   1  -3   0 653.451 265.411   1
  -1  -2   0 564.318 189.358   1
   2   1   0 483.473 328.876   1
  -3   2   0 931.349 286.664   1
  -3   1   0 611.910 429.856   1
   3  -2   0 259.239 228.857   1
   3  -1   0 566.908 250.939   1
   2  -3   0 1344.14 359.216   2
  -2  -1   0 772.746 427.169   2
  -1  -2   0 1000.80 391.819   2
  -3   2  -1 348664. 10092.3   1
  -3   1  -1 368563. 10141.3   1
  -2  -1   2 162358. 5599.55   2
  -3   2  -2 151371. 5390.94   1
   2  -3  -2 146398. 4670.11   1
   2  -3  -2 158539. 4303.18   2
   3  -1   2 132070. 5133.40   1
   1  -3  -2 119624. 3684.18   1
   1   2  -2 146566. 4830.57   1
   1  -3  -2 118818. 3823.83   2
  -2   3   2 146633. 4766.22   1
   3  -2   2 160044. 5579.63   1
  -1   3   2 139122. 3822.08   1
  -3   1  -2 146463. 5207.07   1
   2   1  -2 138133. 5023.37   1
  -1  -2   2 152808. 4930.63   1
  -1  -2   2 152002. 5349.12   2
  -2  -1   2 141550. 5057.37   1
  -3   2  -4 369401. 10714.4   1
  -2  -1   4 377449. 10814.7   2
  -2  -1   4 379057. 10826.0   1
  -1  -2   4 405706. 10848.5   1
   3  -1   4 396068. 10749.8   1
  -2   3   4 328265. 9531.88   1
  -3   1  -4 383207. 10607.5   1
   1   2  -4 345696. 10291.3   1
   2  -3  -4 376883. 9848.26   1
  -1  -2   4 368500. 10814.5   2
   2   1  -4 359732. 10494.3   1
   3  -2   4 368855. 10826.1   1
   3  -1   7 229950. 8073.66   2
  -2  -1   7 198011. 7862.04   1
   3  -2   7 188320. 7594.18   1
  -2  -1   7 178142. 7224.33   2
   2  -3  -7 207361. 7019.62   1
  -1  -2   7 189476. 7453.19   2
  -3   1  -7 185935. 7371.97   1
  -1   3   7 205969. 6760.13   1
  -3   2  -7 186008. 7510.16   1
  -1  -2   7 182869. 7590.11   1
   2   1  -7 180402. 7393.98   1
   3  -1   7 161267. 7068.17   1
  -2   3   7 176064. 6849.75   1
   1   2  -7 182950. 7390.40   1
   1  -3  -7 144795. 5807.44   1
   3  -2   7 178523. 7195.03   2
  -2  -1   8 846234. 21917.7   2
  -1  -2   8 871639. 22205.4   2
   2  -3  -9 65375.9 3898.16   1
  -3   1  -9 66098.9 4185.74   1
  -1  -2   9 64455.8 4434.16   1
  -2  -1   9 72257.0 4616.42   1
   1  -3  -9 50804.2 3286.84   1
  -2   3   9 68340.1 4224.62   1
   3  -1   9 68199.0 4096.09   2
   3  -2   9 61170.5 4302.26   1
   1   2  -9 53662.6 3984.59   1
   3  -1   9 64758.6 4311.57   1
  -2  -1   9 59472.0 4079.42   2
  -1   3   9 69305.4 4023.15   1
  -1  -2   9 62923.8 4253.62   2
   2   1  -9 73050.2 4437.58   1
  -3   2  -9 58061.4 4063.57   1
   3  -2   9 71759.8 4349.06   2
   3  -1  10 314240. 12299.6   1
  -1  -2  10 381624. 13345.4   1
  -2  -1  10 358504. 12509.3   2
   2  -3 -10 531012. 13665.5   1
   3  -2  10 392250. 13270.6   1
  -3   1 -10 452391. 13363.4   1
   3  -2  10 395026. 12874.8   2
   1  -3 -10 429715. 12211.5   1
  -2   3  10 335249. 12193.2   1
   3  -1  10 366997. 12306.2   2
   1   2 -10 319370. 12342.2   1
  -1  -2  10 394222. 13026.4   2
  -2  -1  10 368693. 13242.5   1
  -1   3  10 374344. 12128.8   1
   2   1 -10 333761. 12486.3   1
  -3   2 -10 393821. 12989.6   1
   3  -1  11 3487.91 1078.20   2
  -2   3  11 2560.91 815.077   1
   3  -1  11 4395.08 1120.40   1
  -1  -2  11 3430.64 1108.87   2
  -2  -1  11 4197.66 1286.78   1
   1  -3 -11 2534.51 779.831   1
  -2  -1  11 3031.49 888.540   2
   3  -2  11 3341.00 922.770   1
   1   2 -11 2503.33 1084.38   1
   3  -2  11 2907.05 1007.94   2
  -3   1 -11 2217.85 668.165   1
   2  -3 -11 3491.50 1060.76   1
  -3   2 -11 3444.18 837.694   1
   2   1 -11 4823.81 1276.45   1
  -1   3  11 3878.60 1123.78   1
  -1  -2  11 3102.36 1180.09   1
  -1  -2  12 2617.39 1031.49   1
  -1   3  12 3675.94 1117.39   1
   2  -3 -12 2082.99 895.266   1
  -3   2 -12 1499.12 752.347   1
   1  -3 -12 3957.01 1103.81   1
   1   2 -12 2357.92 954.565   1
  -2  -1  12 2964.88 850.874   1
  -2   3  12 2609.96 978.125   1
  -1  -2  12 3252.72 1052.48   2
   3  -1  12 4251.67 1242.40   1
  -3   1 -12 2376.22 1002.26   1
   3  -1  12 4109.00 1305.75   2
   2   1 -12 4537.10 1441.53   1
   3  -2  12 2466.31 955.192   2
  -2  -1  12 3417.74 1162.31   2
   3  -2  12 1802.82 437.719   1
  -3   1 -13 23177.5 2720.32   1
  -2  -1  13 19479.3 2636.22   2
  -3   2 -13 17441.7 2547.41   1
   3  -1  13 17601.5 2589.45   2
   3  -1  13 19652.8 2850.34   1
  -2   3  13 21651.5 2802.66   1
   2  -3 -13 19419.1 2545.96   1
  -2  -1  13 17520.5 2583.35   1
   2   1 -13 19169.8 2627.98   1
  -1  -2  13 18362.3 2735.71   1
   1   2 -13 17125.6 2459.81   1
  -1  -2  13 18482.2 2668.38   2
   3  -2  13 19117.5 2800.37   1
  -1   3  13 19548.0 2519.39   1
   1  -3 -13 17045.5 2248.62   1
   3  -2  13 16680.5 2664.93   2
  -2  -1  14 64119.2 5400.54   1
   1  -3 -14 64980.4 4770.16   1
   3  -2  14 61559.3 5321.18   1
  -1   3  14 56979.3 4739.10   1
  -1  -2  14 51313.2 4828.87   1
  -3   2 -14 56525.1 4762.96   1
   2   1 -14 60085.2 4940.72   1
   2  -3 -14 69915.7 5089.07   1
   3  -1  14 55827.3 4953.46   1
  -3   1 -14 57830.6 4749.74   1
   1   2 -14 63608.1 5043.28   1
  -1  -2  14 65156.6 5117.24   2
  -2   3  14 67388.1 5246.24   1
   3  -2  14 68935.1 5566.63   2
   3  -1  14 68119.0 5420.07   2
  -2  -1  14 63281.9 5112.68   2
  -3   1 -15 104465. 6673.64   1
  -2  -1  15 117792. 7513.27   1
  -2   3  15 110905. 7135.12   1
   3  -1  15 112869. 7422.95   1
  -3   2 -15 108684. 6919.20   1
   3  -1  15 113557. 7274.13   2
   3  -2  15 109976. 7411.29   1
  -1  -2  15 99610.4 6828.13   2
   2  -3 -15 117785. 6903.98   1
  -1  -2  15 100847. 6944.70   1
   3  -2  15 91898.3 6826.24   2
   2   1 -15 105390. 6823.11   1
  -2  -1  15 105811. 6993.48   2
   1   2 -15 104011. 6701.50   1
   1  -3 -15 103523. 6380.36   1
  -1   3  15 111860. 6996.37   1
   2  -3 -16 420.658 398.828   1
  -3   1 -16 877.364 683.759   1
   1   2 -16 81.6674 656.773   1
   3  -1  16 91.2634 606.741   1
   3  -2  16 95.7323 466.778   2
   2   1 -16 458.464 518.650   1
  -3   2 -16-340.162 682.914   1
  -1   3  16-317.286 762.513   1
   3  -2  16-389.117 701.500   1
  -2  -1  16 117.004 428.221   2
   3  -1  16-222.709 508.098   2
  -1  -2  16-502.440 349.128   2
  -2  -1  16-456.615 908.876   1
   1  -3 -16-223.846 409.082   1
  -2   3  16 153.306 313.246   1
  -1  -2  16 107.239 763.316   1
   3  -1  17 58850.9 5625.56   1
  -2  -1  17 56508.8 5364.09   1
  -1  -2  17 52837.8 5082.27   2
   2  -3 -17 57409.5 5067.28   1
   3  -2  17 52102.0 5292.49   1
   2   1 -17 55875.0 5030.48   1
  -2   3  17 52947.3 5211.89   1
  -2  -1  17 47352.8 4887.43   2
   3  -2  17 51513.0 5211.16   2
   1   2 -17 47280.2 4612.53   1
  -1  -2  17 49693.9 4869.98   1
  -3   2 -17 49085.9 4830.23   1
  -3   1 -17 47130.7 4667.68   1
   3  -2  18 59830.7 5899.93   1
  -1  -2  18 68931.7 6072.35   1
  -2   3  18 65702.6 5972.99   1
  -1  -2  18 65641.0 5884.81   2
  -3   1 -18 54838.8 5263.53   1
   2   1 -18 67256.9 5714.07   1
  -2  -1  18 81550.0 6474.92   1
   3  -1  18 69932.0 6319.78   1
   1   2 -18 66788.6 5656.18   1
  -3   2 -18 63167.7 5634.81   1
  -1  -2  19 7276.53 2005.50   1
   3  -1  19 5840.89 1801.94   1
  -3   2 -19 3705.35 1188.10   1
  -3   1 -19 5016.55 1593.40   1
  -2  -1  19 3739.20 1455.84   1
   2   1 -19 6475.86 1801.97   1
   1   2 -19 7515.99 1942.08   1
   3  -2  19 5004.08 1646.32   1
   3  -1  20 15687.5 2986.63   1
  -3   1 -20 13052.4 2612.51   1
   3  -2  20 18417.2 3164.81   1
  -1  -2  20 17672.3 3234.09   1
  -2  -1  20 18170.1 3171.20   1
  -3   2 -20 10498.1 2272.76   1
   1   2 -20 17796.8 2985.32   1
   2   1 -20 15780.6 2838.30   1
  -3   1 -21 2065.29 1069.45   1
   2   1 -21 1393.55 749.454   1
   3  -1  21 1540.38 965.602   1
  -2  -1  21 2688.36 1308.39   1
  -3   2 -21 865.950 808.966   1
   3  -2  21 3562.43 1630.98   1
   3  -3   1 1025.44 395.415   1
  -3   0   1 356.294 249.729   1
   0  -3   1 590.256 303.436   1
   0   3  -1 1208.39 357.098   1
   0   3   1 386.684 107.609   1
  -3   0  -1 759.543 413.853   1
  -3   3  -1 852.063 428.433   1
   3  -3  -1 720.709 355.556   1
  -3   3   1 316.342 302.224   1
  -3   0   1 995.060 318.247   2
   3  -3   1 791.407 193.191   2
   0  -3   1 1030.67 576.625   2
   0  -3  -1 583.908 142.917   1
   3   0   1 586.503 195.733   1
   3   0  -1 473.595 364.049   1
   0  -3  -1 433.104 170.692   2
   0  -3   2 30086.8 2359.74   2
   0   3  -2 38925.8 2235.49   1
   3   0   2 33002.3 2269.06   1
   3  -3   2 36748.1 2488.06   1
   0  -3   2 30185.5 2043.47   1
   0  -3  -2 39451.0 1995.41   2
   3  -3  -2 41647.4 2603.08   1
  -3   0   2 37598.8 2688.92   2
   3  -3   2 44169.6 2689.28   2
  -3   3  -2 34288.4 2459.75   1
   3   0  -2 33063.4 2460.25   1
  -3   3   2 35293.3 2382.64   1
  -3   0  -2 28242.3 2050.43   1
  -3   0   2 32669.9 2270.61   1
   3  -3  -3 31716.5 2293.54   1
  -3   0   3 23116.7 2131.60   2
   0   3  -3 21266.2 1834.87   1
   3   0  -3 24023.2 2070.59   1
   0  -3  -3 25884.1 1518.55   2
   3  -3   3 31821.3 2367.53   2
   0  -3   3 22543.5 2052.51   2
  -3   0   3 27499.9 2187.86   1
   3   0   3 28523.6 2058.70   1
   3  -3   3 25852.9 2218.20   1
  -3   0  -3 23830.4 1922.26   1
   0  -3   3 28430.3 2073.61   1
  -3   3  -3 25238.3 2207.96   1
  -3   3   3 34739.3 2381.83   1
   0  -3  -5 18562.3 1096.35   1
   3  -3  -5 23487.2 2064.16   1
  -3   3   5 16481.5 1768.49   1
   0   3   5 20221.5 1201.91   1
  -3   3  -5 21877.9 2197.57   1
   0   3  -5 23052.7 2063.59   1
   0  -3   5 18202.2 2055.13   2
   0  -3   5 21998.0 2127.43   1
   3   0   5 22554.8 2046.49   1
   3   0  -5 15767.5 1892.06   1
   3  -3   5 17476.3 2020.72   1
  -3   0   5 19252.9 2029.63   2
  -3   0  -5 19249.4 1834.05   1
  -3   0   5 21528.1 2186.89   1
   3  -3   5 19276.6 1965.20   2
  -3   3  -6 12877.5 1819.98   1
   3  -3   6 12626.8 1830.84   1
   0   3  -6 12877.2 1637.05   1
  -3   0   6 9565.98 1524.02   2
   0  -3  -6 13059.9 1083.72   1
  -3   3   6 14278.8 1687.26   1
   0  -3   6 12638.1 1748.58   2
   3  -3  -6 12981.7 1642.71   1
   3   0   6 13173.4 1626.78   1
   0   3   6 12019.3 1125.23   1
   3   0  -6 13109.5 1783.14   1
   3  -3   6 10925.1 1564.34   2
  -3   0   6 12252.9 1731.67   1
   0  -3   6 17496.6 1940.89   1
  -3   0  -6 9989.44 1395.69   1
   0  -3   7 13658.7 1859.66   1
   0   3   7 9389.16 1131.63   1
   0  -3  -7 9286.22 1034.15   1
  -3   3   7 10405.8 1498.42   1
  -3   0  -7 9590.13 1397.23   1
   3   0  -7 9009.62 1475.71   1
   0  -3   7 10177.4 1562.19   2
   3  -3   7 10504.6 1612.72   1
  -3   0   7 11908.2 1746.39   1
   3  -3  -7 9328.74 1497.72   1
  -3   3  -7 10393.3 1731.94   1
   0   3  -7 9110.34 1448.03   1
   3  -3   7 11703.7 1583.62   2
   3   0   7 13752.1 1756.48   1
  -3   0   7 9980.53 1487.39   2
  -3   0   8 772168. 22711.4   1
   3   0   8 945056. 22830.5   1
   3   0  -8 832668. 22890.7   1
  -3   0   8 952390. 23183.7   2
   0   3  -8 931958. 23142.7   1
   3   0   9 19141.1 2238.09   1
  -3   0   9 16342.8 2358.03   1
   0   3  -9 14620.2 2198.06   1
   3  -3   9 16420.4 2357.26   1
   3  -3   9 14390.7 2000.66   2
   3   0  -9 20506.6 2426.58   1
   0  -3   9 17377.0 2166.08   2
   0  -3  -9 21369.8 1870.47   1
   0   3   9 18059.9 1926.73   1
   0  -3   9 17131.6 2416.71   1
   3   0   9 21005.4 2323.33   2
   3  -3  -9 25159.2 2515.20   1
  -3   3  -9 16488.8 2117.92   1
  -3   0   9 17073.7 2205.94   2
  -3   0  -9 16627.0 1991.75   1
  -3   3   9 16402.9 2209.33   1
   0  -3  10-664.597 881.131   1
   3  -3 -10-34.9153 399.367   1
  -3   0  10-1174.67 787.336   1
   0  -3  10-925.295 554.662   2
   0   3 -10-204.235 552.286   1
   0   3  10 466.244 284.384   1
  -3   3 -10-787.731 412.862   1
  -3   3  10-202.188 285.840   2
   0  -3 -10-9.82891 298.605   1
  -3   0  10-388.757 481.670   2
   3   0 -10-522.308 644.330   1
   3  -3  10-588.934 793.378   1
   3  -3  10-72.1827 476.452   2
   3   0  10 106.425 211.972   2
  -3   3  10-932.443 771.360   1
   3   0  10-464.796 476.864   1
  -3   0 -10 318.931 221.736   1
   0  -3  11 584.065 692.225   2
   3   0  11-300.275 242.312   1
   3  -3 -11 18.9429 238.008   1
   0   3 -11 1083.88 780.386   1
   0   3  11-126.382 462.648   1
  -3   0 -11 9.55009 414.454   1
  -3   3 -11 1000.82 891.276   1
   3   0  11 115.120 467.600   2
   3  -3  11 235.538 445.011   2
  -3   0  11 836.753 832.059   1
   3   0 -11-191.510 658.549   1
   0  -3  11 847.166 824.607   1
   3  -3  11 888.316 878.639   1
  -3   3  11 240.398 319.074   1
   0  -3 -11 207.481 174.557   1
  -3   0  11 631.759 586.692   2
   3   0  12 314704. 11746.4   2
  -3   0 -12 373976. 12408.5   1
   3  -3  12 370891. 13044.8   2
  -3   3  12 271469. 11667.4   1
  -3   0  12 298507. 12489.4   1
  -3   3 -12 314934. 12144.4   1
   0   3 -12 319762. 12404.5   1
   3   0  12 367330. 12869.1   1
   3   0 -12 335016. 12500.0   1
   0  -3 -12 297673. 10677.4   1
   0   3  12 311200. 11291.8   1
   0  -3  12 320217. 12240.3   2
   3  -3 -12 344782. 12250.6   1
  -3   0  12 324247. 12331.7   2
   0  -3  12 314129. 12635.3   1
   3  -3  12 307487. 12240.0   1
   0  -3  13 1537.96 644.267   2
   3  -3 -13 445.036 397.610   1
  -3   3  13 587.014 451.448   1
   0   3 -13 656.197 439.095   1
   3  -3  13 2101.03 1185.52   1
   0  -3  13 439.059 558.282   1
   3  -3  13 615.782 431.596   2
  -3   0  13 2159.66 1096.67   2
   3   0 -13 1826.82 1151.43   1
   3   0  13 616.984 456.952   2
   0  -3 -13 1133.58 535.880   1
  -3   0 -13 1489.98 634.694   1
   3   0  13 1883.01 1141.24   1
  -3   0  13 310.919 593.541   1
   0   3  13 1109.87 495.665   1
  -3   3 -13 871.091 617.352   1
   3   0  14 906.939 737.838   1
   0   3  14 226.908 490.192   1
   0   3 -14-664.858 902.094   1
  -3   3  14 41.4501 464.162   1
   0  -3  14 1342.92 803.777   2
   3  -3  14 73.7931 444.066   1
   3  -3 -14 44.1472 444.555   1
   3  -3  14 323.472 581.037   2
  -3   3 -14 1186.47 844.144   1
   0  -3  14 261.399 768.723   1
   3   0 -14-72.1629 513.342   1
  -3   0  14 122.696 319.597   2
  -3   0  14-477.733 870.935   1
   3   0  14-216.494 508.144   2
  -3   0 -14 621.439 493.623   1
   3   0  15 1051.29 609.276   1
  -3   3 -15-844.405 445.809   1
  -3   0  15 818.305 727.021   2
   3  -3  15 846.604 431.640   2
   0  -3  15 828.422 641.466   1
   3   0 -15 555.508 264.383   1
   0   3 -15 820.442 683.359   1
  -3   0  15 487.653 823.671   1
  -3   0 -15-138.220 302.815   1
   3  -3  15 690.610 734.330   1
   3  -3 -15 1346.17 774.534   1
   0  -3  15 95.4982 825.192   2
  -3   3  15 331.495 293.113   1
   0  -3  16 146175. 8646.53   2
  -3   0  16 158785. 9075.82   2
   0   3 -16 157152. 8694.32   1
   3  -3  16 164895. 9226.40   2
  -3   0  16 154069. 9142.69   1
   3   0 -16 156979. 8573.69   1
   0  -3  16 140211. 8610.17   1
   3  -3  16 166214. 9491.76   1
  -3   0 -16 161931. 8660.10   1
  -3   3 -16 163613. 8736.53   1
   3  -3 -16 150464. 8512.99   1
   3   0  16 145543. 8832.64   1
  -3   3  17 484.813 497.634   1
  -3   0  17 203.173 567.834   1
   0  -3  17 428.349 936.668   1
  -3   3 -17 98.1051 472.600   1
   3  -3  17 654.581 885.130   2
   3  -3 -17 156.320 464.116   1
  -3   0 -17 478.196 326.622   1
   0  -3  17 1596.34 1053.97   2
   3  -3  17 1451.22 767.626   1
   0   3 -17 401.327 507.043   1
   3   0  17 329.434 848.528   1
   3   0 -17-149.980 762.720   1
   3  -3 -18 5.96237 641.694   1
   0  -3  18-344.120 752.653   1
   0   3 -18 586.764 301.590   1
   0  -3  18-272.945 329.562   2
   3   0 -18-230.430 362.724   1
   3   0  18 2.21971 891.572   1
   3  -3  18 1644.51 1268.96   1
  -3   0  18 22.3312 877.768   1
  -3   3  18 1558.39 1044.08   1
  -3   3 -18 161.640 348.203   1
   3  -3  18 743.871 801.976   2
  -3   0 -18 1236.41 928.827   1
  -3   3  19 194.960 424.056   1
   0  -3  19-195.168 383.968   2
   0  -3  19 953.443 892.453   1
   3   0 -19 683.439 334.952   1
  -3   0  19 948.101 893.648   1
   3  -3 -19 195.599 320.182   1
   3   0  19 1185.98 1014.70   1
   0   3 -19-689.066 543.391   1
  -3   3 -19-216.126 428.478   1
   3  -3  19-536.384 390.708   1
  -3   3 -20 44321.3 5026.51   1
   0  -3  20 50103.4 5346.26   1
   3   0 -20 53363.5 5415.99   1
   3  -3  20 54682.2 5733.93   1
   0   3 -20 54855.9 5312.55   1
  -3   0  20 43974.0 5127.03   1
   3  -3  21-251.134 400.931   1
  -3   3 -21 129.884 489.006   1
  -4   2  21-96.6084 369.998   1
   4  -2 -21-432.997 697.292   1
  -4   2  20 26285.0 3864.24   1
   2  -4  20 26022.7 3926.86   2
  -2   4 -20 42631.9 4598.38   1
   2  -4  20 39102.2 4745.72   1
   4  -2 -20 30056.8 3965.11   1
  -4   2  19-1272.22 1041.29   1
  -2   4 -19 476.221 710.628   1
   4  -2 -19 531.727 625.210   1
   2  -4  19-333.317 619.942   2
   2  -4  19 618.873 694.881   1
   2  -4  18 838.642 557.818   2
  -2   4 -18 3636.35 1363.14   1
   4  -2 -18 1876.57 1017.22   1
  -4   2  18 1481.90 938.290   1
   2  -4  18 2143.17 903.996   1
   4  -2 -17 616.794 585.899   1
   2  -4  17-369.061 593.606   2
  -2   4 -17 442.191 866.900   1
  -4   2  17-266.728 409.296   1
   2  -4  17-1038.46 800.895   1
  -2   4 -16 286309. 12339.2   1
   2  -4  16 269493. 12398.6   2
   2  -4  16 288425. 12955.5   1
   4  -2 -16 254290. 11831.9   1
  -2   4 -15-517.008 589.233   1
   2  -4  15-684.837 514.701   1
  -4   2  15 1.93630 468.580   1
   4  -2 -15 30.5854 525.779   1
   2  -4  15-544.280 694.372   2
  -4   2  14 16373.0 2919.59   1
   2  -4  14 17255.6 2667.06   2
   2  -4  14 16270.2 2737.87   1
  -2   4 -14 14411.4 2490.55   1
   2   2  14 11257.0 2172.90   1
   4  -2 -14 17832.1 2699.94   1
  -4   2  13 644.976 656.574   1
   2  -4  13 846.208 800.399   1
  -2  -2 -13 272.930 462.633   1
  -2   4 -13 315.790 562.658   1
  -4   2  13-85.0564 231.589   2
   2   2  13-225.781 837.649   1
   2  -4  13 728.413 705.867   2
   4  -2 -13 986.488 609.140   1
  -4   2  12 47497.1 4432.93   1
   2  -4  12 46655.0 4278.07   2
   2   2  12 47818.7 3942.75   1
  -2   4 -12 45130.2 4034.46   1
   4  -2 -12 37749.7 3824.30   1
  -4   2  12 40835.3 3701.12   2
  -2  -2 -12 50187.2 3802.31   1
   2  -4  12 50677.4 4404.71   1
   2   2  11 107.840 313.762   2
   4  -2 -11 654.283 706.291   1
  -4   2  11-529.179 415.521   2
   2   2  11-143.965 184.444   1
   2  -4  11 704.629 829.028   1
  -4   2  11 653.676 824.857   1
   2  -4  11-1.43151 401.043   2
  -2  -2 -11 319.167 215.317   1
  -2  -2 -10 72511.6 4069.47   1
  -4   2  10 72053.4 5042.75   1
  -4   2  10 58734.1 4025.96   2
   2  -4  10 67807.8 4751.58   2
  -2   4 -10 61671.6 4506.91   1
   2   2  10 53323.8 3820.00   1
   2  -4  10 67725.3 4834.79   1
   4  -2 -10 53847.5 4304.17   1
  -4   2   9 94.7769 470.909   1
   2  -4   9-721.090 603.257   2
  -2   4  -9 54.5329 355.769   1
   4  -2  -9-840.211 516.667   1
   2  -4   9 853.188 405.854   1
   2   2   9 34.8832 371.646   2
   2   2   9-81.4313 405.443   1
  -2  -2  -9-104.529 198.136   1
  -4   2   9 117.609 394.457   2
  -4   2   7-262.735 752.964   1
   2  -4   7-619.648 599.253   1
   4  -2  -7-276.877 358.252   1
  -2   4  -7 261.629 342.769   1
  -4   2   7-137.499 321.184   2
  -2  -2  -7-57.4447 169.456   1
   2   2   7-95.8418 123.190   1
   2  -4   7 372.492 471.670   2
  -2   4  -6 5957.65 1261.03   1
   2  -4   6 5402.98 1111.82   2
  -4   2   6 5734.66 1182.45   1
   4  -2  -6 8353.78 1351.15   1
  -2  -2  -6 7286.14 914.953   1
   2   2   6 7715.93 993.458   1
   2  -4   6 6074.03 1107.14   1
   2  -4   5-77.3687 251.647   1
  -2  -2  -5 791.815 350.020   1
   4  -2  -5 429.747 377.031   1
   2   2   5 147.953 165.199   1
   2  -4   5-235.848 346.838   2
  -4   2   5 215.498 455.242   1
  -2   4  -5-484.208 372.924   1
  -2   4  -3-187.356 241.694   1
   2  -4   3-5.41925 249.706   2
  -4   2   3-251.711 578.490   1
   2   2   3 200.182 210.251   1
  -2  -2  -3 59.3173 103.107   1
   2  -4   3-230.879 353.488   1
   2  -4   1 118.449 198.430   2
   2  -4   1-497.560 368.695   1
  -2   4  -1-66.5181 202.039   1
  -2  -2  -1-3.45015 130.501   1
  -2  -2  -1 8.94987 205.663   2
  -4   2   1-55.5372 267.415   1
   4  -2  -1 11.9581 318.937   1
   2   2   1 354.277 230.177   1
   2  -4  -1 310.110 121.446   1
   2   2  -1 264.369 325.543   1
  -2  -2   1 154.605 325.122   1
  -2   4   1 359.050 298.854   1
  -2  -2   1-324.382 214.102   2
   4  -2   1 463.136 437.237   1
   2  -4  -1 422.070 243.374   2
  -4   2  -1-247.711 429.991   1
  -2  -2   3-95.5474 241.838   1
  -2  -2   3 526.546 476.227   2
   2   2  -3-289.405 304.858   1
   2  -4  -3-70.5183 107.091   1
  -2   4   3 416.968 286.383   1
  -4   2  -3-128.982 291.347   1
   4  -2   3-58.6464 551.542   1
   2  -4  -3 103.162 170.137   2
   2   2  -5 89.8194 358.616   1
  -2   4   5 42.7335 202.263   1
   4  -2   5 207.262 393.752   1
  -4   2  -5-591.671 355.230   1
   2  -4  -5 52.8146 222.974   1
  -2  -2   5-880.998 639.968   1
  -2  -2   5-224.691 354.928   2
   4  -2   6 99.6226 508.859   1
   2  -4  -6 787.671 393.655   1
  -2  -2   6 164.851 253.955   1
  -2   4   6 49.3916 219.275   1
  -4   2  -6 231.525 490.548   1
   2   2  -6 346.536 367.739   1
  -2  -2   6 132.998 257.850   2
   2  -4  -7 284.828 254.420   1
  -2  -2   7-64.6467 304.884   2
   4  -2   7-1020.74 536.410   1
  -2   4   7 413.319 455.730   1
   2   2  -7 283.826 498.664   1
  -2  -2   7-92.2118 349.638   1
   4  -2   7 1025.39 658.017   2
  -4   2  -7 207.600 312.540   1
   2  -4  -9 974.687 688.071   1
   4  -2   9-227.431 400.882   1
  -2   4   9-82.7223 416.205   1
  -2  -2   9-186.254 612.860   1
   2   2  -9 44.1871 355.845   1
  -2  -2   9-1013.63 770.055   2
   4  -2   9-1031.71 616.322   2
  -4   2  -9 485.666 247.223   1
  -4   2 -10 215113. 8712.03   1
   4  -2  10 168697. 7842.05   2
   2  -4 -10 216016. 7899.20   1
   4  -2  10 186289. 8553.56   1
   2   2 -10 171842. 8121.61   1
  -2  -2  10 182177. 8513.77   1
  -2   4  10 140999. 6847.61   1
  -2  -2  10 175309. 8189.00   2
   4  -2  11 176.229 518.543   2
   2  -4 -11 654.622 526.373   1
  -2   4  11 1190.72 361.257   1
  -2  -2  11 755.242 743.275   2
   4  -2  11-309.054 336.198   1
  -4   2 -11 136.559 515.649   1
   2   2 -11-551.425 529.357   1
  -2  -2  11-668.299 496.219   1
  -2  -2  12 98214.9 6387.85   1
  -2  -2  12 101019. 6264.90   2
   2  -4 -12 103778. 5752.33   1
   4  -2  12 103359. 6494.78   1
   2   2 -12 94007.1 5825.12   1
   4  -2  12 105451. 6323.69   2
  -4   2 -12 93671.3 5973.07   1
   2   2 -13-70.0190 573.646   1
   2  -4 -13-95.6160 486.166   1
  -2  -2  13-57.3623 299.885   2
  -2   4  13-56.1096 486.424   1
  -2  -2  13 1235.13 857.163   1
  -4   2 -13 736.042 796.298   1
   4  -2  13-304.335 612.569   1
   4  -2  13 678.512 610.279   2
   4  -2  14 78558.1 5828.40   2
   4  -2  14 78564.9 5922.96   1
  -4   2 -14 70270.6 5434.05   1
  -2  -2  14 65643.5 5599.35   1
  -2  -2  14 63453.0 5302.10   2
   2   2 -14 74895.1 5624.98   1
   2  -4 -14 76161.9 5250.23   1
  -2  -2  15 577.140 724.602   1
  -4   2 -15 275.088 414.577   1
  -2   4  15-165.351 616.671   1
   2   2 -15 94.5989 826.237   1
   4  -2  15 391.063 517.310   2
   4  -2  15-154.231 624.993   1
  -2  -2  15 867.667 990.139   2
  -4   2 -16 155495. 8797.09   1
  -2  -2  16 152978. 9305.88   2
   2   2 -16 167627. 8903.93   1
   4  -2  16 166155. 9587.59   2
   4  -2  16 159948. 9539.14   1
   2   2 -17-249.873 676.629   1
   4  -2  17 364.557 503.636   1
   4  -2  17 148.870 342.810   2
  -2  -2  17-407.906 406.196   2
  -4   2 -17 826.264 837.728   1
  -2  -2  17 623.247 641.849   1
  -2  -2  18 6197.61 1661.33   1
   4  -2  18 6170.41 1803.62   1
   2   2 -18 5731.91 1604.58   1
  -4   2 -18 5951.54 1777.58   1
  -2  -2  18 5777.74 1722.51   2
  -2  -2  19-1581.34 1185.70   1
   4  -2  19 45.8726 568.643   1
   2   2 -19 1184.52 901.911   1
  -4   2 -19 912.900 787.853   1
  -2  -2  20 49561.4 5200.14   1
   2   2 -20 47888.4 4952.23   1
   4  -2  20 47052.8 5463.51   1
  -4   2 -20 40955.5 4756.98   1
   4  -2  21-106.379 544.110   1
  -4   2 -21-485.977 643.622   1
   1  -4  20-39.3947 433.350   1
   4  -1 -20-407.547 750.579   1
   4  -3 -20-168.212 409.762   1
  -3   4 -20-653.346 385.532   1
  -4   3  20 107.895 589.537   1
  -1   4 -20 209.340 248.578   1
   3  -4  20 811.992 952.716   1
   1  -4  20 807.726 951.117   2
  -4   1  20-655.487 769.837   1
   3  -4  20-1059.54 816.527   2
   4  -3 -19 4647.24 1544.76   1
  -4   1  19 3728.36 1766.21   1
   3  -4  19 7409.51 2050.84   1
   1  -4  19 6223.12 1866.57   1
   3  -4  19 3105.83 1434.73   2
  -3   4 -19 5290.99 1793.53   1
   1  -4  19 4871.26 1715.66   2
  -4   3  19 4498.29 1458.93   1
  -1   4 -19 4955.85 1624.16   1
   4  -1 -19 6768.12 1903.24   1
   3  -4  18 36103.0 4728.24   2
   4  -1 -18 39392.7 4450.58   1
  -3   4 -18 50570.7 4893.38   1
  -4   1  18 28258.8 4000.12   1
  -1   4 -18 43234.8 4617.99   1
   1  -4  18 38683.6 4644.72   2
   4  -3 -18 36283.1 4224.34   1
   3  -4  18 42091.1 4864.73   1
   1  -4  18 48483.8 5129.79   1
  -4   3  18 44129.3 4854.67   1
   3  -4  17 31009.5 4288.33   2
  -3   4 -17 43243.9 4496.16   1
   1  -4  17 39620.9 4403.03   2
  -1   4 -17 39946.0 4350.64   1
  -4   1  17 44205.1 4731.13   1
   3  -4  17 42317.2 4695.04   1
   4  -3 -17 34180.6 4070.24   1
  -4   3  17 47222.1 4837.64   1
   1  -4  17 38482.7 4404.54   1
   4  -1 -17 38003.3 4260.53   1
   1  -4  16 46962.4 4752.95   1
  -3   4 -16 39910.1 4272.40   1
   4  -3 -16 40501.2 4183.34   1
   1  -4  16 40867.1 4472.08   2
  -1   4 -16 46759.2 4555.65   1
   3  -4  16 40453.5 4462.65   2
  -4   3  16 40810.7 4398.63   1
   4  -1 -16 40350.5 4344.90   1
  -4   1  16 34757.5 4320.04   1
   3  -4  16 42554.6 4746.10   1
   3   1  15 30682.7 3719.71   1
   4  -3 -15 29589.6 3451.73   1
   3  -4  15 23000.5 3381.68   2
  -3  -1 -15 24327.3 3146.62   1
   1  -4  15 30997.2 3837.92   1
   1  -4  15 25018.8 3402.09   2
  -4   3  15 29800.6 3729.81   1
   4  -1 -15 27612.8 3535.21   1
  -1   4 -15 25815.8 3360.37   1
  -3   4 -15 23801.4 3227.19   1
   3  -4  15 29787.6 3728.77   1
   4  -1 -14 183262. 9452.84   1
   3  -4  14 186022. 9405.35   2
  -3   4 -14 184111. 9278.28   1
  -1   4 -14 202532. 9718.46   1
  -4   1  14 201298. 9688.67   2
   1  -4  14 170904. 9217.74   2
   4  -3 -14 200044. 9561.79   1
   3   1  14 209725. 9832.49   1
   1  -4  14 173570. 9530.55   1
  -3  -1 -14 156023. 8170.50   1
  -4   3  14 177303. 9277.36   1
   3  -4  14 211157. 10347.7   1
  -4   3  13 3216.23 1060.89   1
   1  -4  13 5009.16 1460.86   1
  -3  -1 -13 4926.16 1186.46   1
  -3   4 -13 6527.65 1502.54   1
   4  -1 -13 4774.08 1418.39   1
   3   1  13 7188.64 1575.78   1
  -4   1  13 4728.35 1351.01   2
   3  -4  13 3842.94 1285.15   2
   4  -3 -13 4024.26 1014.76   1
  -1   4 -13 4138.00 1396.16   1
   3  -4  13 4171.42 1318.20   1
   1  -4  13 2859.25 1013.91   2
   3   1  12 2807.40 991.058   1
   1  -4  12 3888.39 1228.02   1
   3  -4  12 3984.96 1501.75   1
   3   1  12 2559.26 748.015   2
  -4   3  12 3224.24 1242.81   1
   3  -4  12 2710.68 1087.44   2
  -3  -1 -12 3682.89 1081.64   1
  -3   4 -12 4100.51 1245.45   1
  -1   4 -12 3100.88 1235.31   1
   1  -4  12 1965.35 1061.83   2
   4  -1 -12 4183.41 1275.72   1
  -4   1  12 2703.76 1035.53   2
   4  -3 -12 1921.32 601.743   1
  -4   1  12 3379.92 1198.97   1
   1  -4  11 97251.3 6417.24   1
  -3   4 -11 96380.2 6066.31   1
   3   1  11 126502. 6444.98   1
  -1   4 -11 98147.9 6125.51   1
   3  -4  11 96765.4 6191.08   2
  -3  -1 -11 76477.5 4936.20   1
   4  -3 -11 109739. 6356.53   1
  -4   1  11 109396. 6384.79   2
   3   1  11 103884. 5727.42   2
  -1  -3 -11 96241.4 4982.46   1
  -4   3  11 106300. 6353.06   1
   1   3  11 100413. 5344.63   1
   4  -1 -11 99024.1 6252.96   1
   1  -4  11 108164. 6343.81   2
  -4   3  11 119227. 5843.17   2
  -4   1  11 104139. 6718.32   1
   3  -4  11 100706. 6278.17   1
  -1  -3 -10 133562. 5408.93   1
   1  -4  10 101205. 6360.90   1
   1  -4  10 117893. 6619.10   2
   4  -3 -10 117197. 6304.42   1
  -3  -1 -10 137108. 6267.82   1
   1   3  10 101529. 5153.37   1
  -4   1  10 94896.7 5979.62   2
  -1   4 -10 105703. 6172.74   1
  -4   3  10 99877.6 6139.64   1
   3   1  10 110878. 5925.69   1
  -4   1  10 98277.5 6242.38   1
   4  -1 -10 104083. 6304.82   1
   3   1  10 118353. 6117.00   2
   3  -4  10 117980. 6476.17   2
   3  -4  10 109973. 6431.43   1
  -3   4 -10 110498. 6420.71   1
   1   3   9 289283. 8353.27   1
   4  -1  -9 315932. 10577.7   1
  -4   3   9 268924. 9846.23   1
   3   1   9 318100. 10050.4   2
   4  -3  -9 374730. 11072.3   1
   3  -4   9 313778. 10769.6   1
  -1  -3  -9 344705. 8326.21   1
  -1   4  -9 348296. 10943.9   1
   3   1   9 332008. 9925.49   1
   3  -4   9 307873. 10459.7   2
  -4   1   9 324632. 10446.0   2
   1  -4   9 326806. 10808.6   2
  -4   1   9 323115. 10936.7   1
   1  -4   9 336921. 11115.2   1
  -3   4  -9 315578. 10503.9   1
  -3  -1  -9 334524. 9563.06   1
  -4   1   8 22424.7 2612.19   1
   3  -4   8 24634.2 2728.46   1
   3   1   8 26220.1 2408.79   1
  -4   3   8 24657.2 2658.10   1
  -3  -1  -8 24693.3 2297.44   1
   3  -4   8 23489.8 2557.54   2
   1  -4   8 27343.3 2885.49   1
  -3   4  -8 23781.3 2603.20   1
  -4   1   8 22951.6 2522.39   2
  -1  -3  -8 24438.6 1795.96   1
   1   3   8 25662.8 1980.19   1
  -1   4  -8 21148.7 2474.85   1
   4  -1  -8 20497.4 2469.87   1
   1  -4   8 23502.5 2659.29   2
   4  -3  -8 27998.0 2781.98   1
  -3   4  -7 207038. 8270.27   1
   3   1   7 186367. 7252.95   1
  -1  -3  -7 207563. 5984.12   1
   1  -4   7 223512. 8762.83   1
   3  -4   7 192582. 8250.24   1
  -1   4  -7 223709. 8459.46   1
   3  -4   7 208259. 8319.07   2
   1  -4   7 199484. 8188.88   2
  -4   3   7 147514. 7227.15   1
  -4   1   7 218152. 8402.40   2
   4  -1  -7 214878. 8439.28   1
  -4   1   7 201657. 8379.93   1
  -3  -1  -7 147112. 6582.69   1
   1   3   7 225709. 6452.31   1
   4  -3  -7 252215. 8880.15   1
  -4   3   6 753547. 20699.2   1
   1  -4   6 900017. 21882.1   2
  -1   4  -6 808976. 21028.1   1
  -4   1   6 857013. 21685.1   1
   3   1   5 37312.3 2559.97   1
   1  -4   5 35644.0 2862.79   2
   4  -3  -5 32746.4 2775.43   1
   3  -4   5 33220.2 2715.60   2
   3  -4   5 33880.9 2875.90   1
   1  -4   5 28464.1 2567.94   1
  -1   4  -5 31534.5 2673.24   1
   1   3   5 28854.2 1397.47   1
  -4   1   5 33943.5 2790.80   1
  -4   1   5 30287.5 2743.72   2
  -3   4  -5 35530.6 3018.75   1
   4  -1  -5 33249.5 2733.19   1
  -1  -3  -5 35186.5 1361.37   1
  -4   3   5 31934.6 2722.72   1
  -3  -1  -5 30503.6 2286.31   1
  -3   4  -4 333210. 10583.5   1
  -4   1   4 325353. 10399.6   1
   3   1   4 317027. 9347.29   1
  -4   1   4 365947. 11058.4   2
   3  -4   4 322009. 10202.3   2
  -3  -1  -4 284221. 8880.86   1
   1  -4   4 346652. 10577.3   2
   4  -1  -4 331233. 10632.4   1
   4  -3  -4 351522. 10642.7   1
   1  -4   4 385197. 10612.1   1
   3  -4   4 319399. 10409.1   1
  -4   3   4 328357. 10356.4   1
  -1   4  -4 303394. 9818.90   1
  -4   1   3 72396.8 4081.05   1
   1  -4   3 78815.9 4182.77   2
  -1  -3  -3 71489.6 3507.98   2
   1  -4   3 78549.5 3834.48   1
  -3   4  -3 73535.4 4045.49   1
   3   1   3 71690.6 3495.42   1
  -3  -1  -3 77172.6 3492.11   1
  -1   4  -3 86767.7 4094.37   1
   3  -4   3 69619.4 4056.23   1
  -4   3   3 71512.2 4071.99   1
   3  -4   3 83069.7 4143.31   2
   4  -1  -3 63986.3 3985.04   1
   4  -3  -3 61235.8 3825.55   1
   4  -1  -1 489388. 13566.7   1
   4  -3  -1 505981. 13483.9   1
  -3  -1  -1 508713. 12538.5   1
  -1   4  -1 452943. 11935.8   1
  -4   1   1 536930. 13747.8   1
   3   1   1 454290. 12498.1   1
  -1  -3   0 74842.1 3677.81   2
  -4   3   0 68099.4 3741.33   1
   1   3   0 75824.7 2895.57   1
   3  -4   0 64236.9 3477.18   1
  -1  -3   0 73587.7 2804.88   1
   3   1   0 69003.8 3530.75   1
  -3  -1   0 70368.0 4048.67   2
   4  -1   0 71586.0 3918.36   1
   1  -4   0 57867.1 2652.85   1
   3  -4   0 75074.1 3504.38   2
  -1   4   0 83893.6 3127.96   1
  -3  -1   0 60009.7 3275.65   1
  -4   1   0 61685.0 3633.98   1
  -3   4   0 72054.5 3651.62   1
   1  -4   0 60952.4 3247.98   2
   4  -3   0 76724.0 4013.32   1
   4  -1   3 213418. 7759.01   1
  -4   1  -3 223919. 7696.40   1
   1   3  -3 216938. 7261.85   1
  -4   3  -3 206997. 7715.43   1
   1  -4  -3 219973. 6040.36   2
   3   1  -3 222976. 7923.88   1
  -3  -1   3 230807. 8272.58   2
   4  -3   3 203427. 7990.17   1
  -3  -1   3 216586. 7678.13   1
   3  -4  -3 230563. 7371.38   1
  -3   4   3 200656. 7165.81   1
   3  -4  -3 203185. 6626.52   2
  -1   4   3 252914. 5638.37   1
  -1  -3   3 259060. 8362.99   2
  -1  -3   3 253094. 7788.72   1
   1   3  -4 12199.8 1497.19   1
   4  -3   4 11807.5 1621.23   1
  -1  -3   4 12245.5 1706.38   2
   3  -4  -4 11053.4 1142.33   2
  -1   4   4 10197.2 791.320   1
  -3  -1   4 13466.7 1667.01   1
  -3  -1   4 15362.2 1869.19   2
   3   1  -4 14624.1 1673.27   1
   1  -4  -4 13709.4 867.987   1
  -4   1  -4 13404.5 1616.45   1
  -1  -3   4 11421.5 1503.75   1
   4  -3   4 13185.8 1773.54   2
   3  -4  -4 10263.1 1349.19   1
  -3   4   4 14236.0 1526.97   1
   1  -4  -4 11590.2 873.231   2
  -4   3  -4 11044.9 1581.57   1
   4  -1   4 12752.6 1671.55   1
   1   3  -5 305423. 9758.18   1
   3  -4  -5 315997. 9288.36   1
   3   1  -5 272592. 9687.63   1
  -1   4   5 292857. 7348.42   1
   4  -1   5 278946. 9478.79   1
  -3   4   5 260639. 8893.27   1
   4  -3   5 332294. 10498.7   2
  -4   3  -5 299254. 10013.2   1
  -1  -3   5 308567. 10077.0   2
   4  -3   5 280299. 9876.76   1
  -3  -1   5 324659. 10308.4   2
  -4   1  -5 300417. 9625.99   1
  -1  -3   5 279021. 9466.81   1
   1  -4  -5 263691. 7089.42   1
   1   3  -6 449169. 13597.4   1
  -1  -3   6 519405. 14355.2   1
  -3   4   6 403938. 12705.6   1
   4  -3   6 480940. 14193.1   1
   4  -1   6 427676. 13486.4   1
   4  -3   6 516905. 14423.6   2
  -3  -1   6 507564. 14358.1   2
  -1  -3   6 492673. 14237.7   2
   1  -4  -6 472201. 11238.7   1
   3   1  -6 461227. 14103.3   1
  -4   3  -6 464119. 14014.3   1
   3  -4  -6 456883. 12952.8   1
  -4   1  -6 440618. 13303.6   1
  -3  -1   6 479492. 14279.0   1
   1   3  -7 291691. 10336.4   1
  -3  -1   7 245963. 9942.75   2
   4  -3   7 274959. 10389.3   1
   4  -3   7 308942. 10590.2   2
   3  -4  -7 306509. 9811.48   1
   4  -1   7 314156. 10496.8   1
   3   1  -7 317069. 10839.7   1
  -1  -3   7 319417. 10848.8   1
  -3   4   7 304685. 9754.89   1
   1  -4  -7 289658. 8197.27   1
  -3  -1   7 295494. 10734.3   1
  -4   3  -7 334620. 10995.0   1
  -1  -3   7 251893. 9973.28   2
  -4   1  -7 276599. 9949.74   1
   1   3  -8 249201. 9609.14   1
  -1  -3   8 235669. 9530.98   1
  -4   3  -8 260769. 9894.16   1
  -3   4   8 194634. 8187.71   1
   4  -3   8 266887. 10116.0   1
   4  -1   8 221488. 9214.69   1
  -1  -3   8 240529. 9591.33   2
   1  -4  -8 274616. 7980.20   1
  -4   1  -8 206496. 8925.29   1
  -3  -1   8 274892. 10092.8   2
   4  -3   8 257684. 9618.60   2
   3  -4  -8 257678. 9027.01   1
   4  -1   8 285420. 10263.8   2
  -3  -1   8 261768. 10098.2   1
  -1   4   8 254447. 7983.14   1
   3   1  -8 241197. 9448.45   1
   1   3  -9 4078.37 954.021   1
   4  -1   9 5075.69 1291.88   1
   4  -3   9 4468.03 1236.11   1
  -3  -1   9 4449.61 1198.71   1
  -3  -1   9 2940.36 1026.01   2
  -4   1  -9 4724.82 1072.92   1
  -1  -3   9 4851.40 1336.40   2
  -1  -3   9 5654.29 1342.19   1
   3   1  -9 4075.76 1005.47   1
   4  -1   9 4272.87 1006.19   2
  -3   4   9 3179.59 932.591   1
  -1   4   9 3027.93 785.035   1
   1  -4  -9 4471.42 914.412   1
   3  -4  -9 4240.19 1081.08   1
   4  -3   9 6440.41 1476.85   2
  -4   3  -9 4027.48 1266.40   1
  -4   3 -10 505768. 16093.3   1
  -1  -3  10 538964. 16837.7   1
   4  -1  10 501867. 16235.7   1
   3   1 -10 535097. 16493.2   1
  -3   4  10 443515. 15302.3   1
   1   3 -10 507484. 16242.4   1
   4  -3  10 593971. 17240.8   1
   1  -4 -10 503884. 14329.6   1
   4  -1  10 600679. 16834.1   2
  -4   1 -10 561441. 16310.6   1
  -3  -1  10 545853. 17014.7   1
  -3  -1  10 529275. 16654.2   2
   3  -4 -10 536683. 15686.5   1
   4  -3  10 475450. 15769.1   2
  -1  -3  10 488273. 16094.1   2
  -3   4  11 15370.2 2102.48   1
   4  -3  11 16611.6 2522.69   1
   4  -1  11 14160.9 2361.85   1
  -4   1 -11 15740.1 2229.44   1
   1   3 -11 14723.4 2169.79   1
  -3  -1  11 13031.4 2219.28   2
  -3  -1  11 14194.0 2217.84   1
   4  -3  11 12469.0 1966.92   2
   1  -4 -11 16556.4 1989.89   1
  -1  -3  11 16183.7 2330.14   2
  -4   3 -11 16942.2 2429.52   1
  -1   4  11 14289.3 1977.10   1
   3  -4 -11 18362.5 2311.55   1
   3   1 -11 14710.1 2234.66   1
  -1  -3  11 14487.8 2419.77   1
   4  -1  11 14319.1 2117.49   2
  -4   3 -12 17778.1 2573.09   1
  -3  -1  12 16755.1 2715.47   1
   4  -3  12 15421.8 2479.38   2
   3   1 -12 16431.7 2502.05   1
   4  -3  12 15838.1 2417.96   1
   1   3 -12 16203.9 2397.26   1
   4  -1  12 15383.4 2416.56   1
  -3  -1  12 12788.8 2273.31   2
  -1  -3  12 14882.9 2341.80   2
  -3   4  12 7624.91 1664.77   1
   3  -4 -12 17914.3 2355.54   1
  -4   1 -12 14772.0 2271.23   1
  -1   4  12 13147.6 2053.26   1
  -1  -3  12 11367.5 2000.04   1
   4  -1  12 12829.8 2077.18   2
  -1  -3  13 161027. 8712.32   1
  -3  -1  13 154935. 8663.50   1
   4  -3  13 159292. 8444.34   1
  -3   4  13 165954. 8304.57   1
  -1  -3  13 162993. 8579.98   2
   4  -1  13 177119. 8809.81   2
   4  -3  13 157446. 8422.75   2
  -4   3 -13 156131. 8345.31   1
   3   1 -13 157531. 8299.87   1
   3  -4 -13 154457. 7891.03   1
   4  -1  13 167159. 8712.43   1
   1   3 -13 169920. 8579.51   1
  -4   1 -13 140216. 7832.82   1
  -3  -1  13 155677. 8430.64   2
  -1  -3  14 52854.3 4858.41   1
  -1  -3  14 48813.0 4687.92   2
  -3  -1  14 56032.3 4943.39   2
   3  -4 -14 66643.4 4954.25   1
  -4   1 -14 48211.6 4439.16   1
   4  -1  14 61094.8 5247.49   1
   4  -3  14 60258.5 5290.50   1
   3   1 -14 60483.2 5040.15   1
  -3   4  14 41023.4 4138.08   1
  -4   3 -14 59714.4 5014.60   1
   4  -1  14 61962.6 5145.25   2
  -3  -1  14 43919.9 4573.49   1
   4  -3  14 58263.4 5199.97   2
   1   3 -14 49834.2 4555.42   1
   3   1 -15 60203.0 5183.86   1
  -1  -3  15 60457.5 5305.29   1
   4  -3  15 65293.2 5603.75   2
  -3   4  15 62981.8 5287.35   1
  -3  -1  15 71331.9 5733.22   2
   3  -4 -15 56896.4 4910.50   1
  -4   3 -15 65738.6 5357.90   1
   4  -1  15 69110.7 5567.64   2
   4  -1  15 66301.4 5688.26   1
  -1  -3  15 55876.9 5124.96   2
   4  -3  15 70219.9 5793.41   1
  -4   1 -15 69283.0 5415.68   1
   1   3 -15 63821.4 5177.51   1
  -3  -1  15 67002.8 5756.31   1
   3   1 -16 1796.11 1059.33   1
   4  -3  16 1419.58 848.528   2
   4  -1  16 1719.83 1220.15   1
  -1  -3  16 1534.78 771.924   1
  -3  -1  16 2213.87 1243.19   2
  -4   1 -16 1454.48 731.382   1
  -1  -3  16 1628.59 690.469   2
  -4   3 -16 1212.76 704.502   1
  -3   4  16 2485.69 1057.45   1
   3  -4 -16 2460.93 1010.03   1
  -3  -1  16 2212.07 972.756   1
   1   3 -16 968.634 703.837   1
   4  -3  16 2405.41 986.204   1
   4  -3  17 3679.45 1478.15   2
   4  -1  17 2429.27 1197.45   1
   3   1 -17 3279.15 1085.19   1
  -1  -3  17 2335.66 1054.32   1
   4  -3  17 3426.89 1376.48   1
   1   3 -17 3129.91 1238.97   1
  -1  -3  17 4311.20 1483.12   2
  -4   3 -17 3791.08 1353.71   1
  -4   1 -17 3776.91 1416.74   1
  -3  -1  17 1452.84 904.915   2
  -3  -1  17 3487.47 1280.35   1
  -3  -1  18 57393.1 5692.29   1
  -4   1 -18 42710.0 4748.73   1
  -1  -3  18 64891.3 5903.94   1
  -4   3 -18 56450.8 5372.67   1
   4  -3  18 51124.3 5544.47   2
   4  -3  18 62510.9 6012.63   1
  -1  -3  18 53787.4 5389.81   2
   4  -1  18 58600.6 5695.46   1
   1   3 -18 61633.0 5458.67   1
   3   1 -18 57009.1 5353.93   1
   4  -3  19 4634.55 1620.71   1
  -1  -3  19 4802.62 1817.55   1
   4  -1  19 3279.36 1391.23   1
  -3  -1  19 4678.80 1675.80   1
  -4   1 -19 3166.54 1351.04   1
  -1  -3  19 2092.55 1080.13   2
   1   3 -19 7556.25 2076.88   1
  -4   3 -19 4041.85 1504.39   1
   3   1 -19 3815.45 1203.24   1
  -3  -1  20 12629.1 2878.32   1
  -1  -3  20 7028.78 2150.09   1
   3   1 -20 11448.3 2337.66   1
   4  -3  20 9972.00 2372.17   1
   1   3 -20 9700.43 2171.12   1
   4  -1  20 9301.22 2328.46   1
  -4   3 -20 5849.86 1861.20   1
  -4   0   0 58674.2 3508.90   1
   0  -4   0 54963.4 2389.62   1
   4  -4   0 53905.0 3399.76   1
   0   4   0 54111.2 2467.67   1
   4   0   0 48732.3 3211.84   1
   0  -4   0 53542.6 3184.67   2
  -4   4   0 57013.4 3365.62   1
   4  -4  -1 454251. 13461.2   1
   4   0   1 489209. 13530.0   1
   4  -4   1 535341. 14099.2   1
   4   0  -1 585196. 14564.2   1
  -4   0  -1 522719. 13656.6   1
   4  -4   1 456418. 13589.1   2
  -4   4  -1 481821. 13736.9   1
  -4   4   1 506802. 13754.1   1
   4   0  -3 557279. 15898.1   1
   0   4  -3 539663. 14914.4   1
  -4   4   3 653415. 16134.6   1
  -4   4  -3 589998. 16084.6   1
  -4   0   3 586485. 16479.4   2
  -4   0   3 610050. 15862.5   1
   4  -4  -4 225084. 7902.59   1
   0  -4   4 222185. 8073.53   2
   4   0   4 185922. 7196.12   1
  -4   0   4 203068. 7794.43   1
   4   0  -4 197214. 7898.05   1
   0  -4  -4 198668. 5986.55   2
   0   4  -4 168142. 6947.67   1
   0  -4   4 221806. 7730.08   1
   4  -4   4 204500. 8002.40   1
   4  -4   4 184918. 7441.23   2
  -4   4  -4 193243. 7753.52   1
  -4   0  -4 197789. 7135.05   1
  -4   4   4 179289. 7308.18   1
  -4   0   4 217766. 8200.62   2
   0  -4   5 48967.2 3535.54   1
   0   4  -5 60208.1 3709.92   1
  -4   0  -5 37909.5 2903.65   1
   4  -4   5 44405.5 3441.59   1
   4   0   5 46378.7 3340.56   1
   0  -4   5 51309.8 3639.08   2
   4   0  -5 45599.5 3463.31   1
  -4   0   5 38487.7 3428.88   2
  -4   0   5 44708.7 3459.56   1
  -4   4   5 47454.5 3390.24   1
  -4   4  -5 44650.0 3460.26   1
   4  -4   5 52335.8 3581.04   2
   4  -4  -5 50436.5 3453.18   1
   4  -4   6 63190.8 4021.39   2
   4   0   6 68388.7 4144.69   1
  -4   0  -6 71479.4 4021.71   1
   0   4  -6 60085.0 4048.50   1
  -4   4   6 57905.7 3874.28   1
   4  -4  -6 58565.1 3815.50   1
   0  -4   6 64501.6 4237.18   2
  -4   0   6 57363.1 4087.64   1
   0   4   6 59267.5 1947.80   1
   0  -4   6 66459.7 4282.58   1
   4   0  -6 77105.3 4509.43   1
  -4   0   6 73227.6 4630.06   2
  -4   4  -6 63466.5 4308.50   1
   4  -4   6 54668.2 4097.44   1
  -4   4   7 13944.4 1935.26   1
   4  -4   7 18257.5 2276.84   1
   4   0   7 15644.7 1975.78   1
  -4   4  -7 14729.4 2085.32   1
   4  -4  -7 12355.7 1798.08   1
  -4   0   7 15441.7 2100.81   1
   0   4  -7 15190.5 2009.23   1
  -4   0  -7 12721.6 1729.26   1
   0  -4   7 15040.2 1995.35   2
   0  -4   7 14394.9 2042.17   1
   0   4   7 14935.1 1111.04   1
   0  -4  -7 13188.9 1000.60   1
  -4   0   7 13723.2 1979.35   2
   4  -4   7 13928.8 1987.70   2
   4   0  -7 14872.3 2170.66   1
  -4   4  -8 5241.22 1354.34   1
   4  -4   8 10609.4 1897.10   1
  -4   4   8 4873.45 1120.39   1
   4  -4   8 5448.60 1211.60   2
   4   0   8 3879.57 845.222   1
  -4   0   8 5828.26 1353.33   2
   4   0  -8 6009.14 1436.34   1
  -4   0   8 5484.20 1530.34   1
   0  -4   8 6094.53 1358.96   2
   0  -4   8 4500.45 1221.52   1
  -4   0  -8 7022.98 1360.78   1
   4  -4  -8 6709.07 1377.63   1
   0   4  -8 5266.73 1256.43   1
   0  -4   9 65694.7 4972.03   1
   4  -4  -9 74075.6 4762.49   1
  -4   0   9 81409.5 5249.29   2
   4  -4   9 60054.6 4676.96   1
   4  -4   9 65822.4 4649.42   2
  -4   4   9 62207.8 4444.72   1
  -4   0  -9 76818.2 4748.28   1
   0   4   9 75087.5 3756.58   1
   4   0  -9 78881.7 5272.70   1
   4   0   9 75221.7 4913.40   1
  -4   0   9 77543.2 5251.74   1
   0  -4   9 69654.9 4915.40   2
   0   4  -9 79328.3 5097.90   1
  -4   4  -9 70950.3 4871.86   1
   4   0 -10 400794. 13569.4   1
   0  -4  10 336008. 12766.8   1
   0   4 -10 355846. 12752.5   1
   4  -4 -10 254196. 10992.7   1
  -4   0  10 343118. 13029.4   1
   0  -4  10 337404. 12499.7   2
  -4   0 -10 334808. 11739.1   1
   4  -4  10 338076. 12667.7   1
  -4   4 -10 339124. 12452.2   1
   4  -4  10 332699. 12292.2   2
  -4   0  10 337334. 12565.8   2
  -4   4  10 308176. 11844.1   1
   4   0  10 413186. 13236.3   2
   4   0  10 397803. 12963.2   1
   4  -4  11 211785. 10049.9   1
   4  -4  11 236502. 10259.4   2
   4   0 -11 240579. 10384.1   1
  -4   4  11 208251. 9607.13   1
  -4   0 -11 275502. 10187.5   1
  -4   0  11 212739. 9940.97   2
   0  -4  11 221573. 10242.4   1
   0   4 -11 233709. 10194.2   1
   4   0  11 240623. 10122.0   1
  -4   4 -11 245331. 10276.9   1
   4  -4 -11 226767. 9716.94   1
   4   0  11 279030. 10579.7   2
   0  -4  11 256888. 10574.8   2
   4  -4  12 58377.9 4760.57   1
   0  -4  12 58197.4 4956.55   1
   0   4 -12 57785.5 4787.28   1
  -4   0  12 41708.1 4431.04   2
   0  -4  12 49401.8 4483.49   2
   4   0  12 67198.1 4942.26   1
   4   0  12 57180.2 4436.49   2
   4  -4 -12 71208.9 5097.62   1
  -4   4  12 40881.8 4076.80   1
   4   0 -12 48145.8 4464.90   1
  -4   0 -12 58408.4 4532.87   1
  -4   4 -12 60942.7 4903.77   1
  -4   0  12 63888.8 5241.58   1
   4  -4  12 55277.0 4627.81   2
   0  -4  13 106896. 7041.88   1
   4  -4  13 112055. 6964.80   1
  -4   4 -13 105709. 6717.72   1
   0  -4  13 101465. 6660.87   2
  -4   4  13 100107. 6747.23   1
   4   0  13 87581.4 5963.22   2
  -4   0  13 92907.4 6894.37   1
   0   4 -13 106627. 6651.67   1
   4  -4  13 103847. 6837.67   2
   4   0 -13 108168. 6887.83   1
  -4   0 -13 94849.2 6183.94   1
   4   0  13 113493. 6845.69   1
  -4   0  13 105599. 6904.70   2
   4  -4 -13 116946. 6892.85   1
   0   4 -14 225238. 10328.0   1
   4   0  14 228109. 10820.4   1
   0  -4  14 189013. 10068.4   1
   4  -4  14 199008. 10118.7   1
  -4   4 -14 201881. 9878.01   1
   4  -4 -14 243749. 10545.0   1
  -4   0  14 181032. 10314.8   2
   4   0  14 224003. 10200.9   2
   4  -4  14 212827. 10426.7   2
   4   0 -14 178418. 9720.60   1
  -4   0 -14 197288. 9459.45   1
   0  -4  14 200686. 10007.2   2
  -4   0  14 254229. 11441.4   1
  -4   4  14 215814. 10306.7   1
  -4   0  15 16232.1 2748.84   2
  -4   4 -15 18905.4 2887.22   1
   0  -4  15 17234.4 2691.25   2
  -4   0 -15 13343.9 2335.90   1
   4   0 -15 19619.1 2808.05   1
   4  -4  15 15679.0 2535.71   1
  -4   0  15 14030.1 2809.28   1
  -4   4  15 19230.0 2915.88   1
   0  -4  15 13507.8 2476.24   1
   4   0  15 15829.6 2683.22   1
   4  -4 -15 16048.5 2683.31   1
   4  -4  15 17940.6 2825.40   2
   0   4 -15 14467.3 2530.76   1
   0  -4  16 3126.66 1104.56   2
  -4   0  16 5089.63 1745.97   2
   0  -4  16 6298.55 1772.09   1
  -4   0  16 4100.89 1431.48   1
   4   0  16 5617.54 1646.51   1
   4  -4  16 5798.71 1792.73   1
   4  -4 -16 3781.25 1357.68   1
  -4   0 -16 6337.20 1638.33   1
  -4   4  16 5412.56 1475.07   1
   4  -4  16 6808.57 1908.66   2
   0   4 -16 4617.97 1397.59   1
   4   0 -16 5563.77 1573.19   1
  -4   4 -16 2661.66 956.938   1
   0   4 -17 4351.78 1476.58   1
   4   0  17 4769.88 1582.80   1
   4  -4  17 5638.34 1792.71   2
   4   0 -17 6338.84 1609.28   1
   4  -4  17 6434.93 1701.24   1
   0  -4  17 4868.85 1565.63   1
  -4   4  17 3962.57 1265.54   1
   4  -4 -17 3991.65 1286.25   1
   0  -4  17 4542.92 1580.78   2
  -4   4 -17 5215.32 1615.12   1
   0  -4  18 11703.7 2594.18   1
   4  -4  18 11879.5 2781.31   2
   0  -4  18 12203.6 2560.64   2
   4  -4  18 13169.0 2609.27   1
  -4   4  18 12861.2 2552.44   1
  -4   4 -18 12579.1 2434.70   1
   0   4 -18 10438.9 2325.53   1
   4   0 -18 15900.5 2851.60   1
   0  -4  19 7850.28 2066.50   1
   4  -4  19 4931.68 1853.05   2
   0   4 -19 8908.07 2113.61   1
  -4   4 -19 9031.50 2200.88   1
   4   0 -19 10011.4 2218.88   1
   0  -4  19 6901.52 1994.57   2
  -4   0  19 5225.92 1733.63   1
   4  -4  19 11046.5 2564.87   1
   4   0 -20 3989.86 1352.10   1
   4  -4  20 1101.21 455.430   1
   0  -4  20 1471.06 950.853   2
  -4   4 -20 2619.32 1142.08   1
  -4   0  20 892.858 636.353   1
   5  -3 -20 3022.04 1277.20   1
  -5   3  20 1443.24 948.603   1
   5  -2 -20 1806.13 889.774   1
   3  -5  20 1928.01 1224.66   2
   2  -5  20 1605.74 1076.50   2
  -5   2  20 2931.69 1225.64   1
  -5   2  19 13077.7 2729.01   1
   5  -3 -19 13567.4 2600.39   1
  -5   3  19 9319.69 2160.20   1
   2  -5  19 10786.1 2505.55   1
   3  -5  19 16317.0 3025.07   1
  -2   5 -19 14412.8 2775.78   1
   3  -5  19 11017.3 2436.84   2
   2  -5  19 9215.29 2302.70   2
  -3   5 -19 12926.8 2641.94   1
   5  -2 -19 12904.0 2615.15   1
   5  -3 -18 44614.9 4861.62   1
  -3   5 -18 41808.7 4763.32   1
   2  -5  18 51393.4 5294.90   2
  -5   3  18 53213.6 5454.57   1
  -2   5 -18 52606.9 5217.21   1
   3  -5  18 43641.6 5202.23   2
   2  -5  18 50075.3 5262.03   1
   5  -2 -18 48601.0 4982.80   1
   3  -5  18 55280.8 5570.17   1
  -5   2  18 44481.6 4910.39   1
   2  -5  17 13001.5 2621.49   1
   3  -5  17 13301.7 2587.04   1
   5  -2 -17 16464.0 2751.24   1
  -3   5 -17 16228.1 3001.85   1
  -5   2  17 11266.1 2356.15   1
   5  -3 -17 11076.0 2370.58   1
  -5   3  17 14593.2 2491.05   1
   2  -5  17 9734.43 2269.08   2
   3  -5  17 14344.1 2754.65   2
  -2   5 -17 13795.7 2430.65   1
   5  -2 -16 4463.14 1351.01   1
  -5   3  16 4940.02 1526.50   1
   2  -5  16 5893.69 1894.06   1
   3  -5  16 3511.46 958.441   2
   5  -3 -16 3253.02 1231.09   1
  -2   5 -16 4520.93 1296.24   1
  -3   5 -16 4893.64 1547.98   1
  -5   2  16 2339.50 1063.32   1
   3  -5  16 2571.26 1217.19   1
   2  -5  16 2688.06 947.665   2
   2  -5  15 33481.2 4030.98   2
   2  -5  15 38832.5 4268.80   1
   3  -5  15 39614.8 4434.63   1
  -2   5 -15 38385.6 4114.52   1
  -5   2  15 44256.6 4624.46   1
   5  -2 -15 33178.3 3813.57   1
  -3   5 -15 36106.6 3907.38   1
   3  -5  15 39611.2 4211.99   2
   5  -3 -15 31930.3 3851.72   1
  -5   3  15 34168.5 3978.04   1
  -3   5 -14 84407.2 6097.96   1
  -2   5 -14 90304.8 6310.48   1
   2  -5  14 85119.5 6157.33   2
   5  -2 -14 83994.8 6130.06   1
   3  -5  14 85875.0 6602.75   1
   2  -5  14 89111.1 6635.23   1
  -5   3  14 94393.0 6671.59   1
   5  -3 -14 74190.4 5866.74   1
   3  -5  14 85393.4 6203.15   2
  -5   2  14 72570.8 5764.85   1
   2  -5  13 64709.3 5521.96   1
   5  -3 -13 65796.5 5308.14   1
  -2   5 -13 64974.6 5167.16   1
  -3   5 -13 61329.8 5080.43   1
  -5   2  13 52489.6 4921.95   1
  -5   2  13 64757.9 5118.64   2
  -5   3  13 58944.0 5164.15   1
   3  -5  13 60578.4 5113.78   2
   5  -2 -13 75411.0 5647.26   1
   2  -5  13 63730.2 5334.31   2
   3  -5  13 67757.8 5695.25   1
   2  -5  12 35676.5 3866.47   1
   3  -5  12 43108.1 4091.42   1
  -2   5 -12 34785.7 3700.95   1
  -5   2  12 28499.5 3545.13   1
   3  -5  12 40856.1 3971.23   2
   2  -5  12 38343.8 3882.07   2
   5  -2 -12 24495.2 3052.44   1
  -5   2  12 40298.7 3895.06   2
  -5   3  12 32020.3 3615.31   1
   5  -3 -12 37509.7 3885.25   1
  -3   5 -12 39033.3 3827.48   1
   2  -5  11 16108.6 2535.91   1
   5  -3 -11 13823.6 2334.80   1
   3  -5  11 18156.4 2649.30   1
  -2   5 -11 15803.5 2361.69   1
   3   2  11 14004.1 2015.03   1
   3  -5  11 12964.5 2300.49   2
  -5   3  11 13774.3 2250.79   1
  -5   2  11 12983.6 2252.55   2
  -3   5 -11 13145.5 2234.54   1
   2  -5  11 15320.0 2474.66   2
  -5   2  11 13620.6 2385.14   1
   5  -2 -11 16100.5 2473.63   1
   3  -5  10 194685. 8705.49   2
  -2   5 -10 179618. 8280.58   1
  -3   5 -10 183912. 8369.36   1
  -5   2  10 205007. 9033.20   1
   3  -5  10 154704. 8052.64   1
   2  -5  10 196228. 8688.24   2
  -3  -2 -10 228291. 7686.46   1
  -5   3  10 178362. 8379.87   1
   5  -2 -10 181135. 8535.71   1
   5  -3 -10 233901. 9401.72   1
   3   2  10 144392. 6666.15   1
   2  -5  10 210782. 9211.87   1
  -5   2  10 179376. 8250.81   2
   3  -5   9 22274.1 2674.84   1
   3   2   9 26084.3 2453.70   1
  -5   2   9 22856.2 2693.86   2
  -3   5  -9 19377.6 2477.19   1
  -5   3   9 22312.5 2736.99   1
  -5   2   9 22983.0 2683.11   1
   3  -5   9 22028.9 2661.40   2
   5  -3  -9 24093.4 2854.07   1
   2  -5   9 22270.4 2899.13   1
   2  -5   9 22336.3 2660.00   2
  -3  -2  -9 16794.6 1852.38   1
  -2   5  -9 23578.9 2751.08   1
   5  -2  -9 19199.6 2644.35   1
   3  -5   8 41988.3 3718.57   1
   3   2   8 52501.8 3405.32   1
  -5   2   8 51501.3 3938.19   2
  -2   5  -8 45749.3 3714.49   1
  -5   3   8 51748.0 4032.26   1
  -3   5  -8 45663.8 3801.91   1
   3  -5   8 49997.7 3895.15   2
   2  -5   8 49409.8 4064.37   2
   2  -5   8 43721.9 3897.81   1
  -5   2   8 51203.1 4012.09   1
   5  -3  -8 63369.2 4521.68   1
   5  -2  -8 52347.3 4176.19   1
  -3  -2  -8 40243.4 2870.77   1
   2   3   8 49148.7 2878.90   1
   3  -5   7 265116. 9618.09   1
  -3  -2  -7 211234. 7189.10   1
  -2   5  -7 177884. 8156.63   1
   3  -5   7 203759. 8572.83   2
  -2  -3  -7 242141. 6364.38   1
  -3   5  -7 214875. 8756.67   1
  -5   2   7 195054. 8488.18   1
   5  -2  -7 173314. 8230.70   1
  -5   3   7 236244. 9164.86   1
   2  -5   7 219844. 8795.19   1
   2  -5   7 215940. 8754.08   2
   5  -3  -7 195372. 8452.29   1
   2   3   7 166968. 6030.26   1
   3   2   7 200485. 7266.58   1
  -5   2   6 812756. 20464.5   1
   3  -5   6 741724. 19900.0   2
   3  -5   6 719821. 19895.9   1
  -2   5  -6 745220. 19825.7   1
  -3   5  -6 785212. 20294.7   1
   5  -3  -6 638855. 19351.8   1
   5  -2  -6 676676. 19729.0   1
  -5   3   6 729484. 19933.2   1
   5  -2  -5 394894. 12416.5   1
  -5   2   5 363133. 12043.8   1
  -5   3   5 363527. 11931.9   1
   2  -5   5 385047. 11836.9   1
   3   2   5 334189. 10032.5   1
   3  -5   5 358074. 11705.6   2
  -3   5  -5 392930. 12261.2   1
   5  -3  -5 388295. 12216.4   1
  -3  -2  -5 358236. 9896.66   1
   2   3   5 358346. 8794.48   1
  -2   5  -5 330054. 11299.5   1
   3  -5   5 318810. 11414.5   1
   2  -5   5 384968. 11943.2   2
  -5   3   4 55243.0 3712.94   1
   2  -5   4 53882.3 3569.04   1
   3  -5   4 42517.4 3237.12   1
   2   3   4 40833.2 1925.78   1
  -5   2   4 52164.3 3639.65   1
  -2   5  -4 50155.5 3377.45   1
   3  -5   4 51065.1 3490.88   2
  -3  -2  -4 54567.7 2770.94   1
   5  -3  -4 55795.7 3778.36   1
  -2  -3  -4 40290.7 1856.96   1
   2  -5   4 47163.8 3405.78   2
  -3   5  -4 55714.7 3876.77   1
   5  -2  -4 55602.8 3823.39   1
   3   2   4 43458.3 2637.26   1
  -3   5  -3 333932. 11333.1   1
  -3  -2  -3 481977. 10637.6   1
   2   3   3 348837. 8998.38   1
   3  -5   3 386267. 11611.7   2
   3   2   3 404880. 10475.7   1
  -2   5  -3 372041. 11429.0   1
  -5   2   3 395584. 12243.8   1
   5  -3  -3 437655. 12660.7   1
   2  -5   3 371281. 11314.9   1
  -5   3   3 390949. 12207.1   1
   2  -5   3 385068. 11776.1   2
   5  -2  -3 354698. 11880.3   1
   3  -5   3 351606. 11439.5   1
  -5   2   2 737797. 19217.0   1
   5  -2  -2 719947. 19330.2   1
   2  -5   2 719443. 18443.0   2
   5  -2  -1 197966. 7632.87   1
   3   2   1 189596. 6441.05   1
   2  -5   1 184013. 6799.49   2
   2  -5   1 205996. 6663.35   1
   3  -5   1 154479. 6367.78   1
  -3  -2  -1 191925. 6275.70   1
   2   3   1 172083. 5568.46   1
  -5   2   1 178527. 7242.54   1
  -5   3   1 168799. 7158.94   1
  -2  -3  -1 163458. 6773.35   2
  -3  -2  -1 178845. 7332.71   2
   5  -3  -1 200774. 7482.13   1
  -2   5  -1 189318. 6666.37   1
   3  -5   1 164091. 6468.26   2
  -3   5  -1 167928. 6668.73   1
  -2  -3  -1 189217. 5583.26   1
  -5   3   0 50367.7 3419.30   1
   3   2   0 53417.2 3125.94   1
   2  -5   0 62239.6 3031.05   1
  -2   5   0 53472.8 2985.34   1
  -2  -3   0 47198.2 2532.89   1
   2  -5   0 46667.1 2980.66   2
  -5   2   0 55195.1 3584.38   1
   3  -5   0 52640.6 3055.11   1
   5  -2   0 47051.3 3396.04   1
   5  -3   0 53249.5 3614.88   1
  -3   5   0 40489.4 2927.74   1
  -2  -3   0 49053.2 3326.91   2
   2   3   0 46313.0 2651.22   1
   3  -5   0 38350.7 2693.42   2
  -3  -2   0 47383.4 3450.09   2
  -3  -2   0 46191.4 2775.27   1
  -2  -3   1 49173.8 2731.41   1
  -5   2  -1 39017.7 3095.21   1
  -5   3  -1 40791.9 3171.50   1
  -3  -2   1 48399.7 3449.78   2
   3   2  -1 51358.0 3112.94   1
  -2   5   1 35455.9 2283.55   1
   2  -5  -1 35169.6 2278.79   1
   3  -5  -1 43277.3 2781.89   1
  -3  -2   1 38110.5 2666.87   1
   2  -5  -1 51846.9 2951.09   2
   3  -5  -1 43146.5 2710.51   2
   5  -3   1 46727.6 3482.98   1
   5  -2   1 42133.7 3225.18   1
  -2  -3   1 50954.8 3429.37   2
   2   3  -1 45184.8 2734.86   1
  -3   5   1 55502.3 3126.28   1
   3  -5  -2 419803. 10112.7   2
  -5   2  -2 350971. 10952.9   1
  -2  -3   2 381240. 10381.5   1
   3  -5  -2 352627. 9878.75   1
   5  -3   2 385191. 11494.4   1
   5  -2   2 377292. 11398.7   1
   2  -5  -2 357516. 9636.00   2
  -5   3  -2 351071. 10965.9   1
  -2  -3   2 396149. 11396.1   2
  -3  -2   2 355235. 10426.0   1
   2   3  -2 348554. 10161.8   1
  -3  -2   2 380915. 11497.9   2
  -3   5   2 309691. 9610.69   1
   3   2  -2 328849. 10398.1   1
  -5   2  -3 109149. 5521.24   1
  -3   5   3 142349. 5356.82   1
   5  -3   3 122118. 5911.43   1
   3  -5  -3 141054. 5212.95   1
  -3  -2   3 136551. 6223.21   2
  -2  -3   3 126550. 5985.32   2
  -5   3  -3 126852. 5961.08   1
   2   3  -3 119332. 5391.60   1
   3   2  -3 118212. 5527.72   1
  -2  -3   3 128756. 5539.59   1
   5  -2   3 117919. 5835.40   1
  -3  -2   3 116375. 5386.41   1
   3  -5  -3 142958. 4819.67   2
   2  -5  -3 115973. 4231.50   1
   2  -5  -3 129526. 4535.40   2
  -2   5   3 128845. 4506.66   1
   3  -5  -4 174683. 5282.75   2
  -3  -2   4 159919. 7093.85   2
  -2   5   4 145648. 5040.75   1
  -3  -2   4 180339. 7036.62   1
   2   3  -4 159767. 6612.27   1
  -2  -3   4 141972. 6451.53   1
   5  -3   4 154187. 6974.31   1
  -3   5   4 209936. 6688.89   1
   5  -2   4 164720. 7132.47   1
   2  -5  -4 155531. 5087.21   1
  -2  -3   4 166563. 7135.72   2
   3  -5  -4 163404. 6009.59   1
  -5   2  -4 163573. 6870.41   1
  -5   3  -4 164971. 6906.79   1
   3   2  -4 131566. 6313.94   1
   2  -5  -4 162751. 4833.98   2
  -2  -3   5 200358. 8098.84   2
  -5   3  -5 208830. 8155.74   1
  -3  -2   5 222436. 8539.55   2
   5  -3   5 208068. 8187.22   1
  -2   5   5 156485. 5587.04   1
   3  -5  -5 170860. 5067.09   2
   2  -5  -5 204655. 5913.04   1
   3  -5  -5 170787. 6709.71   1
   5  -2   5 199057. 8018.93   1
   3   2  -5 194894. 7895.33   1
   2   3  -5 193394. 7572.90   1
  -5   2  -5 190315. 7675.63   1
  -2  -3   5 189769. 7643.63   1
  -3   5   5 166150. 6521.24   1
  -2  -3   6 863448. 21837.7   1
   5  -3   6 876799. 22315.4   2
  -5   3  -6 785467. 21402.5   1
  -2  -3   6 787044. 21554.4   2
  -3  -2   6 840965. 21965.9   2
   2   3  -6 782470. 20932.2   1
  -5   2  -6 779164. 21122.0   1
  -3  -2   6 779039. 21458.5   1
  -5   2  -7 124715. 6393.49   1
  -3   5   7 135747. 5989.48   1
  -3  -2   7 110412. 6425.23   2
  -2  -3   7 120492. 6436.70   1
  -5   3  -7 132988. 6629.96   1
   3  -5  -7 128934. 5664.70   1
   2  -5  -7 134957. 5176.58   1
   5  -2   7 140447. 6929.56   1
   2   3  -7 128782. 6517.72   1
  -2  -3   7 144896. 6991.58   2
  -3  -2   7 125989. 6755.42   1
  -2   5   7 172925. 5836.32   1
   3   2  -7 143285. 6960.77   1
   5  -3   7 141428. 7111.66   2
   5  -3   7 132364. 6712.71   1
  -2  -3   8 51262.1 4025.00   1
  -2   5   8 48730.5 3123.61   1
   2   3  -8 58296.0 4141.25   1
  -3  -2   8 48482.2 3960.44   2
  -3   5   8 67471.1 4015.62   1
  -3  -2   8 53787.1 4216.48   1
   5  -3   8 49769.0 4122.79   1
   5  -2   8 51450.6 4030.84   1
  -2  -3   8 53104.9 4211.43   2
   5  -2   8 49142.3 4166.83   2
  -5   2  -8 56251.8 4152.19   1
   2  -5  -8 45444.0 2995.65   1
   3   2  -8 53036.9 4128.54   1
  -5   3  -8 55858.8 4211.00   1
   5  -3   8 61373.5 4428.48   2
   3  -5  -8 40361.0 3113.61   1
   5  -3   9 200688. 9183.20   1
  -3   5   9 204320. 8210.89   1
   5  -3   9 186692. 8746.29   2
  -2   5   9 219183. 7832.41   1
  -3  -2   9 195688. 9178.42   1
  -5   2  -9 203692. 9073.21   1
  -3  -2   9 196935. 9186.68   2
   2  -5  -9 242756. 7972.45   1
   2   3  -9 206269. 9033.87   1
  -5   3  -9 202708. 9157.04   1
   3  -5  -9 253480. 8768.67   1
  -2  -3   9 203289. 9197.47   1
   5  -2   9 205583. 9168.91   1
   5  -2   9 218304. 9692.83   2
   3   2  -9 201417. 9071.23   1
  -2  -3   9 208534. 9178.47   2
  -2  -3  10 170978. 8714.47   1
  -3   5  10 196759. 8295.65   1
  -3  -2  10 187628. 8995.71   2
   5  -2  10 218495. 9479.24   1
  -2   5  10 208316. 7891.13   1
   3  -5 -10 247090. 8917.35   1
   5  -2  10 203139. 9246.38   2
  -5   2 -10 193227. 8886.81   1
  -2  -3  10 175869. 8652.37   2
   5  -3  10 174958. 8699.54   1
   5  -3  10 177648. 8403.08   2
  -5   3 -10 202952. 9021.80   1
   3   2 -10 167697. 8441.60   1
   2   3 -10 179771. 8578.72   1
  -3  -2  10 182625. 8955.95   1
   2   3 -11 136238. 7254.51   1
   5  -3  11 105317. 6581.86   1
   5  -2  11 119981. 7101.02   1
  -3   5  11 131441. 6653.19   1
  -5   3 -11 130833. 7149.85   1
  -2  -3  11 113273. 6846.41   2
   3  -5 -11 117635. 6270.93   1
   5  -3  11 119952. 6906.71   2
  -5   2 -11 113340. 6686.42   1
  -2  -3  11 119102. 7189.53   1
  -3  -2  11 125518. 7214.29   2
   3   2 -11 104330. 6542.48   1
  -3  -2  11 118949. 7183.54   1
   5  -2  11 124646. 6933.19   2
   3  -5 -12 3215.07 1015.74   1
  -3  -2  12 3748.79 1356.77   1
  -2  -3  12 4003.87 1185.17   1
  -2  -3  12 4121.59 1208.43   2
   5  -2  12 4151.32 1372.78   1
   5  -2  12 4881.77 1494.94   2
  -3   5  12 4770.47 1225.26   1
   2   3 -12 3765.97 1105.30   1
  -5   3 -12 3099.38 1055.80   1
   5  -3  12 3085.80 1283.16   1
   3   2 -12 4321.88 1337.79   1
  -3  -2  12 2588.49 889.960   2
  -5   2 -12 3812.14 1167.50   1
   5  -3  12 3341.06 983.278   2
  -2  -3  13 9349.29 2124.17   1
  -2  -3  13 7757.28 1792.30   2
   5  -3  13 11308.4 2168.94   2
   5  -3  13 9138.52 1951.03   1
   2   3 -13 11651.5 2090.66   1
   5  -2  13 10972.0 2130.85   1
  -3   5  13 8261.54 1762.27   1
  -5   2 -13 11074.7 2167.40   1
   5  -2  13 8933.98 1902.31   2
  -5   3 -13 9528.68 1996.50   1
   3   2 -13 10792.8 1972.80   1
  -3  -2  13 8185.83 1874.87   1
  -3  -2  13 10166.6 2142.08   2
   5  -2  14 104269. 6997.22   1
   5  -3  14 97165.5 6783.77   1
  -2  -3  14 98005.6 6605.39   2
   2   3 -14 83412.2 6125.79   1
  -5   3 -14 106900. 6888.09   1
  -3  -2  14 81334.4 6253.82   2
   5  -2  14 80111.2 6142.00   2
  -5   2 -14 80617.3 6073.53   1
   5  -3  14 101476. 6725.29   2
   3   2 -14 89419.2 6284.45   1
  -2  -3  14 95575.0 6783.01   1
  -3  -2  14 82458.5 6255.42   1
  -3  -2  15 12931.9 2604.84   1
  -2  -3  15 9111.91 2118.27   1
   2   3 -15 7454.07 1849.17   1
  -2  -3  15 6864.03 1759.82   2
  -5   3 -15 9828.51 2111.10   1
   5  -3  15 9717.10 2217.94   2
   5  -2  15 11266.6 2179.51   1
   5  -3  15 10083.0 2027.81   1
   3   2 -15 9439.29 1912.87   1
  -3  -2  15 11213.8 2318.79   2
  -5   2 -15 11263.6 2290.95   1
   5  -2  15 9066.08 2017.28   2
   5  -2  16 18545.4 3059.25   1
   2   3 -16 15120.6 2579.85   1
   5  -3  16 17474.5 3015.92   2
  -5   2 -16 18089.8 2894.93   1
  -3  -2  16 17670.5 3016.63   2
  -2  -3  16 16778.2 2924.80   2
   5  -2  16 16364.7 2918.05   2
   5  -3  16 18481.2 3162.53   1
  -2  -3  16 15766.2 2780.39   1
   3   2 -16 20765.4 3002.74   1
  -5   3 -16 14397.6 2615.94   1
  -3  -2  16 21953.8 3370.46   1
   5  -2  17 20703.7 3438.49   1
  -3  -2  17 15248.3 2888.37   1
  -5   2 -17 17686.2 2819.63   1
   2   3 -17 22947.7 3180.12   1
  -2  -3  17 20688.3 3247.34   1
  -5   3 -17 20032.3 3059.38   1
   5  -3  17 16574.2 2996.13   1
   5  -3  17 18129.6 3287.25   2
   3   2 -17 22545.5 3325.37   1
  -2  -3  17 15800.3 2889.58   2
  -3  -2  17 17557.6 2951.37   2
   5  -2  18 45774.2 5228.69   1
   5  -3  18 49544.3 5221.50   1
  -5   2 -18 38751.2 4301.61   1
  -5   3 -18 46037.9 4762.38   1
  -2  -3  18 36957.3 4573.42   2
   5  -3  18 42331.5 4909.97   2
   2   3 -18 47059.8 4607.48   1
  -3  -2  18 49178.2 5267.73   1
   3   2 -18 49288.9 4942.12   1
  -3  -2  18 41225.3 4804.76   2
  -2  -3  18 37775.9 4432.30   1
  -3  -2  19 9354.48 2100.93   1
  -2  -3  19 12589.4 2733.79   1
  -5   3 -19 5240.87 1681.46   1
   5  -2  19 10011.4 2581.82   1
   5  -3  19 8195.95 2121.24   1
   2   3 -19 10963.9 2376.35   1
  -2  -3  19 6127.29 1965.13   2
   3   2 -19 11514.4 2354.08   1
  -5   2 -19 5443.90 1560.48   1
   5  -2  20 2876.83 1361.52   1
   5  -3  20 3905.65 1571.46   1
  -5   2 -20 2178.84 1151.63   1
  -5   3 -20 3981.83 1509.39   1
   1  -5  20 16944.8 3079.16   2
   4  -5  20 15553.3 3193.85   2
   5  -4 -19 377.575 495.451   1
   5  -1 -19 381.045 356.332   1
   4  -5  19 618.413 749.769   1
  -4   5 -19 708.691 810.387   1
  -1   5 -19 1682.63 1075.90   1
  -5   4  19 2.34424 417.285   1
  -5   1  19 113.880 469.386   1
   4  -5  19 118.042 481.469   2
   1  -5  19 1419.16 1045.00   1
   1  -5  19 553.150 759.259   2
   5  -4 -18 2695.32 1019.68   1
  -4   5 -18 3346.96 1500.05   1
   5  -1 -18 4347.29 1451.81   1
  -1   5 -18 2602.62 1093.99   1
   1  -5  18 3446.14 1391.13   1
   1  -5  18 2364.99 1221.31   2
   4  -5  18 700.806 270.592   1
  -5   4  18 2378.66 1279.22   1
   4  -5  18 2483.97 1573.31   2
  -5   1  18 363.618 768.732   1
   5  -4 -17-610.372 757.679   1
  -5   1  17-918.926 838.172   1
   5  -1 -17 1162.26 1051.74   1
   4  -5  17-697.701 1107.07   1
  -1   5 -17 613.299 566.184   1
   1  -5  17 498.917 608.209   1
   1  -5  17 920.855 1104.73   2
  -4   5 -17 1994.32 1194.38   1
  -5   4  17-271.065 740.475   1
   4  -5  17 718.769 589.728   2
  -1   5 -16 74851.2 6121.69   1
   4  -5  16 86245.1 6820.48   1
  -4   5 -16 77666.3 6206.74   1
  -5   4  16 84083.5 6543.22   1
   5  -4 -16 86480.5 6487.47   1
   1  -5  16 92730.9 6994.08   1
   1  -5  16 80178.4 6431.88   2
   5  -1 -16 86700.0 6470.37   1
   4  -5  16 85628.8 6595.25   2
  -5   1  16 95090.6 7024.87   1
  -1   5 -15 147.930 785.630   1
   5  -4 -15 921.321 845.600   1
  -5   1  15 572.752 765.250   1
  -4   5 -15 588.396 731.701   1
   1  -5  15-433.217 659.090   2
   4  -5  15 384.128 316.982   2
   5  -1 -15 182.370 813.431   1
  -5   4  15-249.835 494.193   1
   1  -5  15 1588.36 856.931   1
   4  -5  15 44.0794 630.214   1
  -5   1  14 13572.7 2412.95   2
   5  -4 -14 12529.7 2252.08   1
  -5   1  14 13167.4 2219.43   1
   1  -5  14 9182.66 2154.52   1
   4  -5  14 10483.3 2211.24   1
  -1   5 -14 11909.0 2189.84   1
   1  -5  14 9757.88 2223.30   2
  -4   5 -14 10939.6 2141.54   1
  -5   4  14 9550.98 2048.24   1
   4  -5  14 10412.2 2302.04   2
   5  -1 -14 6763.88 1693.13   1
   5  -4 -13 1230.77 979.979   1
  -4   5 -13 63.9702 541.940   1
   4   1  13 183.811 423.030   1
   1  -5  13-550.835 677.151   1
  -5   4  13 744.062 425.612   1
  -1   5 -13 1355.89 910.043   1
   5  -1 -13 1364.64 851.579   1
   1  -5  13-468.722 658.893   2
   4  -5  13 55.7749 530.361   1
   4  -5  13 773.893 644.512   2
  -5   1  13 640.799 699.630   2
  -5   1  13 563.157 309.338   1
  -1   5 -12 463404. 16615.4   1
   4   1  12 538665. 16525.5   1
   1  -5  12 548786. 17452.7   2
   4  -5  12 567110. 17786.3   1
   5  -4 -12 571491. 17476.9   1
  -5   4  12 653778. 18595.7   1
  -5   1  12 557884. 17762.8   2
  -5   1  12 560501. 17910.7   1
  -4   5 -12 520099. 17101.6   1
   4  -5  12 495402. 17033.1   2
   5  -1 -12 525665. 17324.8   1
   1  -5  12 496346. 17213.2   1
  -4  -1 -12 637943. 16953.4   1
   5  -4 -11 5299.86 1506.08   1
   5  -1 -11 5957.49 1686.00   1
   1  -5  11 5999.43 1541.03   1
   4   1  11 5400.39 1261.93   1
   4  -5  11 8232.75 1812.47   2
  -5   1  11 4776.21 1522.46   1
  -5   1  11 7807.96 1596.88   2
  -5   4  11 6431.60 1564.87   1
  -4  -1 -11 5695.74 1356.77   1
  -1   5 -11 6616.45 1620.91   1
   1  -5  11 4795.53 1442.81   2
   4   1  11 3791.35 1078.37   2
  -4   5 -11 6866.58 1641.41   1
   4  -5  11 6862.40 1674.92   1
  -5   1  10 8873.33 1719.27   2
  -5   4  10 9370.80 1743.75   1
   4  -5  10 10647.6 2132.59   1
  -5   1  10 8944.47 1822.34   1
  -1   5 -10 8308.11 1582.96   1
   1  -5  10 7959.14 1726.83   1
  -4  -1 -10 10414.6 1660.77   1
   4   1  10 8469.11 1585.66   1
   4  -5  10 8901.12 1816.57   2
   5  -1 -10 8904.71 1674.82   1
   1  -5  10 7916.38 1565.03   2
  -4   5 -10 6765.67 1506.08   1
   5  -4 -10 8245.17 1696.81   1
   5  -1  -9-287.731 474.844   1
  -5   4   9 65.0460 268.883   1
   1  -5   9-159.107 583.551   1
  -5   1   9-77.5490 550.786   1
   1  -5   9 147.535 511.718   2
  -4   5  -9 252.592 369.511   1
   5  -4  -9 165.410 350.412   1
  -1   5  -9 994.636 821.103   1
   4   1   9 1160.29 838.231   1
  -5   1   9-884.878 633.171   2
   4  -5   9 470.850 474.564   2
   4  -5   9 367.764 546.838   1
  -4  -1  -9-26.2627 234.263   1
  -5   1   8 238782. 9924.19   2
   1  -5   8 214357. 9659.34   1
  -1   5  -8 260230. 10039.2   1
   4  -5   8 240085. 10005.3   1
   4   1   8 222941. 9020.64   1
   4  -5   8 235786. 9607.90   2
  -4  -1  -8 244236. 9385.86   1
  -5   1   8 293946. 10809.9   1
  -4   5  -8 242063. 10018.7   1
   1  -5   8 250030. 10053.7   2
   5  -4  -8 214285. 9292.46   1
   5  -1  -8 282207. 10749.4   1
  -5   4   8 256938. 9945.21   1
  -5   4   7 36542.3 3210.91   1
   4  -5   7 31293.7 3143.39   1
   4   1   7 31943.8 2816.92   1
  -1   5  -7 25972.4 2737.91   1
   5  -1  -7 32796.3 3245.34   1
   1  -5   7 24421.5 2794.27   1
   4  -5   7 29928.0 2948.12   2
   5  -4  -7 28215.0 2943.78   1
  -5   1   7 26791.7 2898.43   1
  -4   5  -7 31186.7 3223.04   1
   1  -5   7 29032.6 3070.67   2
  -5   1   7 30406.0 3207.34   2
  -4  -1  -7 31932.2 2688.70   1
   1  -5   6 31633.3 3031.01   1
  -1   5  -6 31562.1 2901.61   1
   4  -5   6 28947.5 3011.31   1
   4   1   6 34826.8 2809.85   1
  -4  -1  -6 35771.7 2752.36   1
  -5   1   6 31899.4 3099.43   1
   1  -5   6 34279.4 3087.95   2
   5  -4  -6 28666.2 2841.92   1
   5  -1  -6 31976.9 3088.74   1
   4  -5   6 31259.5 2784.95   2
  -5   4   6 36837.3 3208.30   1
  -4   5  -6 30694.8 3125.58   1
  -5   1   6 27620.5 3072.93   2
  -4   5  -5 1926.76 684.615   1
  -5   1   5 2545.27 975.872   1
  -4  -1  -5 2024.22 595.875   1
   1  -5   5 1933.60 827.515   2
  -5   4   5 2839.27 814.649   1
   4   1   5 2769.63 806.486   1
   4  -5   5 1858.79 619.318   1
  -5   1   5 2001.54 721.359   2
   4  -5   5 2660.28 869.736   2
   1  -5   5 2234.06 897.745   1
   5  -4  -5 2871.97 741.512   1
  -1   5  -5 1103.50 347.615   1
   5  -1  -5 1860.70 706.383   1
   1  -5   4 600529. 16221.6   1
  -5   1   4 610304. 16902.2   1
   5  -1  -4 654603. 17475.1   1
  -4   5  -4 674962. 17295.3   1
   1  -5   4 659991. 17184.1   2
   4  -5   4 651095. 16822.5   2
   5  -4  -4 625789. 16943.5   1
   4  -5   4 645280. 17120.8   1
  -4  -1  -3 5370.03 1003.58   1
  -5   1   3 5990.30 1211.00   1
   1  -5   3 7548.28 1183.43   1
  -4   5  -3 7546.15 1429.69   1
   5  -4  -3 5191.84 1155.22   1
   4  -5   3 6538.47 1329.31   1
   4   1   3 6563.03 1111.35   1
  -1  -4  -3 8159.87 1268.89   2
  -1   5  -3 6695.42 1104.60   1
   1  -5   3 9088.34 1480.87   2
   5  -1  -3 9625.21 1564.61   1
   4  -5   3 7374.87 1325.14   2
  -5   4   3 7353.93 1350.90   1
  -1   5  -2 76952.1 3990.32   1
  -4   5  -2 98160.2 5111.55   1
   1  -5   2 98878.1 4493.68   1
  -4  -1  -2 100914. 4521.46   1
  -5   4   2 88692.5 4980.22   1
   4   1   2 92514.1 4575.28   1
  -1  -4  -2 93723.7 4548.00   2
   5  -4  -2 112788. 5397.67   1
  -5   1   2 97427.8 5156.63   1
   4  -5   2 105004. 5004.86   2
   5  -1  -2 98423.8 5277.12   1
   4  -5   2 61823.9 4107.75   1
   1  -5   2 111219. 5248.68   2
   4  -5   1 16981.4 1909.25   1
  -5   1   1 11178.0 1629.50   1
  -5   4   1 14926.8 1871.33   1
   1  -5   1 9404.46 1212.70   1
  -1  -4  -1 13129.9 1629.19   2
  -4  -1  -1 14480.0 1613.47   1
   4   1   1 12505.7 1617.99   1
   1  -5   1 13614.5 1685.99   2
   5  -4  -1 13288.9 1699.42   1
   1   4   1 13392.5 1013.53   1
  -4   5  -1 12711.2 1713.77   1
   4  -5   1 11536.5 1546.94   2
  -1   5  -1 10073.7 1184.46   1
   5  -1  -1 11250.4 1606.07   1
  -1  -4  -1 11204.2 880.459   1
   5  -4   1 1147.33 653.897   1
  -1  -4   1 1369.74 423.886   1
   1   4  -1 938.918 354.485   1
  -4  -1   1 1432.90 395.689   1
   1  -5  -1 1277.85 389.434   1
  -5   1  -1 1980.58 730.390   1
   4   1  -1 1229.63 588.228   1
  -5   4  -1 1187.63 512.961   1
   4  -5  -1 1462.51 624.645   1
  -1   5   1 2032.87 417.004   1
   5  -1   1 2145.97 832.638   1
   1  -5  -1 689.631 440.227   2
  -1  -4   1 1326.22 572.459   2
  -4  -1   1 1878.38 887.268   2
   4  -5  -1 2050.36 689.260   2
  -4   5   1 2008.49 761.168   1
  -5   4  -2 86113.0 4726.52   1
   1  -5  -2 73912.5 2540.31   1
  -4  -1   2 78929.6 4806.75   2
  -4  -1   2 76938.3 4280.99   1
  -4   5   2 78196.0 4302.38   1
  -5   1  -2 88907.9 4634.38   1
   1  -5  -2 77268.6 3778.05   2
  -1   5   2 75977.0 2658.29   1
   5  -4   2 86605.6 4818.07   1
  -1  -4   2 78148.3 4469.50   2
   4  -5  -2 88631.4 4421.38   1
   5  -1   2 75516.2 4520.79   1
   4   1  -2 79799.5 4556.19   1
   4  -5  -2 93215.9 4366.11   2
   1   4  -2 70223.5 3678.83   1
  -1  -4   2 79649.1 3949.41   1
   4   1  -3 3667.09 829.199   1
  -5   4  -3 3807.54 924.166   1
   1   4  -3 3418.01 815.583   1
  -1  -4   3 2609.81 783.259   2
  -4  -1   3 3760.33 914.782   1
  -4  -1   3 2983.83 970.948   2
   5  -4   3 2982.68 1005.50   1
   4  -5  -3 3241.92 866.056   1
  -1  -4   3 2945.00 688.573   1
  -4   5   3 2818.00 706.409   1
   5  -1   3 2711.89 869.397   1
   4  -5  -3 2764.27 825.323   2
   1  -5  -3 4068.33 747.457   2
  -5   1  -3 3391.23 917.887   1
  -1  -4   4 562162. 14915.9   1
  -5   1  -4 474157. 14448.6   1
  -4  -1   4 487165. 14823.0   1
   5  -4   4 564982. 15672.3   1
   4  -5  -4 579988. 14779.3   1
   1   4  -4 527451. 14602.1   1
  -1  -4   4 532585. 15485.6   2
  -5   4  -4 516579. 15294.1   1
   4   1  -4 522908. 15321.3   1
  -4  -1   4 576367. 16074.1   2
   5  -1   4 564723. 15552.4   1
   4  -5  -4 420756. 13379.2   2
   5  -4   4 568480. 15972.9   2
  -4  -1   5 32850.6 2969.32   1
   5  -4   5 35864.5 3183.64   1
  -4  -1   5 33313.4 3226.48   2
   5  -1   5 41255.5 3285.09   1
   4   1  -5 32101.0 2995.39   1
  -4   5   5 24608.0 2603.04   1
  -5   4  -5 34132.6 3153.42   1
   4  -5  -5 39394.6 3053.26   1
   1  -5  -5 31528.2 1707.70   2
  -1  -4   5 33075.1 3030.67   2
  -1  -4   5 37878.9 3113.34   1
   5  -4   5 38729.0 3399.99   2
   4  -5  -5 18587.6 1944.40   2
  -5   1  -5 32662.4 2893.50   1
   1   4  -5 35482.1 2915.12   1
   1   4  -6 16011.9 2062.09   1
  -4   5   6 12848.5 1783.27   1
  -5   1  -6 17043.5 2058.30   1
  -1  -4   6 14560.0 2058.88   2
   5  -4   6 15975.5 2081.47   1
   5  -1   6 12402.8 1840.07   1
  -1  -4   6 18374.4 2244.19   1
   4  -5  -6 11939.5 1777.15   1
  -5   4  -6 13810.1 2017.21   1
  -4  -1   6 15878.8 2247.93   2
  -4  -1   6 14297.2 2009.05   1
   5  -4   6 16828.0 2151.98   2
   4   1  -6 15381.1 2130.72   1
   5  -4   7 10709.0 1712.82   1
   5  -1   7 13499.8 2026.97   1
   4   1  -7 12449.1 2013.23   1
  -5   1  -7 12854.8 1840.26   1
  -1  -4   7 9975.37 1809.61   2
   1   4  -7 10525.9 1783.81   1
  -5   4  -7 15316.6 2161.51   1
  -4  -1   7 11362.0 1970.98   1
   5  -4   7 14904.8 1968.05   2
   4  -5  -7 12795.1 1803.71   1
  -1  -4   7 10669.3 1785.84   1
  -4   5   7 11951.0 1786.95   1
  -4  -1   7 10447.9 1880.78   2
   4   1  -8 270874. 10209.3   1
   5  -4   8 208776. 9162.76   1
  -4  -1   8 238304. 9837.82   1
  -5   1  -8 207240. 8771.70   1
   5  -1   8 213906. 9080.80   1
  -4  -1   8 205036. 9279.44   2
  -1  -4   8 204769. 9044.74   1
  -5   4  -8 225887. 9534.42   1
  -1  -4   8 224730. 9361.54   2
   5  -4   8 233272. 9240.98   2
   4  -5  -8 209444. 8526.51   1
  -4   5   8 188506. 8343.71   1
   1   4  -8 215809. 9077.84   1
  -5   4  -9 7089.59 1580.94   1
   5  -4   9 6997.49 1373.94   2
  -5   1  -9 6540.58 1541.30   1
   4   1  -9 5555.74 1322.59   1
  -1  -4   9 6292.16 1523.86   1
  -4  -1   9 9326.58 1798.82   1
   4  -5  -9 6754.86 1335.04   1
   1   4  -9 8029.81 1692.43   1
   5  -4   9 7835.12 1586.45   1
   5  -1   9 9116.88 1664.65   1
  -1  -4   9 6498.16 1535.13   2
  -4  -1   9 7348.52 1599.72   2
  -4   5   9 5484.94 1385.20   1
  -1  -4  10 1508.52 733.613   2
  -4   5  10 1492.75 580.506   1
  -1  -4  10 1608.23 963.129   1
   1   4 -10 797.482 575.100   1
   5  -4  10 1444.18 351.388   1
   5  -1  10 1680.38 919.859   1
   4   1 -10 1211.41 501.284   1
   4  -5 -10 1766.34 795.918   1
   5  -4  10 2316.05 974.790   2
  -4  -1  10 1300.09 787.678   2
  -5   1 -10 1893.96 887.571   1
   5  -1  10 591.185 675.982   2
  -5   4 -10 1939.11 957.746   1
   4   1 -11 4164.05 1357.05   1
  -5   4 -11 3276.30 1109.02   1
  -4  -1  11 4783.68 1332.39   1
   5  -4  11 4218.05 1349.27   1
   5  -1  11 3716.20 1170.67   1
  -1  -4  11 4767.01 1391.37   1
  -1  -4  11 3484.10 1255.84   2
   1   4 -11 3443.84 1090.67   1
  -4   5  11 4554.31 1289.71   1
   5  -1  11 6494.67 1448.58   2
  -5   1 -11 3440.29 1094.38   1
  -4  -1  11 4529.77 1538.08   2
   5  -4  11 4053.41 1096.96   2
   4  -5 -11 4577.70 1344.55   1
  -1  -4  12 642149. 20781.9   1
  -5   4 -12 745754. 20959.4   1
  -1  -4  12 640100. 20353.0   2
   5  -1  12 672232. 20679.1   1
   5  -4  12 702790. 20786.1   2
  -4   5  12 810812. 21245.7   1
  -5   1 -12 739649. 20689.1   1
   5  -4  12 622254. 20483.4   1
   4   1 -12 574722. 19935.8   1
  -4  -1  12 675490. 21063.5   2
   4  -5 -12 635099. 19653.6   1
   5  -1  12 661584. 20271.7   2
   1   4 -12 654540. 20209.8   1
  -4  -1  12 599517. 20677.6   1
   4  -5 -13 638.358 427.550   1
  -5   1 -13 932.204 934.687   1
  -4  -1  13 308.612 810.942   1
  -1  -4  13-32.1037 732.490   1
   4   1 -13-1071.59 748.924   1
   5  -4  13 1617.63 779.926   1
   5  -1  13-234.871 700.828   1
   1   4 -13 1269.56 854.876   1
   5  -1  13 729.078 638.521   2
  -4   5  13 304.747 392.333   1
  -1  -4  13-194.923 536.605   2
  -4  -1  13 365.653 413.389   2
  -5   4 -13 159.525 452.551   1
   5  -4  13-1297.28 614.181   2
  -4  -1  14 1322.06 1124.72   1
   5  -4  14-832.755 860.637   2
  -1  -4  14 91.7693 646.520   1
   5  -1  14 727.356 712.007   2
   5  -4  14 324.741 279.602   1
   1   4 -14 998.670 1099.26   1
  -4  -1  14-264.775 312.064   2
   4   1 -14 423.690 781.011   1
  -4   5  14 648.270 494.701   1
  -5   4 -14 214.795 556.139   1
   5  -1  14 29.0540 271.470   1
   4  -5 -14 261.811 283.790   1
  -5   1 -14-554.303 535.431   1
  -1  -4  14-1235.87 870.161   2
  -4   5  15 203.175 431.532   1
  -1  -4  15-658.091 695.644   1
   4   1 -15 617.067 645.778   1
   5  -1  15 164.409 413.148   1
   5  -4  15-32.6904 430.573   1
  -1  -4  15-964.472 998.927   2
   1   4 -15-502.027 839.967   1
  -5   4 -15 546.587 580.825   1
  -5   1 -15 431.014 520.644   1
   5  -4  15 1439.51 947.583   2
   5  -1  15 626.047 969.845   2
  -4  -1  15-1193.90 382.303   1
  -4  -1  15-612.948 733.031   2
  -1  -4  16 48266.2 4793.28   1
   5  -1  16 45373.1 4877.61   1
   5  -4  16 47575.2 5013.69   1
  -4  -1  16 44937.2 4871.66   1
  -5   1 -16 40583.5 4239.90   1
  -5   4 -16 45536.2 4662.04   1
   5  -4  16 41847.4 4547.84   2
  -1  -4  16 41457.8 4490.68   2
  -4  -1  16 43796.4 4837.39   2
   4   1 -16 56538.5 5209.51   1
   1   4 -16 42281.4 4496.95   1
  -5   4 -17 275.708 425.987   1
  -4  -1  17 259.940 475.095   1
  -5   1 -17-386.505 507.232   1
  -1  -4  17 1340.24 674.377   1
   4   1 -17 1220.04 848.843   1
   5  -1  17 411.528 569.934   1
   5  -4  17 1436.64 1083.59   1
   1   4 -17 580.092 463.847   1
  -4  -1  17 327.956 359.628   2
  -1  -4  17 842.954 604.555   2
   5  -4  17 482.149 634.995   2
  -5   4 -18 1140.73 962.614   1
  -1  -4  18 572.950 690.655   1
   4   1 -18 519.081 341.567   1
   5  -1  18-413.585 450.942   1
   5  -4  18-466.974 903.419   1
   1   4 -18 1279.47 1015.36   1
   5  -4  18 1364.59 1139.21   2
  -1  -4  18-131.266 709.616   2
  -1  -4  19-133.854 688.982   2
  -1  -4  19 414.582 767.139   1
   4   1 -19-4.34316 330.309   1
   5  -4  19 712.376 335.761   1
   1   4 -19-14.3206 811.812   1
  -5   4 -19 269.099 598.142   1
   5  -4  19 544.223 939.225   2
  -1  -4  20 34898.3 4524.76   2
   0  -5   0 192154. 7195.69   2
   5  -5   0 181269. 7437.27   1
  -5   5   0 172719. 7165.82   1
  -5   0   0 165415. 7081.13   1
   5   0   0 173737. 7372.39   1
   0  -5   0 165258. 5378.68   1
   0   5   0 189199. 5731.89   1
   5  -5   0 196675. 7848.62   2
   5   0  -1 624800. 16327.1   1
  -5   0   1 579122. 15683.9   1
   0  -5  -1 569491. 14858.2   2
   5  -5   1 467511. 15007.5   1
  -5   0  -1 535981. 15116.3   1
   5  -5  -1 590400. 15811.1   1
   5   0   1 516306. 15077.8   1
   0  -5   1 503409. 14876.9   2
  -5   5   1 491187. 14989.5   1
   5  -5   1 559970. 15711.5   2
  -5   5  -1 531541. 15557.8   1
  -5   0   3 252022. 9539.78   1
   5   0  -3 292995. 10324.1   1
   0   5  -3 237615. 8709.39   1
  -5   0  -3 215027. 8611.17   1
   0  -5   3 296151. 9312.95   1
   5   0   3 284094. 9772.74   1
   0  -5  -3 270915. 8579.03   2
   5  -5  -3 284777. 9730.74   1
  -5   5   3 273757. 9750.04   1
   0  -5   3 283017. 9953.79   2
   5  -5   3 326186. 10585.7   2
   5  -5   3 302657. 10274.8   1
  -5   5  -3 261257. 9854.43   1
  -5   0  -4 40289.9 3088.95   1
   5  -5   4 30580.7 2900.07   2
   0  -5   4 27827.6 2600.96   1
  -5   5  -4 29888.8 2905.31   1
   5  -5   4 30225.1 2909.68   1
   0  -5  -4 34554.1 2400.43   2
   5   0   4 35959.6 3038.49   1
   5   0  -4 34586.5 3157.52   1
  -5   5   4 29266.6 2911.43   1
   5  -5  -4 33449.9 2840.47   1
  -5   0   4 33107.8 2932.39   1
   0   5  -4 32376.9 2769.65   1
   0  -5   4 30745.4 3002.37   2
  -5   0   4 28968.4 3104.13   2
   0  -5   5 7599.63 1447.95   1
   5  -5   5 7570.38 1601.92   1
  -5   5  -5 9304.86 1598.72   1
  -5   5   5 7531.79 1552.47   1
  -5   0   5 7736.99 1376.48   1
   5  -5   5 9054.91 1644.76   2
  -5   0   5 9963.39 1854.31   2
   0   5  -5 6688.19 1350.39   1
   5   0   5 10706.9 1613.96   1
   5  -5  -5 7419.22 1461.09   1
  -5   0  -5 7921.47 1387.37   1
   0  -5   5 7971.56 1564.94   2
   5   0  -5 7212.85 1450.16   1
   5   0  -6 3014.08 906.222   1
  -5   0   6 3510.61 1059.07   1
   0  -5   6 3249.79 966.207   1
  -5   5   6 1844.25 790.046   1
  -5   0  -6 2802.51 919.518   1
   5  -5   6 2781.34 874.661   1
   0   5  -6 3264.74 879.273   1
  -5   0   6 3425.83 980.861   2
   5   0   6 3502.64 1019.23   1
  -5   5  -6 3442.07 1133.20   1
   0  -5   6 2845.11 866.599   2
   5  -5   6 2512.12 966.334   2
   5  -5  -6 2180.17 643.563   1
   5   0  -7 797.116 372.184   1
  -5   5  -7 886.214 805.334   1
   0  -5   7 192.270 482.058   1
  -5   5   7 1166.86 642.828   1
  -5   0  -7 1325.55 571.077   1
   5  -5   7 210.265 512.893   1
   0   5  -7-94.8674 512.615   1
   5   0   7 836.648 429.290   1
   5  -5   7 846.495 405.638   2
  -5   0   7 1632.24 902.692   2
   0  -5   7 543.658 501.093   2
   5  -5  -7 1154.56 469.016   1
  -5   0   7 564.609 512.889   1
  -5   5  -8-235.521 447.850   1
   5   0  -8 845.127 634.643   1
  -5   0   8-992.996 469.944   2
  -5   0  -8-74.1514 280.752   1
   0  -5   8 28.8931 279.003   1
  -5   0   8-230.478 430.512   1
   5  -5   8-584.615 670.876   1
   5  -5  -8 749.418 729.862   1
   0   5  -8 129.795 396.927   1
   5  -5   8 871.744 793.829   2
  -5   5   8 1120.63 792.773   1
   5   0   8 727.617 608.104   1
   0  -5   8 428.298 720.828   2
  -5   5   9 84687.2 5538.23   1
   0  -5   9 84474.6 5706.26   1
   0   5  -9 80326.8 5529.15   1
   5  -5   9 90117.6 5596.08   2
  -5   0   9 78979.6 5590.46   2
   0  -5   9 75946.4 5379.17   2
  -5   5  -9 86133.8 5790.51   1
   5  -5   9 81655.6 5705.09   1
  -5   0  -9 97143.3 5739.93   1
   5   0  -9 77910.2 5471.34   1
   5  -5  -9 80352.1 5251.45   1
   5   0   9 81169.4 5383.62   1
  -5   0   9 83789.7 5649.94   1
   0   5 -10 382323. 14072.5   1
  -5   5  10 380398. 13707.4   1
   0  -5  10 369330. 14103.7   1
   5  -5  10 384408. 14156.8   1
   5   0  10 384032. 13800.6   1
   0  -5  10 368612. 13817.7   2
   5  -5  10 384536. 13930.1   2
  -5   5 -10 350269. 13532.3   1
  -5   0  10 354431. 14004.5   2
  -5   0  10 387557. 14337.5   1
   5   0 -10 391787. 14252.1   1
   0  -5  11 175510. 8952.61   1
   0   5 -11 188533. 9068.44   1
   5  -5  11 180137. 9039.31   1
  -5   5 -11 168242. 8588.43   1
  -5   0 -11 225825. 9164.52   1
  -5   0  11 200508. 9423.73   1
   0  -5  11 162024. 8487.16   2
  -5   5  11 206397. 9169.71   1
   5  -5 -11 138106. 7713.34   1
   5  -5  11 181954. 8707.93   2
   5   0 -11 169871. 8721.87   1
   5   0  11 177809. 8636.28   1
  -5   0  11 164055. 8696.37   2
   0  -5  12 77469.6 5911.64   1
  -5   0  12 69950.1 5503.72   2
  -5   5  12 74335.4 5564.49   1
   5  -5  12 72178.3 5577.92   2
  -5   0 -12 98562.6 5945.70   1
   0  -5  12 71758.1 5534.15   2
   5   0 -12 66420.1 5442.81   1
  -5   0  12 79418.7 5970.09   1
   5  -5 -12 79418.8 5631.68   1
   0   5 -12 75910.3 5692.66   1
   5   0  12 51901.8 4704.53   2
   5   0  12 75367.2 5550.19   1
  -5   5 -12 76218.1 5578.60   1
   5  -5  12 76394.0 5825.24   1
   0   5 -13 64041.9 5258.05   1
   5  -5 -13 66241.9 5211.39   1
  -5   5  13 70642.8 5453.91   1
  -5   5 -13 73132.3 5511.79   1
   5   0  13 56225.2 4963.14   1
   5   0 -13 71048.0 5512.12   1
  -5   0  13 78893.4 5902.52   1
  -5   0  13 61110.2 5324.65   2
   5  -5  13 65563.0 5413.89   1
   0  -5  13 67384.1 5360.57   2
   0  -5  13 77830.7 5945.35   1
   5  -5  13 57460.5 5209.47   2
   5   0  13 47877.4 4532.87   2
  -5   0 -13 57523.4 4826.19   1
   0  -5  14 132699. 8586.82   1
  -5   0  14 182299. 9737.79   1
   5  -5  14 173785. 9297.37   1
   0   5 -14 143775. 8449.60   1
  -5   0 -14 134952. 7930.21   1
  -5   5  14 164337. 9016.35   1
  -5   5 -14 188043. 9409.23   1
  -5   0  14 154857. 9085.05   2
   0  -5  14 168241. 9198.20   2
   5  -5 -14 198897. 9658.71   1
   5   0  14 167307. 8974.08   1
   5   0 -14 162098. 8944.37   1
   5  -5  14 173936. 9374.55   2
   5   0 -15 12628.6 2431.38   1
   5   0  15 13344.0 2583.23   1
   5  -5  15 11950.8 2423.06   1
   0   5 -15 15112.4 2636.65   1
  -5   0  15 11888.0 2363.12   2
  -5   0  15 16729.8 2871.65   1
   0  -5  15 9288.33 1960.63   2
   0  -5  15 12282.2 2280.48   1
  -5   5 -15 11672.9 2280.58   1
  -5   5  15 14303.8 2529.57   1
   5  -5  15 11201.6 2440.36   2
   5  -5 -15 11194.2 2225.46   1
   5   0 -16 2979.12 1210.54   1
   0  -5  16 2927.32 1303.01   1
  -5   0  16 3865.85 1494.78   2
   5  -5  16 4046.39 1482.04   1
   5  -5  16 2963.92 1194.48   2
   0   5 -16 1881.43 1043.45   1
  -5   5  16 4910.63 1577.61   1
  -5   0  16 4070.91 1472.89   1
   0  -5  16 4951.15 1789.01   2
  -5   5 -16 4591.63 1456.15   1
   5  -5 -16 2264.07 1038.56   1
   0  -5  17 3952.86 1499.45   1
   0  -5  17 4282.27 1498.33   2
   5  -5  17 5717.22 1784.94   1
  -5   0  17 2300.81 1013.18   1
   5   0 -17 4073.99 1467.80   1
  -5   5 -17 5268.81 1625.84   1
   5  -5  17 4960.26 1764.80   2
   0   5 -17 5251.30 1644.83   1
   5   0 -18 8588.71 2113.65   1
   0  -5  18 7368.52 1951.72   1
   5  -5  18 7492.85 2075.13   1
  -5   0  18 4135.13 2134.40   1
   0   5 -18 5906.66 1650.25   1
  -5   5 -18 6256.86 1754.23   1
   0  -5  18 6365.93 1952.41   2
   5  -5  18 4612.81 1939.03   2
   5   0 -19 6065.84 1732.22   1
   0  -5  19 5150.17 1815.23   1
  -5   0  19 3274.93 1637.88   1
   5  -5  19 8754.41 2298.88   1
  -5   5 -19 8703.07 2179.20   1
   0  -5  19 5033.94 1699.35   2
   0   5 -19 5305.64 1621.69   1
   5  -5  19 2144.46 1487.98   2
   5  -5  20 107.504 380.032   2
   6  -3 -19-2.28856 397.355   1
  -6   3  19-766.047 703.045   1
   3  -6  19-444.009 571.986   2
   6  -3 -18-271.700 747.842   1
   3  -6  18-817.862 762.503   2
  -3   6 -18 728.412 454.792   1
  -6   3  18-489.854 744.035   1
   3  -6  18-299.778 587.764   1
   3  -6  17 231.031 845.914   1
   6  -3 -17-470.182 549.859   1
   3  -6  17 1420.11 1041.42   2
  -3   6 -17 687.667 899.444   1
  -6   3  17-121.301 525.268   1
   3  -6  16 53199.1 5164.75   2
  -6   3  16 51653.2 5244.04   1
   6  -3 -16 56353.0 5335.47   1
   3  -6  16 54411.0 5431.19   1
  -3   6 -16 65094.4 5594.71   1
   6  -3 -15-123.823 579.582   1
   3  -6  15-154.964 527.590   1
  -3   6 -15 128.014 607.359   1
  -6   3  15 1206.09 656.531   1
   3  -6  15-15.7267 358.121   2
  -3   6 -14 49039.0 4665.66   1
  -6   3  14 49200.3 4782.40   1
   3  -6  14 42479.9 4462.47   2
   3  -6  14 46869.7 4721.59   1
   6  -3 -14 51535.3 4923.15   1
   6  -3 -13 7.31387 608.183   1
  -6   3  13 44.5928 346.599   1
  -3   6 -13-322.204 278.028   1
   3  -6  13-1042.97 684.410   1
   3  -6  13 865.563 719.202   2
   3  -6  12 238424. 10978.5   1
   3  -6  12 209143. 10122.9   2
  -6   3  12 229094. 10556.3   1
  -3   6 -12 215422. 10106.7   1
   6  -3 -11-437.814 714.555   1
   3  -6  11 691.685 827.077   1
  -3   6 -11-124.721 729.886   1
  -6   3  11 108.275 492.312   1
   3  -6  11 939.427 849.388   2
  -3   6 -10 250311. 10538.0   1
  -6   3  10 279809. 11230.3   1
   3  -6  10 234115. 10278.8   2
   6  -3 -10 275985. 11244.4   1
  -6   3   9-216.258 556.153   1
   3  -6   9 361.270 654.377   1
  -3   6  -9 394.693 729.253   1
   6  -3  -9-826.010 900.238   1
   3  -6   9-677.085 584.368   2
  -6   3   8 381191. 13676.2   1
  -3   6  -8 423442. 14128.3   1
   3  -6   8 387764. 13703.4   1
   3  -6   8 378571. 13450.2   2
   6  -3  -8 429790. 14323.9   1
   3  -6   7 1065.10 527.109   1
  -3   6  -7-344.383 740.103   1
   3  -6   7 573.433 629.219   2
   6  -3  -7-87.3580 419.512   1
  -6   3   7 1100.56 448.250   1
   3  -6   6 65684.7 4635.53   1
  -3   6  -6 70349.0 4696.09   1
   3  -6   6 70166.9 4589.26   2
   6  -3  -6 64600.6 4652.43   1
  -6   3   6 70052.5 4747.51   1
  -3  -3  -5-126.192 191.921   1
   3   3   5 483.524 309.487   1
  -3   6  -5-499.107 444.920   1
  -6   3   5 224.145 287.342   1
   3  -6   5-69.6627 225.474   1
   6  -3  -5-145.413 593.680   1
   3  -6   5 1083.53 652.942   2
  -3   6  -3 352.847 238.373   1
  -6   3   3 1253.08 670.804   1
   3  -6   3-90.7900 433.151   1
   3  -6   3-412.555 538.477   2
   3   3   3 185.140 227.615   1
   6  -3  -3 451.357 630.213   1
  -3  -3  -3-134.365 190.394   1
  -3  -3  -2 229769. 6781.90   1
  -6   3   2 216414. 8723.31   1
  -3   6  -2 228204. 8421.06   1
   6  -3  -2 217576. 8747.93   1
   3  -6   2 203154. 8040.96   2
   3   3   2 224004. 6977.23   1
  -3  -3  -1-185.419 244.749   1
  -3   6  -1-184.052 262.909   1
   3  -6   1 221.717 439.813   1
  -6   3   1 1081.97 893.457   1
  -3  -3  -1-538.169 665.295   2
   6  -3  -1 302.842 581.282   1
   3   3   1-24.1013 273.765   1
   3  -6   1 417.527 525.061   2
   3  -6   0 101794. 4901.05   1
  -6   3   0 111805. 5779.66   1
   6  -3   0 108583. 5858.02   1
  -3   6   0 102374. 5063.27   1
   3  -6   0 108510. 5222.74   2
  -3  -3   0 114606. 5939.12   2
  -3  -3   0 124639. 5007.55   1
  -3  -3   1 313.381 353.684   1
  -3  -3   1 222.496 398.369   2
   3   3  -1-428.891 213.500   1
  -6   3  -1-18.5281 434.426   1
   6  -3   1 60.4671 381.289   1
   3  -6  -1 302.881 261.882   2
   3  -6  -1-41.5023 212.294   1
  -3   6   1 42.1995 286.588   1
  -6   3  -2 238936. 9033.77   1
   3  -6  -2 221454. 7447.00   1
   6  -3   2 223926. 9097.41   1
   3   3  -2 216799. 8276.48   1
  -3  -3   2 208875. 8845.08   2
   3  -6  -2 209261. 7573.21   2
  -3  -3   3-5.82627 385.620   2
   3   3  -3 165.988 350.753   1
  -3   6   3 404.446 462.314   1
  -3  -3   3 446.710 496.387   1
   3  -6  -3 438.253 346.444   1
   3  -6  -3-76.6456 260.489   2
  -6   3  -3 709.527 530.253   1
   6  -3   3 137.148 321.661   1
  -3   6   5 260.742 174.449   1
  -3  -3   5 212.489 700.544   2
   6  -3   5 135.581 581.042   1
  -6   3  -5-165.812 545.218   1
   3   3  -5 498.088 759.405   1
   3  -6  -5-103.520 188.894   1
   3   3  -6 65963.8 4692.37   1
   6  -3   6 68821.0 4753.54   1
  -6   3  -6 72024.2 4802.57   1
   3  -6  -6 64383.8 3529.88   1
  -3  -3   6 66285.9 4787.41   2
  -3  -3   6 69331.5 4730.38   1
  -3  -3   7 249.411 526.938   1
   3   3  -7 599.810 461.065   1
  -6   3  -7-418.588 594.326   1
   6  -3   7-354.791 654.902   1
  -3   6   7 25.2498 338.260   1
   3  -6  -7-54.5394 104.265   1
  -3  -3   7 449.487 731.196   2
   6  -3   8 748082. 21163.9   2
  -3  -3   8 669483. 20248.2   2
   6  -3   8 685429. 20212.0   1
   3   3  -8 681674. 19932.1   1
  -6   3  -8 628398. 19371.0   1
  -3  -3   8 734325. 20787.3   1
   6  -3   9 270.962 692.617   2
  -3  -3   9 221.491 259.734   1
  -6   3  -9-266.778 433.162   1
   3   3  -9-202.412 578.472   1
   6  -3   9 529.812 318.952   1
  -3  -3   9-388.092 590.237   2
  -3  -3  10 269857. 11301.4   2
  -6   3 -10 242191. 10631.1   1
   6  -3  10 258073. 11117.8   2
   6  -3  10 266919. 11131.8   1
   3   3 -10 249554. 10718.6   1
  -3  -3  10 266194. 11301.7   1
  -3  -3  11-27.5915 524.952   1
   3   3 -11 244.934 635.708   1
  -6   3 -11 70.3470 490.164   1
   6  -3  11-654.044 321.813   1
   6  -3  11 542.405 426.884   2
  -3  -3  11 149.703 347.916   2
   6  -3  12 95463.7 6501.18   1
  -6   3 -12 79038.9 5814.64   1
  -3  -3  12 90011.0 6501.95   2
   6  -3  12 85991.5 6103.03   2
   3   3 -12 89925.5 6196.02   1
  -3  -3  12 88914.8 6425.86   1
  -3  -3  13-923.615 890.601   1
   3   3 -13 178.892 682.052   1
   6  -3  13 489.431 736.137   1
  -6   3 -13 713.320 659.933   1
  -3  -3  13 780.520 997.503   2
   6  -3  13-797.370 939.898   2
   6  -3  14 86157.8 6473.61   1
  -6   3 -14 84060.5 6172.32   1
   3   3 -14 89820.6 6390.94   1
  -3  -3  14 83501.9 6500.66   2
  -3  -3  14 86793.1 6680.36   1
   6  -3  14 76235.9 5910.76   2
  -3  -3  15 750.575 1065.73   1
   3   3 -15-7.53773 345.245   1
  -6   3 -15-319.937 595.897   1
  -3  -3  15 276.988 307.577   2
   6  -3  15-284.679 531.110   2
   6  -3  15 1227.92 970.464   1
  -6   3 -16 124601. 7966.06   1
   6  -3  16 113400. 7969.58   2
  -3  -3  16 117849. 8084.24   2
   6  -3  16 132122. 8625.07   1
   3   3 -16 137951. 8416.28   1
  -3  -3  16 128251. 8515.34   1
  -3  -3  17-1190.16 1159.62   1
   3   3 -17 141.009 705.100   1
  -3  -3  17 1539.55 1040.86   2
   6  -3  17 857.665 1086.25   2
  -6   3 -17 86.9987 312.104   1
   6  -3  17 939.457 1017.84   1
  -3  -3  18 1360.46 796.718   1
   3   3 -18 1778.34 1099.52   1
   6  -3  18 1697.81 924.451   1
  -3  -3  18 1645.28 974.138   2
  -6   3 -18 1801.27 859.168   1
   6  -3  19 617.291 563.911   1
  -3  -3  19-1136.35 889.745   2
  -6   3 -19-1223.89 867.196   1
   6  -4 -19 4040.88 1405.69   1
   6  -2 -19 8533.31 2206.96   1
   4  -6  19 5636.40 2013.93   2
   2  -6  19 4606.78 1446.16   2
  -6   4  19 6004.63 1822.69   1
  -6   2  19 6329.67 1967.27   1
   2  -6  18 21953.7 3517.12   1
  -2   6 -18 26507.1 3645.89   1
  -4   6 -18 31803.0 3889.00   1
   2  -6  18 23853.0 3613.34   2
  -6   4  18 21903.2 3385.57   1
  -6   2  18 22653.9 3641.32   1
   4  -6  18 26356.4 3718.74   1
   4  -6  18 21014.6 3811.21   2
   6  -4 -18 20195.0 3252.98   1
   6  -2 -18 24321.6 3660.53   1
   6  -4 -17 14232.9 2744.18   1
   4  -6  17 20009.2 3336.09   1
  -2   6 -17 20183.4 3289.07   1
   2  -6  17 15077.8 2835.07   1
  -6   2  17 16818.7 3040.26   1
   6  -2 -17 16424.3 3014.72   1
  -6   4  17 12695.7 2568.33   1
   4  -6  17 13401.8 3181.91   2
   2  -6  17 14483.3 2749.62   2
  -4   6 -17 18651.2 2978.01   1
   4  -6  16-196.955 630.255   2
   6  -2 -16 291.508 562.913   1
   2  -6  16 142.792 599.880   1
   6  -4 -16-80.1690 332.285   1
   4  -6  16 398.189 340.930   1
  -6   4  16-1357.36 997.973   1
  -2   6 -16-1052.67 734.178   1
   2  -6  16-358.570 906.722   2
  -6   2  16-1381.11 1137.63   1
  -4   6 -16-309.791 537.862   1
   4  -6  15 24146.1 3590.34   2
  -2   6 -15 25033.9 3472.62   1
   4  -6  15 29529.8 3649.55   1
  -6   4  15 30568.7 3653.48   1
  -4   6 -15 31277.3 3721.37   1
  -6   2  15 24948.0 3589.54   1
   2  -6  15 28184.9 3772.10   1
   2  -6  15 24749.3 3514.77   2
   6  -4 -15 26036.4 3563.15   1
   6  -2 -15 35491.2 4102.77   1
   6  -2 -14 60199.3 5335.85   1
   2  -6  14 61543.4 5616.55   1
   4  -6  14 56516.8 5411.34   1
  -2   6 -14 71136.3 5648.04   1
  -4   6 -14 60933.2 5233.46   1
  -6   2  14 60541.5 5217.91   1
   2  -6  14 68526.4 5611.12   2
  -6   4  14 70646.6 5800.26   1
   4  -6  14 58487.6 5291.38   2
   6  -4 -14 52115.4 4974.53   1
  -6   2  13 17612.0 2789.91   2
   4  -6  13 23775.5 3352.93   1
   4  -6  13 18691.1 2930.10   2
   2  -6  13 20612.2 3147.07   1
  -4   6 -13 22478.5 3107.77   1
   6  -2 -13 20268.8 2980.66   1
  -6   4  13 21288.6 2991.38   1
   6  -4 -13 16975.3 2765.41   1
  -2   6 -13 19134.4 2838.19   1
  -6   2  13 26608.0 3481.77   1
   2  -6  13 21770.4 3020.85   2
   4  -6  12 17374.4 2752.46   1
   6  -4 -12 20905.6 3004.24   1
   4  -6  12 19692.8 2777.63   2
  -4   6 -12 18190.3 2823.05   1
  -6   4  12 19316.4 2777.11   1
   2  -6  12 18812.9 2664.08   2
   6  -2 -12 19464.7 2930.55   1
  -6   2  12 19323.7 2887.54   1
  -6   2  12 16765.7 2764.52   2
   2  -6  12 20362.2 3031.62   1
  -2   6 -12 20522.8 2896.98   1
  -4   6 -11 58551.9 4840.19   1
  -6   4  11 52635.6 4668.79   1
   2  -6  11 54394.1 4736.55   2
   2  -6  11 55114.7 4918.63   1
  -6   2  11 53558.4 4727.79   1
  -6   2  11 44045.0 4326.65   2
  -2   6 -11 52580.1 4645.57   1
   6  -2 -11 56595.0 4933.64   1
   4  -6  11 47579.0 4419.93   2
   6  -4 -11 44983.4 4341.59   1
   4  -6  11 52438.9 4559.06   1
   4  -6  10 279282. 11441.3   1
   2  -6  10 287832. 11951.2   1
  -6   4  10 274696. 11420.7   1
  -2   6 -10 270457. 11251.8   1
  -4   6 -10 246930. 10965.4   1
  -6   2  10 295215. 11815.5   1
   6  -2 -10 305157. 12163.8   1
   6  -4 -10 276671. 11446.6   1
   2  -6  10 266366. 11222.4   2
   4  -6  10 268591. 11171.0   2
   2  -6   9 34223.8 3618.12   1
  -6   4   9 35440.0 3556.16   1
  -2   6  -9 31027.8 3301.30   1
  -4   6  -9 35406.7 3525.58   1
  -6   2   9 36183.0 3661.66   1
   4  -6   9 29641.1 3257.97   2
   6  -4  -9 35504.1 3714.26   1
   2  -6   9 32429.2 3323.17   2
   6  -2  -9 31336.0 3412.75   1
   4  -6   9 33054.1 3572.30   1
  -6   4   8 102635. 6271.13   1
   2  -6   8 120670. 6852.89   1
   4  -6   8 114759. 6643.50   1
   4   2   8 104297. 5369.59   1
  -2   6  -8 115450. 6501.27   1
  -6   2   8 103167. 6278.88   1
  -4   6  -8 107623. 6444.20   1
   6  -4  -8 77106.6 5567.86   1
  -4  -2  -8 140664. 5900.57   1
   4  -6   8 114390. 6401.05   2
   2  -6   8 112426. 6444.27   2
   6  -2  -8 115665. 6742.08   1
   2  -6   7 24583.1 2771.41   1
   4  -6   7 27618.5 2940.26   1
  -6   2   7 22065.1 2693.42   1
   4   2   7 25370.3 2443.62   1
  -4  -2  -7 16554.1 1893.00   1
  -2   6  -7 21911.6 2688.72   1
  -4   6  -7 22930.0 2681.50   1
   6  -4  -7 19125.5 2497.70   1
   6  -2  -7 21748.4 2707.40   1
   2  -6   7 21622.5 2668.90   2
  -6   4   7 23014.8 2713.27   1
   4  -6   7 24989.5 2808.06   2
  -6   2   6 320570. 11662.6   1
   4  -6   6 302394. 11348.6   1
  -2   6  -6 298144. 11056.3   1
   4   2   6 312102. 9998.87   1
  -4   6  -6 323820. 11640.0   1
   6  -4  -6 311446. 11527.2   1
   2  -6   6 311873. 11441.4   2
   4  -6   6 308459. 11156.5   2
  -4  -2  -6 348423. 10030.0   1
  -6   4   6 292186. 11224.1   1
   6  -2  -6 363343. 12356.9   1
  -2   6  -5 429625. 13124.4   1
   4   2   5 485140. 12085.4   1
   6  -4  -5 425689. 13420.1   1
  -4   6  -5 330076. 12427.6   1
   2  -6   5 401078. 12675.5   1
   6  -2  -5 357191. 12901.1   1
   4  -6   5 399310. 12730.4   2
  -6   4   5 396507. 13115.2   1
   2  -6   5 385172. 12705.2   2
  -4  -2  -5 255310. 9959.88   1
   4  -6   5 408475. 13012.5   1
  -6   2   5 429919. 13407.0   1
  -4   6  -4 643.469 669.849   1
  -6   4   4-39.6978 408.447   1
   2  -6   4 232.246 228.414   1
  -4  -2  -4 903.310 477.521   1
   4   2   4 24.0980 306.789   1
   4  -6   4 228.924 472.146   1
   4  -6   4 1275.55 693.727   2
  -6   2   4 635.132 607.391   1
   2  -6   4 785.749 460.565   2
  -2   6  -4 1521.34 669.122   1
   6  -4  -4 74.5490 407.367   1
   6  -2  -4 583.258 519.253   1
  -4  -2  -3 514801. 12923.7   1
   2  -6   3 531624. 14034.3   1
   4  -6   3 452654. 14006.6   1
  -2   6  -3 508954. 13970.9   1
   2  -6   3 471864. 14159.9   2
   4   2   3 378202. 12350.4   1
   6  -2  -3 421145. 14341.1   1
  -6   4   3 374296. 13746.9   1
   6  -4  -3 547287. 15178.7   1
  -2  -4  -3 492447. 14067.6   2
  -4   6  -3 451547. 14150.6   1
   4  -6   3 450010. 13854.0   2
  -6   2   3 516212. 15061.8   1
   2  -6   2 397375. 12384.8   1
  -4   6  -2 474377. 13916.0   1
   4  -6   2 413285. 13309.9   1
  -4  -2  -2 441889. 12375.8   1
   2  -6   2 469705. 13807.1   2
  -2   6  -2 411498. 12616.4   1
  -6   4   2 470624. 14395.4   1
  -2  -4  -2 549087. 14316.5   2
  -6   2   2 475199. 14416.5   1
   6  -4  -2 425730. 13774.9   1
   6  -2  -2 481644. 14549.4   1
   4  -6   2 435739. 13369.7   2
  -2  -4  -1 5553.00 747.254   1
   2  -6   1 8778.64 1254.68   1
  -6   4   1 5786.16 1213.59   1
   2   4   1 5449.28 801.401   1
  -2  -4  -1 4775.45 1249.90   2
   4  -6   1 6570.29 1232.20   2
  -4   6  -1 6859.94 1291.94   1
   4  -6   1 5543.72 1094.33   1
  -6   2   1 4374.98 1101.50   1
   4   2   1 5853.49 1068.59   1
  -4  -2  -1 4884.38 990.229   1
  -2   6  -1 7811.89 1201.63   1
   6  -2  -1 5366.11 1208.77   1
   2  -6   1 6509.21 1187.51   2
   6  -4  -1 6236.04 1312.86   1
   2  -6   0 9459.01 1258.37   1
  -2  -4   0 7999.22 1021.75   1
  -6   4   0 7192.59 1313.69   1
  -2   6   0 12040.9 1428.66   1
  -4  -2   0 7672.96 1336.04   1
   4  -6   0 9835.89 1384.37   2
  -4   6   0 8834.41 1413.83   1
   4  -6   0 9305.16 1483.68   1
  -6   2   0 8126.42 1486.05   1
   2   4   0 9493.56 1210.19   1
  -4  -2   0 7425.68 1535.57   2
  -2  -4   0 9239.33 1585.51   2
   6  -4   0 10664.1 1813.34   1
   6  -2   0 9347.41 1652.14   1
   2  -6   0 8963.53 1337.25   2
   4   2   0 10996.1 1603.36   1
  -6   4  -1 40852.2 3444.03   1
   2  -6  -1 45890.5 2631.05   1
  -4  -2   1 42243.0 3157.16   1
  -6   2  -1 47057.4 3567.98   1
   4  -6  -1 53872.7 3517.45   1
   6  -2   1 45086.0 3679.39   1
  -2   6   1 30381.7 2282.60   1
   6  -4   1 38548.4 3424.44   1
   4   2  -1 54541.5 3711.60   1
   2  -6  -1 51245.0 3324.97   2
  -4  -2   1 46067.6 3747.03   2
  -2  -4   1 53388.2 3050.32   1
   2   4  -1 42537.0 2862.69   1
   4  -6  -1 56626.9 3450.24   2
  -2  -4   1 41349.9 3404.90   2
  -4   6   1 53554.5 3465.08   1
  -4   6   2 594496. 15224.3   1
  -6   4  -2 527817. 15733.0   1
  -2  -4   2 558955. 14720.2   1
   4   2  -2 519405. 15353.2   1
  -4  -2   2 500301. 14783.2   1
   4  -6  -2 492611. 14371.2   1
   6  -4   2 548527. 16002.9   1
   6  -2   2 554676. 16102.0   1
  -6   2  -2 539627. 15698.0   1
  -4  -2   2 498640. 15788.4   2
  -2  -4   2 531716. 15735.9   2
   2  -6  -2 547365. 14252.6   2
  -4   6   3 220867. 8200.26   1
  -4  -2   3 235581. 9576.69   2
   2  -6  -3 242634. 6746.45   1
  -2   6   3 229487. 6889.32   1
  -6   2  -3 254172. 9303.71   1
   6  -4   3 249390. 9681.49   1
  -4  -2   3 259064. 9180.05   1
   6  -2   3 277518. 9848.56   1
   4  -6  -3 227215. 8250.66   1
   4  -6  -3 278259. 8394.66   2
  -2  -4   3 243263. 9615.40   2
   2  -6  -3 267157. 7956.82   2
   4   2  -3 232020. 9098.35   1
   2   4  -3 237054. 8719.53   1
  -6   4  -3 243107. 9414.37   1
  -2  -4   3 236068. 8703.82   1
  -4   6   4 358220. 11268.5   1
  -4  -2   4 364186. 12605.0   2
   6  -4   4 342596. 12438.4   1
   6  -2   4 382900. 12565.8   1
  -2  -4   4 382205. 12635.5   2
   4  -6  -4 356228. 11114.6   1
  -4  -2   4 380778. 12171.1   1
   4   2  -4 371490. 12408.7   1
   2   4  -4 404488. 12195.9   1
   4  -6  -4 331375. 10076.9   2
  -2  -4   4 393796. 12129.5   1
  -6   4  -4 357494. 12262.9   1
  -6   2  -4 349200. 11988.7   1
  -2  -4   5 64902.0 4709.62   2
  -4  -2   5 79389.1 4935.93   1
   6  -4   5 72755.7 4848.29   1
  -4   6   5 87072.3 4610.08   1
   6  -2   5 68710.9 4679.03   1
   4  -6  -5 63856.1 3898.42   1
   2   4  -5 69680.8 4503.26   1
  -6   4  -5 82983.5 5120.41   1
   4   2  -5 79361.8 4891.52   1
   4  -6  -5 58891.4 3116.46   2
  -6   2  -5 77996.8 4844.38   1
  -4  -2   5 72351.8 4949.14   2
  -2  -4   5 80013.2 4813.91   1
  -2  -4   6 443671. 14148.4   1
   6  -2   6 476470. 14506.3   1
  -6   4  -6 440097. 14331.2   1
  -2  -4   6 440783. 14275.4   2
  -4   6   6 379445. 12657.0   1
   4  -6  -6 484192. 13138.0   1
  -4  -2   6 449208. 14685.8   2
   6  -4   6 431759. 14329.0   1
  -6   2  -6 331607. 12968.0   1
  -4  -2   6 446111. 14185.4   1
   4   2  -6 410597. 14084.4   1
   6  -4   6 487558. 15167.6   2
   2   4  -6 432358. 13839.6   1
  -6   4  -7 170540. 7853.47   1
  -4  -2   7 176969. 8047.53   1
  -4  -2   7 150164. 7828.60   2
  -4   6   7 169266. 7228.46   1
   6  -4   7 147631. 7616.16   1
   6  -2   7 146736. 7330.93   1
  -6   2  -7 135894. 7066.11   1
   4  -6  -7 168595. 6980.80   1
  -2  -4   7 142457. 7512.47   2
   4   2  -7 149944. 7563.03   1
   6  -4   7 175424. 8411.89   2
   2   4  -7 145564. 7319.53   1
  -2  -4   7 143311. 7338.15   1
  -4  -2   8 7693.41 1600.85   2
  -2  -4   8 7738.54 1576.91   1
   4   2  -8 7327.83 1618.12   1
  -6   4  -8 8319.01 1767.17   1
  -6   2  -8 6463.16 1363.40   1
   2   4  -8 6109.33 1453.39   1
  -4   6   8 7341.96 1596.15   1
   6  -4   8 7037.08 1545.42   1
   6  -2   8 7755.03 1505.12   1
  -4  -2   8 6462.28 1591.67   1
  -2  -4   8 6839.21 1599.02   2
   4  -6  -8 6455.32 1411.95   1
   6  -4   8 6073.79 1257.47   2
  -2  -4   9 149731. 8059.05   2
   6  -4   9 166891. 8345.51   1
   6  -2   9 190226. 8797.78   1
  -4  -2   9 165691. 8385.24   1
  -4  -2   9 156850. 8290.38   2
  -6   2  -9 175095. 8387.33   1
   6  -2   9 160403. 8464.33   2
   4  -6  -9 151861. 7233.15   1
   4   2  -9 160891. 8248.79   1
  -4   6   9 166534. 7717.26   1
  -2  -4   9 142388. 7887.47   1
   6  -4   9 171933. 8381.25   2
   2   4  -9 167760. 8126.66   1
  -6   4  -9 163638. 8302.48   1
  -2  -4  10 133105. 7759.59   1
   6  -2  10 167864. 8407.28   1
   6  -4  10 146946. 7977.76   1
  -4  -2  10 133533. 7833.21   2
  -6   4 -10 160546. 8277.85   1
  -6   2 -10 135463. 7598.97   1
  -2  -4  10 140131. 7782.65   2
   4  -6 -10 156195. 7445.30   1
  -4   6  10 170201. 7925.42   1
   4   2 -10 146576. 7966.17   1
   6  -4  10 151548. 7784.42   2
   6  -2  10 145908. 8165.08   2
   2   4 -10 125628. 7308.46   1
  -2  -4  11 33379.7 3725.55   1
   6  -2  11 30195.1 3484.50   2
   6  -4  11 34903.6 3679.95   1
   6  -2  11 29863.0 3544.40   1
  -4  -2  11 29350.4 3554.96   2
  -6   4 -11 33555.0 3580.49   1
  -6   2 -11 30897.0 3457.66   1
  -2  -4  11 28620.9 3332.44   2
   4   2 -11 33987.2 3579.49   1
  -4  -2  11 32940.0 3708.43   1
   6  -4  11 33225.7 3512.18   2
   2   4 -11 32550.4 3545.24   1
  -4   6  11 33143.4 3379.67   1
   6  -4  12 24832.0 3138.68   2
  -2  -4  12 16090.0 2636.54   1
  -4  -2  12 17731.2 2927.17   2
   6  -4  12 17762.0 2839.50   1
   2   4 -12 17359.9 2596.64   1
  -2  -4  12 20581.7 2969.61   2
  -6   4 -12 21281.3 2878.06   1
  -6   2 -12 20116.0 2822.83   1
   6  -2  12 20063.4 3011.59   1
   6  -2  12 23135.0 3096.11   2
   4   2 -12 18737.2 2840.04   1
  -4  -2  12 21384.7 3058.76   1
  -4  -2  13 16601.7 2840.75   1
   6  -2  13 18817.1 2933.51   1
   4   2 -13 20279.6 2993.16   1
   6  -4  13 21273.2 2938.02   2
  -2  -4  13 17733.4 2846.16   2
   6  -4  13 18390.9 2757.68   1
  -6   4 -13 17403.9 2759.47   1
  -6   2 -13 17822.2 2864.02   1
  -4  -2  13 17542.6 3015.79   2
  -2  -4  13 18879.8 3038.97   1
   2   4 -13 20876.7 2925.62   1
   6  -2  13 17147.6 2652.11   2
   6  -4  14 75095.1 6105.44   1
   6  -2  14 77335.5 6189.47   1
  -6   4 -14 75232.8 5899.13   1
  -6   2 -14 70357.7 5700.30   1
  -4  -2  14 80899.9 6556.17   2
  -2  -4  14 72010.5 5942.10   2
   4   2 -14 84747.6 6317.63   1
  -4  -2  14 89410.7 6786.27   1
   6  -4  14 76820.8 5989.03   2
   6  -2  14 77022.3 6090.81   2
   2   4 -14 81566.3 6113.54   1
  -2  -4  14 74018.0 6030.10   1
  -4  -2  15 15197.2 2854.14   1
  -2  -4  15 10749.8 2322.71   1
   4   2 -15 11302.8 2299.06   1
   2   4 -15 10255.8 2113.67   1
   6  -2  15 8746.57 2065.98   1
   6  -4  15 11009.5 2308.72   1
  -2  -4  15 10373.7 2264.41   2
  -4  -2  15 11186.9 2401.43   2
   6  -2  15 9979.00 2196.23   2
  -6   4 -15 13811.8 2499.72   1
   6  -4  15 8698.56 1986.29   2
  -6   2 -15 11626.2 2296.71   1
   6  -2  16 18269.8 3180.91   1
   6  -4  16 24694.7 3545.83   1
  -4  -2  16 21324.6 3381.95   2
  -6   2 -16 19456.9 3058.32   1
   6  -2  16 23492.8 3436.11   2
  -2  -4  16 21506.4 3374.63   1
  -2  -4  16 17142.0 3010.43   2
  -6   4 -16 17656.7 2936.89   1
   4   2 -16 20907.5 3279.32   1
   6  -4  16 17747.5 3034.09   2
   2   4 -16 25773.4 3403.33   1
  -4  -2  16 22394.5 3505.86   1
  -4  -2  17 9541.39 2133.38   1
  -2  -4  17 6429.49 1858.52   1
   4   2 -17 7043.68 1943.60   1
   2   4 -17 5663.85 1690.69   1
   6  -2  17 7681.29 2104.30   1
   6  -4  17 6054.74 1812.84   1
  -6   2 -17 5063.72 1526.34   1
  -4  -2  17 5049.08 1760.28   2
  -6   4 -17 5481.41 1726.39   1
  -2  -4  17 5874.73 1812.91   2
   6  -4  17 7823.10 1910.65   2
  -2  -4  18 36637.4 4574.96   2
   6  -2  18 40089.6 4871.91   1
  -6   2 -18 27683.1 3820.40   1
  -6   4 -18 38379.9 4376.34   1
  -4  -2  18 29517.6 4105.05   2
   2   4 -18 42037.7 4524.02   1
   6  -4  18 30141.0 4231.38   2
  -2  -4  18 34853.9 4559.58   1
   4   2 -18 38758.6 4496.42   1
   6  -4  18 38092.5 4723.66   1
  -2  -4  19 14310.3 2913.66   2
   6  -4  19 17644.6 3194.86   1
   6  -4  19 15073.0 3074.02   2
  -6   4 -19 18643.2 3179.87   1
   6  -2  19 15778.8 3129.96   1
   5  -6  19 1703.28 1029.78   2
   1  -6  19 4428.91 1617.95   2
   1  -6  18 16221.8 3036.72   1
  -6   1  18 13987.3 3248.58   1
  -5   6 -18 17604.7 2933.65   1
  -6   5  18 16989.5 3094.08   1
  -1   6 -18 16938.2 2874.21   1
   5  -6  18 15153.5 2840.77   1
   5  -6  18 11550.1 2868.52   2
   1  -6  18 15458.7 2779.00   2
   6  -1 -18 20719.7 3194.37   1
   6  -1 -17 14809.2 2650.28   1
  -6   1  17 14087.0 3046.94   1
   1  -6  17 14095.4 2776.07   1
  -6   5  17 11515.4 2396.07   1
   5  -6  17 12736.1 2604.92   1
  -5   6 -17 11956.0 2355.64   1
  -1   6 -17 12962.3 2640.78   1
   1  -6  17 12622.1 2576.34   2
   5  -6  17 11485.3 2726.48   2
   6  -5 -17 8884.67 2152.14   1
   6  -1 -16 14499.0 2611.08   1
  -6   5  16 8337.70 2083.96   1
   1  -6  16 11644.4 2539.01   1
  -6   1  16 7927.21 2080.83   1
   6  -5 -16 11111.5 2298.40   1
   5  -6  16 9918.43 2224.83   1
  -5   6 -16 11273.9 2325.80   1
  -1   6 -16 11088.9 2302.94   1
   5  -6  16 7292.58 2058.96   2
   1  -6  16 9928.26 2321.75   2
   6  -1 -15 14334.7 2612.20   1
  -6   1  15 13551.2 2521.11   1
  -6   5  15 14859.4 2612.60   1
  -5   6 -15 13947.5 2516.64   1
   1  -6  15 16904.4 2931.76   1
   5  -6  15 20605.4 3149.15   1
  -1   6 -15 16658.5 2855.00   1
  -6   1  15 12564.2 2595.17   2
   6  -5 -15 16932.0 2825.86   1
   1  -6  15 15657.5 2752.41   2
   5  -6  15 14313.4 2789.35   2
   1  -6  14 77585.7 6409.19   1
  -1   6 -14 84642.3 6432.26   1
  -6   5  14 98598.5 6900.43   1
  -5   6 -14 90965.2 6496.76   1
  -6   1  14 94428.9 6837.45   1
   5  -6  14 86779.0 6553.19   1
   1  -6  14 87325.8 6461.31   2
   5  -6  14 86060.7 6576.40   2
   6  -5 -14 92606.8 6629.91   1
   6  -1 -14 87391.5 6568.20   1
  -6   1  14 69826.7 6101.86   2
   6  -1 -13 19568.1 2875.34   1
  -6   5  13 19525.4 2986.31   1
   1  -6  13 19795.0 2928.61   2
   1  -6  13 19178.6 2983.58   1
  -6   1  13 19082.1 2977.14   1
   5  -6  13 18782.2 2868.27   1
  -1   6 -13 17421.3 2733.42   1
  -6   1  13 17555.1 3008.61   2
   6  -5 -13 18031.5 2907.46   1
   5  -6  13 18107.6 2881.12   2
  -5   6 -13 18396.8 2714.97   1
   1  -6  12 24962.5 3366.78   1
  -1   6 -12 22160.5 3159.75   1
  -6   5  12 23388.5 3174.35   1
  -5   6 -12 19710.2 2937.01   1
   5  -6  12 22125.4 3072.19   2
  -6   1  12 23866.6 3182.22   1
  -6   1  12 22887.6 3166.33   2
   6  -5 -12 21124.0 2903.17   1
   1  -6  12 24182.8 3070.41   2
   6  -1 -12 22649.8 3059.67   1
   5  -6  12 25381.4 3193.33   1
   1  -6  11 55791.7 4998.57   1
  -6   5  11 56993.6 4885.77   1
  -1   6 -11 45308.2 4308.41   1
   5  -6  11 52212.9 4644.46   1
   5   1  11 44032.7 3970.67   1
  -5   6 -11 47592.2 4368.13   1
  -6   1  11 39447.7 4232.50   2
  -6   1  11 48506.2 4503.73   1
   6  -1 -11 49389.9 4579.53   1
   5  -6  11 51432.4 4640.06   2
   6  -5 -11 57594.9 4878.14   1
   1  -6  11 44557.2 4341.21   2
  -6   5  10 258223. 10716.1   1
   1  -6  10 217385. 10299.2   1
  -1   6 -10 253385. 10663.4   1
   5  -6  10 248712. 10656.1   1
   5   1  10 193607. 9044.61   1
  -6   1  10 230353. 10711.1   2
   6  -5 -10 220422. 10057.2   1
  -5   6 -10 224090. 10210.3   1
  -5  -1 -10 188154. 8698.84   1
  -6   1  10 247832. 10623.6   1
   1  -6  10 236344. 10296.7   2
   6  -1 -10 226319. 10270.8   1
   5  -6  10 222490. 10072.6   2
   1  -6   9 208413. 9729.95   1
  -1   6  -9 208227. 9619.08   1
   5  -6   9 188488. 9353.39   1
   5   1   9 188229. 8641.55   1
  -6   5   9 209231. 9503.36   1
  -5   6  -9 210645. 9676.79   1
  -6   1   9 198435. 9709.46   2
  -6   1   9 218182. 9779.02   1
   6  -1  -9 209409. 9685.60   1
   6  -5  -9 222580. 9719.18   1
   5  -6   9 193631. 9227.03   2
   1  -6   9 207291. 9558.30   2
   1  -6   8 23569.5 2947.66   1
  -1   6  -8 19073.8 2553.38   1
   5  -6   8 20489.3 2779.31   1
   1  -6   8 18500.0 2548.09   2
   5   1   8 23795.1 2646.45   1
   6  -5  -8 20533.0 2663.92   1
  -6   1   8 19739.2 2654.31   1
  -5   6  -8 20267.5 2770.48   1
   6  -1  -8 22524.2 2796.39   1
   5  -6   8 20188.1 2600.31   2
  -6   5   8 22398.8 2930.77   1
  -6   1   8 20278.2 2621.24   2
  -5  -1  -8 20507.3 2400.42   1
   1  -6   7 108833. 6279.46   1
  -1   6  -7 87621.1 5589.99   1
  -5  -1  -7 103380. 5430.06   1
   5  -6   7 109496. 6329.06   1
  -6   1   7 93661.6 5864.60   1
   5   1   7 97629.7 5522.83   1
   1  -6   7 101489. 6012.90   2
  -5   6  -7 87445.4 5887.11   1
   6  -5  -7 89451.9 5721.60   1
  -6   5   7 91994.2 5880.11   1
   5  -6   7 94906.9 5767.29   2
   6  -1  -7 103468. 6319.64   1
   1  -6   6 193105. 8392.92   1
  -1   6  -6 168777. 7912.08   1
  -6   1   6 178054. 8163.69   1
   5  -6   6 190519. 8619.07   1
   6  -5  -6 177432. 8163.60   1
   5   1   6 189667. 7670.73   1
   1  -6   6 171143. 8087.59   2
   6  -1  -6 157675. 7980.80   1
   5  -6   6 167754. 7853.12   2
  -5   6  -6 187036. 8612.86   1
  -5  -1  -6 178574. 7390.16   1
  -6   5   6 178200. 8250.27   1
  -6   5   5 5589.03 1390.52   1
  -1   6  -5 7084.72 1433.70   1
  -5   6  -5 7514.79 1636.29   1
   1  -6   5 7373.82 1457.48   1
   5  -6   5 5047.89 1326.18   1
  -5  -1  -5 7163.63 1296.45   1
   5  -6   5 4575.90 1102.49   2
   5   1   5 5958.08 1214.22   1
   6  -5  -5 6444.50 1398.73   1
   1  -6   5 5402.90 1392.95   2
  -6   1   5 6288.44 1500.82   1
   6  -1  -5 4441.09 1083.28   1
  -5  -1  -4 15690.0 1951.49   1
   1  -6   4 15711.7 2032.23   1
  -1   6  -4 20808.2 2246.01   1
   5  -6   4 14575.5 2148.76   1
   6  -1  -4 14220.9 2070.85   1
   5   1   4 17459.7 2061.69   1
   6  -5  -4 20651.8 2408.64   1
  -1  -5  -4 17734.3 1983.33   2
  -5   6  -4 17297.1 2208.89   1
   5  -6   4 16030.6 2191.54   2
   1  -6   4 12563.0 1943.38   2
  -6   1   4 15563.1 2096.25   1
  -6   5   4 12202.2 2022.12   1
   1  -6   3 89207.2 4742.45   1
  -5  -1  -3 76513.5 4274.71   1
  -1   6  -3 86574.9 4622.42   1
   5  -6   3 71932.5 4741.00   1
  -1  -5  -3 93324.7 4798.92   2
  -6   5   3 80147.2 5062.09   1
   5   1   3 77038.2 4610.29   1
   6  -5  -3 75195.6 4801.04   1
   6  -1  -3 74763.2 5024.58   1
   1  -6   3 77807.1 4830.58   2
  -5   6  -3 80808.6 4985.16   1
  -6   1   3 73272.5 4780.46   1
   5  -6   3 85091.0 4899.49   2
   1  -6   2 403394. 11079.1   1
  -6   1   2 396075. 12402.8   1
  -1   6  -2 299359. 10026.6   1
  -5  -1  -2 373299. 11097.6   1
  -6   5   2 336009. 11630.3   1
   5  -6   2 300991. 11059.6   1
   1  -6   2 351280. 11531.8   2
   6  -1  -2 302030. 11517.5   1
   5   1   2 321865. 10960.2   1
  -1  -5  -2 324699. 10774.4   2
   5  -6   2 307079. 11082.3   2
  -5   6  -2 304690. 11243.3   1
   6  -5  -2 377281. 12113.5   1
   5  -6   1 499176. 14699.7   2
  -6   5   1 457489. 14817.5   1
  -1  -5  -1 545454. 14874.3   2
   5  -6   1 477429. 14735.5   1
  -5  -1  -1 388230. 13551.9   1
   6  -5  -1 490792. 15146.4   1
   5   1   1 561269. 15050.0   1
   1  -6   1 583440. 15265.2   2
   6  -1  -1 459714. 15029.3   1
  -6   1   1 530758. 15327.1   1
  -5   6  -1 509846. 14988.9   1
  -5   6   0 304459. 10417.1   1
   1  -6   0 227370. 7840.70   1
   5  -6   0 345690. 10699.0   2
  -6   5   0 256006. 9923.28   1
  -1   6   0 291374. 8376.96   1
  -1  -5   0 293952. 8012.19   1
  -1  -5   0 273145. 9920.65   2
  -5  -1   0 242422. 9481.18   1
   5  -6   0 303676. 10389.3   1
   5   1   0 321764. 10625.4   1
   6  -5   0 279402. 10338.9   1
  -6   1   0 324479. 10858.4   1
   6  -1   0 228313. 9568.68   1
   1  -6   0 334792. 10282.5   2
   1   5   0 288566. 8218.05   1
  -5   6   1 81042.9 4934.41   1
   1  -6  -1 68794.2 3258.32   1
  -6   5  -1 96513.8 5483.14   1
  -1   6   1 138702. 4313.71   1
  -6   1  -1 95180.9 5270.91   1
   5  -6  -1 71976.8 4589.78   1
   6  -5   1 100602. 5598.46   1
   6  -1   1 113993. 5942.78   1
  -1  -5   1 99456.3 5418.07   2
  -5  -1   1 98113.6 5304.00   1
   5  -6  -1 99922.1 5285.17   2
   1   5  -1 115683. 4732.73   1
   1  -6  -1 119725. 5418.03   2
  -1  -5   1 106492. 4526.09   1
   5   1  -1 89120.0 5209.77   1
  -1  -5   2 999999. 24680.7   2
  -5  -1   2 918966. 25252.4   2
  -6   5  -2 927842. 24487.4   1
  -6   5  -3 20962.5 2497.38   1
  -5  -1   3 25822.3 2652.73   1
   5  -6  -3 29502.6 2750.09   2
  -6   1  -3 22122.5 2406.04   1
  -5   6   3 18186.4 2235.13   1
   6  -5   3 29584.8 3041.31   1
   1  -6  -3 23120.3 2064.64   2
  -5  -1   3 25089.0 2915.92   2
   6  -1   3 22206.1 2631.75   1
   5  -6  -3 22496.5 2378.53   1
   5   1  -3 23521.4 2622.72   1
   1   5  -3 23447.9 2306.07   1
  -1  -5   3 24518.1 2756.53   2
   6  -5   3 23995.7 2774.73   2
  -1  -5   3 25837.6 2415.33   1
  -1  -5   4 4472.07 1039.45   1
  -5  -1   4 6364.34 1303.06   1
   1   5  -4 4589.93 1013.36   1
  -5   6   4 5438.01 1196.47   1
   1  -6  -4 4471.14 805.265   2
  -6   5  -4 3130.31 957.564   1
   6  -5   4 4960.33 1340.14   1
   6  -1   4 4387.18 1219.89   1
  -6   1  -4 4358.07 1132.46   1
  -5  -1   4 4425.36 1223.34   2
   5  -6  -4 4333.38 1129.21   1
  -1  -5   4 3291.73 938.623   2
   5  -6  -4 5582.36 1200.84   2
   6  -5   4 3311.92 1052.85   2
   5   1  -4 4526.62 1140.27   1
  -1  -5   5 232787. 8931.84   1
   6  -5   5 224550. 9312.23   1
   5   1  -5 240376. 9576.05   1
   6  -1   5 242219. 9489.55   1
  -5  -1   5 229299. 9124.79   1
  -5  -1   5 227187. 9620.42   2
   5  -6  -5 225324. 8593.39   1
  -1  -5   5 215264. 9161.58   2
  -6   5  -5 214577. 9207.86   1
   6  -5   5 235718. 9657.03   2
  -6   1  -5 218486. 8690.78   1
   1   5  -5 216462. 8739.32   1
  -1  -5   6 41830.8 3709.57   2
   6  -5   6 37816.7 3645.49   1
   6  -1   6 45299.5 3795.52   1
  -5   6   6 33526.1 3229.79   1
   6  -5   6 41451.8 3698.38   2
  -5  -1   6 34849.3 3351.54   1
   5  -6  -6 50159.3 3732.95   1
  -1  -5   6 45688.4 3762.48   1
  -6   5  -6 39966.0 3591.49   1
   5   1  -6 35997.4 3498.47   1
  -6   1  -6 43451.3 3553.36   1
  -5  -1   6 44763.1 3922.26   2
   1   5  -6 40208.5 3427.99   1
  -5  -1   7 127372. 7363.11   2
   6  -5   7 128268. 6965.22   1
   6  -1   7 122363. 6648.68   1
  -6   1  -7 120992. 6562.49   1
  -6   5  -7 136316. 7078.18   1
   5  -6  -7 112162. 6170.31   1
  -5  -1   7 135550. 7104.36   1
   6  -5   7 127210. 6885.55   2
   5   1  -7 133063. 7143.05   1
  -1  -5   7 128935. 7164.48   2
  -1  -5   7 154008. 7431.74   1
  -5   6   7 146830. 7249.80   1
   1   5  -7 133162. 6839.37   1
  -1  -5   8 20259.5 2620.99   1
  -5   6   8 22040.5 2756.74   1
   6  -5   8 22774.1 2887.28   1
   6  -1   8 24973.7 2919.15   1
  -6   1  -8 21016.1 2554.73   1
  -1  -5   8 20542.7 2686.23   2
   6  -5   8 20512.0 2652.04   2
   5  -6  -8 17572.7 2388.72   1
  -5  -1   8 19679.1 2935.93   2
  -6   5  -8 25346.6 3014.75   1
  -5  -1   8 22179.3 2758.90   1
   5   1  -8 19725.7 2726.35   1
   1   5  -8 22603.4 2775.33   1
  -1  -5   9 24572.1 3069.99   1
   6  -5   9 24428.8 3001.72   1
   6  -1   9 20685.2 2791.20   1
  -1  -5   9 20535.9 2859.56   2
  -6   5  -9 24471.6 3014.30   1
  -5   6   9 18885.5 2608.03   1
   5  -6  -9 23271.9 2697.14   1
  -6   1  -9 31313.5 3204.51   1
   1   5  -9 21558.9 2805.49   1
  -5  -1   9 22082.6 2915.63   2
   5   1  -9 18625.4 2712.44   1
  -5  -1   9 22106.1 2834.24   1
   6  -5   9 21989.0 2782.62   2
  -1  -5  10 288942. 12149.6   1
   6  -1  10 286218. 11873.0   1
   6  -5  10 279926. 11964.6   1
   5   1 -10 285061. 11870.4   1
  -6   5 -10 301235. 12174.8   1
  -6   1 -10 339397. 12491.7   1
   5  -6 -10 306995. 11607.5   1
  -5  -1  10 282090. 12105.1   2
   6  -5  10 294584. 11857.7   2
  -5   6  10 311771. 12043.2   1
  -5  -1  10 290106. 12080.8   1
  -1  -5  10 280136. 11910.8   2
   1   5 -10 322860. 12243.4   1
  -1  -5  11 27447.7 3306.32   1
   6  -5  11 25363.3 3186.27   1
   6  -1  11 23854.3 3104.45   1
  -5  -1  11 25202.8 3349.78   2
  -6   5 -11 27045.4 3328.57   1
   5  -6 -11 25089.5 3061.16   1
  -6   1 -11 24846.9 3089.83   1
   5   1 -11 25160.0 3141.94   1
   6  -5  11 29788.0 3496.86   2
   6  -1  11 29880.9 3559.22   2
  -1  -5  11 30364.5 3548.22   2
  -5   6  11 33295.4 3539.50   1
  -5  -1  11 28516.3 3329.70   1
   1   5 -11 26492.7 3245.61   1
  -1  -5  12 40616.1 4317.58   1
  -5  -1  12 44943.4 4366.33   1
   6  -5  12 39434.9 4205.53   1
   6  -1  12 45144.1 4527.75   1
  -6   5 -12 43794.0 4316.16   1
  -6   1 -12 44510.3 4205.20   1
   5  -6 -12 48731.6 4458.83   1
  -5  -1  12 46396.2 4577.00   2
   5   1 -12 46402.1 4441.26   1
  -1  -5  12 47157.0 4459.98   2
   6  -1  12 37237.5 3958.34   2
   6  -5  12 42173.4 4155.81   2
   1   5 -12 40700.8 4069.58   1
  -5   6  12 50020.9 4506.96   1
  -1  -5  13 35940.6 4103.19   1
  -5   6  13 42331.1 4290.50   1
  -5  -1  13 47014.8 4686.16   1
   6  -5  13 39082.4 4200.11   1
   6  -1  13 33925.0 3934.47   1
  -6   5 -13 42369.3 4284.87   1
  -6   1 -13 48864.7 4521.33   1
  -1  -5  13 38285.1 4214.01   2
  -5  -1  13 34351.3 4143.27   2
   6  -5  13 39016.0 4146.50   2
   5   1 -13 42871.4 4357.30   1
   6  -1  13 35361.3 4034.40   2
   1   5 -13 37384.1 4014.49   1
  -1  -5  14 74619.9 6052.18   1
  -5  -1  14 86204.0 6503.94   1
   6  -5  14 70718.1 5895.49   1
   6  -1  14 69650.7 5978.26   1
  -1  -5  14 66233.9 5662.12   2
  -6   1 -14 75152.4 5808.68   1
  -6   5 -14 73480.5 5770.53   1
   6  -5  14 78851.4 6039.78   2
   5   1 -14 85253.0 6377.76   1
   6  -1  14 49228.5 4813.61   2
  -5  -1  14 59216.8 5630.24   2
   1   5 -14 75148.9 5957.37   1
  -1  -5  15 23421.0 3466.23   1
  -5  -1  15 27706.4 3531.66   1
   6  -5  15 23967.2 3390.49   1
  -6   1 -15 22436.3 3241.30   1
  -6   5 -15 23849.4 3316.26   1
   6  -1  15 27023.2 3589.17   1
  -5  -1  15 25358.4 3674.48   2
  -1  -5  15 23990.5 3427.61   2
   6  -1  15 21494.0 3124.42   2
   6  -5  15 25242.2 3566.09   2
   5   1 -15 25640.8 3403.12   1
   1   5 -15 23842.8 3367.54   1
   5   1 -16 2485.03 881.090   1
  -1  -5  16 1945.86 931.958   1
   6  -1  16 2900.64 1161.87   1
   6  -5  16 3630.44 1315.65   1
  -1  -5  16 3168.22 1407.28   2
   1   5 -16 3570.30 1458.94   1
  -5  -1  16 2711.38 1210.46   1
  -5  -1  16 2612.98 1166.49   2
  -6   5 -16 1526.62 943.554   1
   6  -5  16 1751.51 942.163   2
   5   1 -17 6386.92 1868.93   1
   6  -5  17 8568.21 2035.43   1
   1   5 -17 5943.28 1725.92   1
  -1  -5  17 9593.62 2386.28   1
  -5  -1  17 7303.16 2167.66   1
  -5  -1  17 7303.29 1937.88   2
  -6   5 -17 8310.47 2050.43   1
  -1  -5  17 6853.82 1792.14   2
   6  -5  17 6180.10 2097.97   2
  -1  -5  18 29540.6 4043.88   1
  -1  -5  18 27590.2 3686.43   2
  -5  -1  18 27371.4 3856.25   1
   6  -5  18 30822.4 3977.45   1
  -6   5 -18 28028.2 3752.14   1
   6  -5  18 22558.2 3769.33   2
   5   1 -18 34984.8 4114.84   1
   1   5 -18 27127.7 3731.67   1
   6  -5  19 2315.27 1335.70   2
  -1  -5  19 3349.12 1288.73   2
   0  -6   1 2372.15 665.813   1
  -6   0   1 2662.89 1009.49   1
   0   6  -1 2815.94 635.879   1
  -6   0  -1 2612.32 886.262   1
  -6   6   1 3873.65 1155.85   1
   6  -6  -1 2884.70 1055.03   1
  -6   6  -1 3734.72 1113.88   1
   0  -6  -1 2046.42 730.186   2
   0  -6   1 2843.61 1088.26   2
   6   0  -1 2789.94 911.723   1
   6   0   1 2229.82 744.463   1
   6  -6   1 2395.87 1045.86   2
   6  -6  -1 3263.32 1136.55   2
   6  -6   1 3683.51 1108.65   1
   0   6  -2 10086.3 1457.39   1
   0  -6   2 10328.1 1446.71   1
  -6   6   2 8740.26 1586.78   1
  -6   0  -2 9275.62 1608.09   1
  -6   0   2 8203.97 1577.33   1
  -6   6  -2 10594.0 1797.01   1
   6   0   2 10824.9 1699.74   1
   0  -6  -2 9741.23 1556.94   2
   6  -6  -2 8654.02 1545.20   1
   6  -6   2 12797.6 1940.60   2
   6   0  -2 9279.50 1727.96   1
   6  -6  -2 16351.3 2374.41   2
   6  -6   2 9692.51 1809.96   1
   0  -6   2 9942.01 1734.20   2
  -6   0  -3 4479.25 960.195   1
   0  -6   3 5781.89 1157.09   1
  -6   6   3 3230.10 1017.98   1
   0   6  -3 6394.95 1188.79   1
  -6   6  -3 5136.16 1421.61   1
   6  -6   3 4766.08 1217.51   1
   0  -6  -3 3017.22 875.100   2
  -6   0   3 6699.22 1372.73   1
   6   0  -3 5294.24 1198.76   1
   0  -6   3 5654.94 1421.64   2
   6   0   3 5502.36 1295.50   1
   6  -6  -3 5210.95 1215.61   1
   6  -6   3 5926.23 1340.94   2
  -6   0  -4 251761. 9651.80   1
   0  -6   4 254864. 9593.58   1
   6  -6   4 277346. 10671.4   1
  -6   6   4 269500. 10349.4   1
   6   0   4 280734. 10405.7   1
   6  -6  -4 267265. 10311.0   1
   6   0  -4 252349. 10404.7   1
   0  -6   4 270529. 10587.6   2
   6  -6   4 268141. 10419.8   2
  -6   6  -4 289528. 10904.4   1
   0  -6  -4 250297. 8884.92   2
  -6   0   4 284659. 10558.5   1
  -6   0   5 5266.81 1159.08   1
   0  -6   5 5205.34 1250.77   1
  -6   6  -5 4497.46 1123.62   1
   0   6  -5 4177.47 1072.81   1
  -6   0  -5 5188.84 1214.45   1
   6  -6   5 3387.13 1203.87   1
  -6   6   5 3761.79 1103.95   1
   6  -6  -5 5646.32 1246.41   1
   0  -6   5 4728.21 1071.73   2
   6   0   5 5213.34 1379.80   1
   6  -6   5 5719.93 1191.63   2
   6   0  -5 4432.08 1233.19   1
   0  -6   6 18547.5 2479.49   1
   0   6  -6 21481.4 2494.95   1
   0  -6   6 15452.0 2302.08   2
  -6   0   6 17600.4 2460.22   1
  -6   6  -6 18494.8 2449.34   1
  -6   0   6 14845.3 2471.32   2
   6   0   6 14838.8 2201.91   1
   6  -6   6 18456.3 2508.16   1
  -6   6   6 16806.6 2433.84   1
   6  -6  -6 14784.5 2137.86   1
   6   0  -6 16720.9 2449.57   1
  -6   0  -6 18139.2 2282.03   1
   6  -6   6 18188.5 2391.33   2
  -6   6   7 3748.26 985.277   1
  -6   6  -7 3918.22 1321.82   1
   0  -6   7 3726.99 1182.73   1
   0  -6   7 3632.54 1232.53   2
  -6   0   7 4635.10 1182.32   1
  -6   0  -7 3339.59 995.340   1
  -6   0   7 5377.08 1586.93   2
   0   6  -7 4300.71 1206.44   1
   6  -6   7 2191.26 963.611   1
   6  -6   7 3104.42 1080.20   2
   6   0   7 2956.88 1035.04   1
   6  -6  -7 4820.27 1271.82   1
   6   0  -7 2798.17 1093.02   1
   0  -6   8 399781. 14025.8   1
   0   6  -8 378727. 13668.2   1
  -6   6   8 377160. 13817.2   1
   6  -6   8 399698. 14207.4   1
   6   0   8 374779. 13436.9   1
  -6   0   8 365481. 14279.3   2
  -6   0   8 344674. 13223.8   1
  -6   6  -8 401545. 14243.9   1
   6   0  -8 369947. 13721.6   1
   0  -6   8 374048. 13684.9   2
   6  -6   8 388357. 13560.3   2
  -6   0  -8 322324. 12383.2   1
   6  -6  -8 391611. 13584.8   1
   6   0  -9 6100.62 1695.16   1
  -6   6  -9 6366.22 1639.44   1
   6  -6  -9 3794.60 1231.29   1
  -6   0  -9 5925.27 1442.37   1
   0  -6   9 6270.08 1482.77   1
   6  -6   9 5386.46 1608.94   1
   0   6  -9 6549.59 1661.62   1
   6   0   9 5830.89 1564.25   1
  -6   6   9 3313.62 1290.42   1
  -6   0   9 4522.36 1279.45   1
  -6   0   9 3751.37 1525.17   2
   0  -6   9 4979.80 1334.83   2
   6  -6   9 4686.11 1239.10   2
   6   0 -10 2548.95 1148.44   1
  -6   0 -10 1856.63 700.761   1
   0  -6  10 2997.19 1154.42   1
   6  -6  10 2979.09 1004.16   1
   6   0  10 3225.79 947.793   1
   0   6 -10 2239.64 755.431   1
  -6   6  10 4041.67 1362.51   1
   6  -6  10 1585.07 788.765   2
  -6   0  10 3685.64 1394.22   2
  -6   0  10 2592.48 954.130   1
   0  -6  10 1681.74 773.924   2
   6  -6 -10 2980.01 1168.32   1
  -6   6 -10 2833.14 1226.77   1
   6   0 -11 545.402 457.447   1
   0  -6  11 681.869 732.567   1
   6  -6  11 131.524 412.653   1
   6   0  11-349.386 359.535   1
   0   6 -11 307.354 307.452   1
  -6   6  11-256.742 289.325   1
  -6   6 -11-847.101 821.340   1
   0  -6  11-585.322 588.864   2
   6  -6 -11 644.440 487.576   1
  -6   0  11 339.935 424.521   1
   6  -6  11 434.754 339.300   2
  -6   0  11 2419.75 1239.41   2
   6   0  11-1906.49 930.858   2
  -6   0 -11 503.435 631.994   1
   0   6 -12 217590. 10436.8   1
   0  -6  12 217977. 10688.3   1
   6  -6  12 238251. 10895.6   1
   6   0  12 223249. 10377.9   1
   0  -6  12 219080. 10401.7   2
  -6   0  12 247085. 11133.2   1
  -6   6 -12 235476. 10746.2   1
   6   0 -12 232927. 10892.6   1
   6  -6 -12 213659. 10169.7   1
   6  -6  12 234106. 10620.7   2
  -6   0  12 221636. 10869.7   2
  -6   6  12 247507. 11357.3   1
   6   0 -13 266.700 768.621   1
  -6   0  13 630.676 376.810   1
   0  -6  13-779.857 933.273   1
  -6   6  13-498.496 751.662   1
   6  -6 -13 600.025 611.435   1
   6  -6  13-511.230 397.603   1
  -6   0  13 650.544 604.926   2
   0   6 -13-274.750 713.830   1
   0  -6  13 597.304 784.990   2
  -6   6 -13-40.3860 363.046   1
   6  -6  13 572.471 795.577   2
   6   0  13 620.052 1062.80   2
   6   0 -14 1533.48 973.217   1
   0  -6  14 2079.11 928.386   1
  -6   0  14 2920.88 1115.89   1
   6  -6  14 1011.38 671.043   1
   0   6 -14 2532.66 1133.40   1
  -6   0  14 3871.23 1529.32   2
   0  -6  14 2625.75 1169.64   2
  -6   6 -14 3448.28 1270.95   1
  -6   6  14 2144.01 942.774   1
   6  -6  14 2874.76 1263.82   2
   6  -6 -14 2191.83 936.734   1
   6   0 -15 662.201 675.479   1
   0  -6  15 208.305 520.410   1
   6  -6  15 209.350 795.076   1
  -6   0  15-1355.41 1142.23   1
   0   6 -15 1751.97 1047.73   1
   6  -6  15-1001.71 1012.67   2
  -6   0  15 435.704 865.388   2
  -6   6 -15 120.410 515.403   1
   0  -6  15-871.288 969.532   2
  -6   6  15 2.09742 457.143   1
   0  -6  16 58818.9 5720.51   1
   6  -6  16 78247.0 6243.05   1
  -6   6 -16 69738.5 5831.99   1
  -6   0  16 79205.2 6746.86   1
  -6   0  16 48347.8 5448.06   2
   0  -6  16 57838.2 5575.94   2
   6  -6  16 52563.3 5858.28   2
   6   0 -16 64911.8 5798.68   1
   0   6 -16 64036.9 5594.47   1
   6   0 -17 1698.24 887.912   1
   0  -6  17 2137.97 1137.01   1
   6  -6  17-119.232 662.580   1
   0   6 -17 1053.51 818.918   1
  -6   0  17-500.415 653.372   1
   6  -6  17 750.848 730.836   2
  -6   6 -17-17.7173 478.970   1
   0  -6  17 1909.27 1123.56   2
   6   0 -18 739.797 856.029   1
   0  -6  18 1444.90 853.507   1
  -6   6 -18 2341.38 1144.00   1
   6  -6  18 1127.77 780.242   1
  -6   0  18 883.956 896.437   1
   0   6 -18 450.390 495.209   1
   0  -6  18 235.366 481.926   2
   6  -6  18-434.360 1025.89   2
  -7   4  18 51677.8 5274.23   1
  -7   3  18 55738.8 5720.06   1
   4  -7  18 50612.4 5396.99   2
   3  -7  18 49006.6 5190.98   2
   7  -4 -18 35284.3 4444.08   1
   7  -3 -18 53543.3 5298.31   1
   3  -7  17 12643.2 2708.93   1
  -7   4  17 9491.10 2116.27   1
   3  -7  17 9714.10 2326.01   2
   4  -7  17 11163.0 2527.57   1
  -7   3  17 14858.0 2848.49   1
  -3   7 -17 12719.3 2560.35   1
  -4   7 -17 10312.9 2280.94   1
   4  -7  17 8651.42 2425.21   2
   7  -4 -17 9320.51 2203.94   1
   7  -3 -17 14152.0 2695.04   1
   3  -7  16 58.4593 445.334   2
  -7   4  16-179.566 303.143   1
   3  -7  16 769.931 738.769   1
   4  -7  16 391.037 656.383   1
  -7   3  16-396.020 822.265   1
  -3   7 -16-146.905 663.182   1
  -4   7 -16 968.885 593.909   1
   4  -7  16-88.1673 444.778   2
   7  -4 -16 168.990 733.696   1
   7  -3 -16-735.756 746.074   1
   3  -7  15 18857.6 3219.17   1
  -3   7 -15 23057.3 3401.59   1
  -7   4  15 18594.3 3048.99   1
  -4   7 -15 24331.5 3296.37   1
   4  -7  15 20004.3 3180.73   1
  -7   3  15 25307.3 3373.72   1
   4  -7  15 19491.7 3074.81   2
   7  -3 -15 21420.9 3387.78   1
   3  -7  15 21181.3 3144.36   2
   7  -4 -15 19404.3 3024.48   1
   3  -7  14 18533.3 3171.83   1
  -3   7 -14 22884.4 3270.51   1
  -7   4  14 31033.2 3816.81   1
   7  -4 -14 21986.6 3306.51   1
   4  -7  14 20663.2 3323.64   1
  -7   3  14 26051.4 3490.81   1
  -4   7 -14 26383.9 3447.84   1
   4  -7  14 21951.6 3293.39   2
   7  -3 -14 31340.6 3819.17   1
   3  -7  14 23315.4 3320.37   2
   3  -7  13 55266.0 5361.88   1
   4  -7  13 59514.9 5479.72   1
  -3   7 -13 56806.9 5180.69   1
  -7   4  13 53479.0 5022.28   1
  -4   7 -13 53239.2 4973.32   1
  -7   3  13 63548.5 5436.06   1
   7  -4 -13 53435.5 5046.99   1
   3  -7  13 53366.8 5038.92   2
   7  -3 -13 53075.3 5116.86   1
   4  -7  13 50551.1 4976.92   2
  -7   4  12 7615.74 1878.10   1
  -7   3  12 8036.31 1946.88   1
  -3   7 -12 6175.79 1678.90   1
   3  -7  12 9367.54 2129.25   1
   4  -7  12 8210.22 2000.34   1
   7  -4 -12 8527.03 1987.93   1
   3  -7  12 7511.93 1747.90   2
   4  -7  12 7627.75 1879.80   2
  -4   7 -12 6674.31 1840.70   1
   7  -3 -12 7089.64 1796.74   1
   3  -7  11 20553.6 3116.31   1
  -7   4  11 22487.1 3047.73   1
  -3   7 -11 23176.7 3182.77   1
  -7   3  11 24173.6 3165.07   1
  -4   7 -11 21066.1 2882.99   1
   4  -7  11 23533.9 3262.80   1
   4  -7  11 22815.6 3153.65   2
   7  -4 -11 26157.1 3351.48   1
   7  -3 -11 22824.5 3144.88   1
   3  -7  11 27442.5 3284.06   2
   3  -7  10 157308. 8837.72   1
   4  -7  10 170589. 8983.77   1
  -7   3  10 195848. 9545.06   1
   7  -4 -10 186579. 9291.95   1
  -3   7 -10 178561. 9032.74   1
   4  -7  10 169927. 8798.21   2
   3  -7  10 171810. 8712.24   2
  -4   7 -10 158529. 8656.29   1
   7  -3 -10 198682. 9579.91   1
  -7   4  10 190839. 9309.53   1
   3  -7   9 4261.57 1374.22   1
   4  -7   9 2333.72 797.973   1
  -7   4   9 1988.77 785.512   1
  -4   7  -9 3313.71 1234.81   1
   7  -3  -9 2750.07 890.460   1
   3  -7   9 3509.46 1178.78   2
  -3   7  -9 2617.32 1063.89   1
   4  -7   9 2846.69 991.295   2
   7  -4  -9 3430.37 1307.47   1
  -7   3   9 3264.57 1120.47   1
  -7   3   8 151203. 7958.91   1
   3  -7   8 160914. 8249.28   1
   4  -7   8 175221. 8624.80   1
   7  -4  -8 133063. 7629.23   1
  -3   7  -8 152669. 8011.81   1
  -4   7  -8 161651. 8222.79   1
   3  -7   8 135660. 7541.06   2
   7  -3  -8 159002. 8208.38   1
   4  -7   8 167131. 8213.90   2
  -7   4   8 149679. 7962.41   1
   3  -7   7 76026.0 5281.93   1
   4  -7   7 84423.6 5625.22   1
  -3   7  -7 74448.0 5240.46   1
  -4   7  -7 75027.3 5329.21   1
   7  -4  -7 88109.2 5798.08   1
   3  -7   7 69822.1 5106.21   2
   4  -7   7 74273.7 5167.83   2
   7  -3  -7 84832.8 5733.55   1
  -7   4   7 64563.5 5105.56   1
  -7   3   7 83923.7 5582.24   1
   3  -7   6 376168. 13747.0   1
   4  -7   6 408444. 14268.9   1
   7  -4  -6 471754. 15283.7   1
  -3   7  -6 395885. 14033.5   1
  -4   7  -6 454324. 14850.8   1
   7  -3  -6 418805. 14532.7   1
   3  -7   6 426847. 14405.0   2
  -7   4   6 466917. 15169.8   1
   4  -7   6 450930. 14514.6   2
  -7   3   6 425763. 14551.8   1
  -3   7  -5 172606. 8308.62   1
  -7   3   5 216573. 9312.64   1
   3  -7   5 222502. 9051.14   1
   3  -7   5 228566. 9284.14   2
   4  -7   5 213979. 9034.28   1
   7  -4  -5 210280. 9397.04   1
  -4   7  -5 215662. 9268.34   1
   7  -3  -5 205028. 9182.56   1
  -7   4   5 216501. 9492.58   1
   4  -7   5 182577. 8675.40   2
  -4   7  -4 2490.68 874.644   1
  -7   4   4 2475.24 987.808   1
   3  -7   4 1523.43 769.720   1
  -7   3   4 2111.88 853.590   1
   4  -7   4 1166.74 485.731   1
   7  -4  -4 1656.83 751.181   1
   7  -3  -4 1720.69 875.020   1
   3  -7   4 2092.16 802.379   2
  -3   7  -4 1758.01 804.627   1
   4  -7   4 1720.52 602.838   2
  -4  -3  -3 130335. 5200.54   1
   3  -7   3 133898. 6440.70   1
   4  -7   3 153314. 7006.73   1
  -3   7  -3 120013. 6253.25   1
   4   3   3 153179. 5852.54   1
  -7   4   3 117321. 6729.32   1
  -4   7  -3 131411. 6789.93   1
   7  -4  -3 133868. 7002.99   1
  -7   3   3 134221. 6973.09   1
   3  -7   3 117962. 6373.82   2
   4  -7   3 130998. 6619.59   2
   7  -3  -3 144844. 7273.12   1
   4  -7   2 159884. 7087.58   1
   4  -7   2 128627. 6580.00   2
  -4  -3  -2 118346. 5375.59   1
  -7   4   2 147462. 7394.04   1
  -3   7  -2 129197. 6377.30   1
   4   3   2 141423. 6007.21   1
  -7   3   2 164444. 7678.82   1
   7  -4  -2 145306. 7357.84   1
   7  -3  -2 142105. 7138.04   1
  -4   7  -2 201172. 7930.03   1
  -3  -4  -2 162867. 7542.00   2
   3  -7   2 164606. 6936.77   1
   3  -7   2 154369. 7085.75   2
   3  -7   1 96531.0 4882.47   1
  -7   4   1 73016.6 5018.50   1
   3   4   1 81816.6 4046.89   1
  -7   3   1 85706.8 5232.57   1
  -3  -4  -1 80561.1 5267.45   2
  -3   7  -1 90008.8 4832.14   1
  -4  -3  -1 73488.0 4131.66   1
   7  -4  -1 78098.5 5209.82   1
   7  -3  -1 71773.6 5047.23   1
   4   3   1 71446.3 4202.53   1
   4  -7   1 91756.9 5012.16   1
   3  -7   1 75739.9 4756.52   2
   4  -7   1 75941.0 4790.97   2
  -4   7  -1 107347. 5519.97   1
  -4   7   0 7060.37 1352.64   1
  -7   3   0 7871.07 1608.08   1
  -4  -3   0 7499.90 1316.37   1
   3  -7   0 8656.32 1310.63   1
   7  -4   0 10396.2 1809.81   1
   4  -7   0 8720.24 1477.59   1
  -3   7   0 13235.7 1704.39   1
   3   4   0 5778.25 1106.39   1
  -3  -4   0 5850.24 1413.52   2
   7  -3   0 9184.97 1793.05   1
   3  -7   0 8885.79 1475.72   2
  -3  -4   0 9479.01 1349.93   1
   4   3   0 6902.40 1322.99   1
  -4  -3   0 10197.1 1881.43   2
   4  -7   0 9921.50 1695.86   2
  -7   4   0 8917.58 1700.70   1
  -7   4  -1 48534.1 3992.56   1
  -3  -4   1 42914.1 3122.33   1
  -7   3  -1 53645.0 4195.80   1
   3  -7  -1 40229.2 2932.09   1
   4  -7  -1 54907.7 3623.81   1
   3   4  -1 59682.1 3805.08   1
   7  -4   1 48923.3 4054.22   1
   7  -3   1 55811.2 4227.71   1
  -4  -3   1 48952.7 4020.69   2
  -3  -4   1 46034.8 3989.05   2
   4   3  -1 62051.9 4108.48   1
   4  -7  -1 42711.6 3388.42   2
  -4   7   1 59210.6 3883.62   1
  -3   7   1 57092.7 3551.60   1
  -4  -3   1 47447.9 3500.36   1
   3  -7  -1 58640.6 3820.58   2
  -3  -4   2 271426. 10538.8   2
  -7   4  -2 258351. 10239.3   1
  -7   3  -2 294956. 10588.9   1
  -4  -3   2 321274. 10319.3   1
   3  -7  -2 298433. 8760.98   1
  -3   7   2 270767. 8847.29   1
   4  -7  -2 213339. 8418.66   1
   7  -4   2 267829. 10559.3   1
   7  -3   2 276725. 10683.7   1
   4   3  -2 269716. 10053.1   1
  -4   7   2 238407. 8977.79   1
  -3  -4   2 258580. 9265.38   1
  -4  -3   2 271528. 10642.6   2
   3  -7  -2 250112. 9041.49   2
   3   4  -2 294651. 10024.4   1
   4  -7  -2 284177. 9604.19   2
  -7   3  -3 38461.1 3583.94   1
   4  -7  -3 64185.1 3824.64   1
  -4  -3   3 60411.1 4050.17   1
   7  -4   3 52658.1 4121.73   1
   7  -3   3 44605.7 3946.23   1
  -4  -3   3 45490.1 4000.88   2
  -3  -4   3 42288.6 3854.98   2
   3   4  -3 47751.3 3694.61   1
   4   3  -3 43805.7 3623.86   1
  -3   7   3 46889.9 3006.32   1
  -4   7   3 47480.5 3372.90   1
  -3  -4   3 48045.0 3580.73   1
   3  -7  -3 47932.2 3211.63   2
   4  -7  -3 48544.2 3322.02   2
  -7   4  -3 54236.9 4144.75   1
  -4   7   4 220531. 8743.27   1
  -3  -4   4 264727. 10683.0   2
  -7   4  -4 269714. 10465.9   1
   7  -4   4 289203. 11161.4   1
   7  -3   4 256151. 10550.8   1
   4  -7  -4 289680. 9345.57   1
   4   3  -4 258628. 10251.8   1
   3   4  -4 261363. 10150.5   1
  -4  -3   4 288765. 10407.7   1
  -3  -4   4 321286. 10789.4   1
  -7   3  -4 271503. 10514.2   1
  -4  -3   4 249762. 10538.8   2
  -4   7   5 109255. 5354.38   1
  -3  -4   5 125216. 6523.95   1
   3   4  -5 106033. 6165.75   1
   7  -4   5 101579. 6303.86   1
   7  -3   5 108405. 6432.16   1
   4  -7  -5 121993. 5420.10   1
  -4  -3   5 107947. 6479.66   2
  -3  -4   5 110408. 6427.07   2
  -7   4  -5 106117. 6066.70   1
  -4  -3   5 103957. 6122.29   1
   4   3  -5 108748. 6306.57   1
  -7   3  -5 94766.5 5841.37   1
  -4   7   6 582601. 16347.9   1
   7  -4   6 627409. 18484.2   1
   7  -3   6 627811. 18300.3   1
  -3  -4   6 546232. 17981.1   2
  -4  -3   6 608157. 18556.6   2
   3   4  -6 576573. 18057.7   1
  -7   4  -6 585063. 18027.2   1
   4   3  -6 532603. 17587.5   1
  -7   3  -6 592347. 17991.0   1
  -4  -3   6 643061. 18496.6   1
   7  -4   7 115852. 6736.87   1
   7  -3   7 105243. 6431.19   1
   7  -4   7 114940. 7099.85   2
  -3  -4   7 114772. 6886.59   2
   3   4  -7 115192. 6752.91   1
  -4  -3   7 104793. 6603.01   2
  -4  -3   7 121209. 6783.16   1
  -7   4  -7 114535. 6590.27   1
  -7   3  -7 117345. 6729.67   1
   4   3  -7 102428. 6387.87   1
  -3  -4   7 111574. 6722.06   1
  -4  -3   8-1016.55 654.746   1
  -3  -4   8 1632.50 930.626   1
  -3  -4   8 85.7789 470.899   2
   4   3  -8 70.2873 426.933   1
   3   4  -8 17.0527 479.628   1
  -7   4  -8 505.156 598.340   1
  -7   3  -8 1036.23 750.862   1
   7  -4   8 768.664 798.437   1
   7  -3   8-74.6878 342.130   1
   7  -4   8 149.485 783.413   2
  -4  -3   8 125.261 475.392   2
  -4  -3   9 86776.4 6174.89   2
   7  -4   9 77264.8 5751.41   1
   7  -3   9 93166.5 6211.38   1
  -4  -3   9 87059.5 6188.92   1
  -7   3  -9 100650. 6243.62   1
  -3  -4   9 78482.6 5925.78   2
  -7   4  -9 91671.7 6031.68   1
   3   4  -9 87725.2 6134.14   1
   4   3  -9 84893.3 6013.57   1
   7  -4   9 87353.6 6374.32   2
   7  -3   9 83549.2 6092.57   2
  -3  -4   9 76946.8 5904.49   1
  -7   3 -10 32085.6 3661.82   1
   7  -4  10 30526.2 3483.98   1
   7  -3  10 29443.4 3533.92   1
  -3  -4  10 24975.7 3241.62   2
  -4  -3  10 23104.4 3224.60   2
   3   4 -10 31475.3 3449.41   1
   7  -3  10 25195.9 3490.56   2
   4   3 -10 28193.8 3477.06   1
   7  -4  10 28608.7 3510.27   2
  -4  -3  10 21007.2 3048.13   1
  -7   4 -10 28749.1 3344.45   1
  -3  -4  10 29447.7 3616.76   1
   7  -4  11 48314.6 4581.91   1
   7  -3  11 48787.2 4617.81   1
   3   4 -11 45192.8 4467.13   1
  -7   4 -11 47331.3 4487.29   1
  -7   3 -11 42017.9 4308.86   1
  -3  -4  11 42360.8 4414.92   2
  -4  -3  11 44255.9 4489.34   2
   7  -3  11 36169.4 4295.47   2
   7  -4  11 39061.9 4145.79   2
   4   3 -11 43982.6 4477.16   1
  -3  -4  11 44706.1 4436.03   1
  -4  -3  12 6908.49 1963.36   1
  -3  -4  12 7589.67 1973.88   1
   4   3 -12 8641.69 1894.23   1
   3   4 -12 6713.62 1709.02   1
   7  -4  12 7884.07 1876.13   1
   7  -3  12 6784.24 1745.11   1
  -4  -3  12 5522.66 1787.24   2
  -3  -4  12 6798.09 1818.05   2
  -7   4 -12 5961.97 1691.33   1
   7  -4  12 5810.89 1553.22   2
   7  -3  12 6167.87 1722.55   2
  -7   3 -12 7931.80 1830.74   1
  -4  -3  13 5564.59 1484.05   1
  -3  -4  13 4099.44 1429.40   1
   4   3 -13 5199.05 1512.85   1
   3   4 -13 5961.32 1548.91   1
   7  -4  13 4162.24 1140.57   1
   7  -3  13 4258.75 1358.94   1
  -7   4 -13 3902.33 1266.78   1
  -4  -3  13 3565.95 1241.87   2
  -3  -4  13 4046.30 1349.35   2
   7  -4  13 3712.34 1243.86   2
  -7   3 -13 5626.08 1631.35   1
   7  -3  13 3471.83 1112.38   2
   7  -4  14 86060.9 6582.58   2
   7  -4  14 78337.6 6244.84   1
   7  -3  14 92178.1 6688.02   1
  -7   4 -14 82691.7 6372.99   1
  -7   3 -14 72767.7 5931.80   1
  -3  -4  14 94075.6 6942.40   2
  -4  -3  14 77500.7 6435.26   2
   7  -3  14 75468.7 6191.59   2
   4   3 -14 101346. 7057.71   1
   3   4 -14 82428.1 6359.73   1
  -4  -3  14 84171.4 6765.15   1
  -3  -4  14 85040.3 6710.38   1
  -4  -3  15 7706.52 1901.33   1
  -3  -4  15 6210.07 1964.41   1
   4   3 -15 7731.87 1800.23   1
   3   4 -15 7589.22 1863.81   1
   7  -4  15 5465.08 1716.23   1
   7  -3  15 7254.63 1843.14   1
  -4  -3  15 5932.42 1739.21   2
  -3  -4  15 6304.53 1744.61   2
  -7   4 -15 5811.34 1587.84   1
  -7   3 -15 4550.93 1467.66   1
   7  -4  15 6692.87 1718.05   2
   7  -3  15 3957.43 1350.79   2
  -4  -3  16 16135.2 3143.13   1
  -3  -4  16 13536.4 2759.96   1
   7  -3  16 18776.4 3169.01   1
   3   4 -16 18467.5 2967.71   1
   7  -4  16 16791.0 2973.20   1
  -4  -3  16 15836.8 2918.24   2
   7  -3  16 14701.1 2719.30   2
  -3  -4  16 20078.9 3178.82   2
  -7   3 -16 15280.0 2639.72   1
  -7   4 -16 17256.8 3027.88   1
   4   3 -16 20699.9 3245.20   1
   7  -4  16 16453.8 2961.34   2
   7  -4  17 25032.6 3578.76   1
  -7   3 -17 20716.7 3215.46   1
  -7   4 -17 27590.4 3647.54   1
   7  -3  17 17609.0 3181.80   1
  -3  -4  17 24206.0 3695.78   2
  -4  -3  17 26559.5 3907.16   2
   7  -4  17 19583.3 3367.59   2
   7  -3  17 22103.8 3376.06   2
   4   3 -17 35987.9 4333.41   1
   3   4 -17 28532.3 3691.33   1
  -3  -4  17 21755.4 3562.72   1
   7  -3  18 44315.3 5080.40   1
   7  -4  18 47203.9 5144.78   1
  -7   3 -18 31746.1 4054.08   1
  -7   4 -18 50782.4 5137.25   1
  -4  -3  18 37951.9 4846.12   2
   7  -4  18 35155.7 4532.08   2
  -3  -4  18 35308.3 4589.41   2
   3   4 -18 46704.4 5064.55   1
  -3  -4  18 42629.6 5057.95   1
   7  -3  19-884.148 728.382   1
  -7   5  18 1336.43 947.914   1
   5  -7  18 1301.88 916.411   2
   7  -5 -18 1571.96 1052.58   1
   7  -2 -17 1428.92 1013.73   1
  -7   5  17 1345.14 932.482   1
   2  -7  17 1053.14 723.684   1
   5  -7  17 2655.09 1353.94   1
  -2   7 -17 1202.88 805.760   1
  -7   2  17 1541.06 1093.52   1
   2  -7  17 2143.48 962.134   2
   5  -7  17 1937.10 1183.96   2
  -5   7 -17 1696.77 888.391   1
   7  -5 -17 936.393 863.805   1
   2  -7  16 78137.3 6599.35   1
  -2   7 -16 76368.6 6388.77   1
   5  -7  16 86995.1 6943.09   1
  -7   5  16 78335.6 6544.31   1
   2  -7  16 79087.5 6504.61   2
  -5   7 -16 85372.2 6628.21   1
   7  -5 -16 71307.2 6070.70   1
  -7   2  16 80767.0 7031.09   1
   5  -7  16 68444.3 6439.31   2
   7  -2 -16 83486.3 6498.06   1
   7  -2 -15 673.364 814.234   1
   2  -7  15 612.173 419.549   1
   5  -7  15 1308.02 874.771   1
  -2   7 -15 1255.00 917.938   1
  -5   7 -15-553.357 585.267   1
  -7   2  15 1250.98 1134.27   1
   2  -7  15-2.00540 648.699   2
   5  -7  15 86.4594 739.295   2
   7  -5 -15 771.075 694.290   1
  -7   5  15 144.814 469.384   1
   7  -2 -14-884.091 740.379   1
   2  -7  14 747.695 743.204   1
   5  -7  14-300.344 469.736   1
  -7   2  14 1331.13 549.885   1
  -2   7 -14 564.827 642.299   1
  -5   7 -14-836.054 945.580   1
   2  -7  14-319.772 688.432   2
   5  -7  14-1997.30 1218.98   2
  -7   5  14 94.0286 508.331   1
   7  -5 -14 35.5771 371.783   1
   7  -2 -13 569.390 661.286   1
   2  -7  13-319.320 557.330   1
   5  -7  13-228.870 476.793   1
  -7   2  13 1953.70 1056.35   1
  -2   7 -13 1171.33 936.111   1
   2  -7  13-270.770 439.797   2
   5  -7  13 59.2902 601.978   2
  -7   5  13 337.258 696.113   1
   7  -5 -13 274.513 579.668   1
  -5   7 -13 682.600 936.751   1
  -7   5  12 98626.2 6922.85   1
   2  -7  12 78247.0 6348.84   1
  -2   7 -12 71130.8 5822.34   1
   5  -7  12 83101.8 6205.10   1
  -5   7 -12 79956.2 6177.16   1
  -7   2  12 86508.6 6281.38   1
   7  -5 -12 71220.1 5795.44   1
   2  -7  12 82480.3 6037.23   2
   7  -2 -12 97274.4 6812.64   1
   5  -7  12 82617.5 6294.37   2
   2  -7  11 2263.78 1098.24   1
  -7   2  11 348.282 460.500   1
   5  -7  11 875.394 376.070   1
  -2   7 -11 1284.83 739.589   1
  -7   5  11 1561.69 1028.57   1
  -5   7 -11 654.940 686.696   1
   2  -7  11 639.143 423.730   2
   7  -5 -11 1539.00 613.892   1
   5  -7  11 227.596 634.901   2
   7  -2 -11 2200.08 992.762   1
  -7   2  10 697.497 894.229   1
  -2   7 -10 829.365 755.353   1
   2  -7  10 278.281 352.584   1
   5  -7  10 1022.87 673.768   1
  -7   5  10 867.458 698.644   1
   2  -7  10 2596.54 1275.82   2
  -5   7 -10 1806.11 864.885   1
   7  -5 -10 1045.37 742.363   1
   5  -7  10 944.458 842.071   2
   7  -2 -10 46.8564 553.146   1
  -7   2   9 3538.17 1219.42   1
   2  -7   9 7313.32 1595.07   1
   5  -7   9 3739.21 1240.82   1
   7  -5  -9 4418.53 1291.68   1
   5  -7   9 3029.05 920.852   2
  -2   7  -9 4709.44 1394.17   1
  -7   5   9 3430.30 1152.57   1
   2  -7   9 4641.34 1348.08   2
  -5   7  -9 5528.07 1432.71   1
   7  -2  -9 4048.61 1392.61   1
   2  -7   8 690097. 20253.0   1
  -7   2   8 674200. 20048.8   1
   5  -7   8 598001. 19381.5   1
  -2   7  -8 704018. 19981.9   1
  -5   7  -8 646506. 19760.1   1
   5  -7   8 593887. 19067.7   2
   7  -5  -8 595460. 19265.5   1
   7  -2  -8 631331. 19702.8   1
  -7   5   8 591555. 19384.2   1
   2  -7   8 632610. 19447.9   2
   2  -7   7 8737.86 1756.73   1
   5  -7   7 7592.73 1627.40   1
  -7   5   7 8005.69 1711.98   1
  -2   7  -7 7870.67 1620.63   1
  -7   2   7 4899.86 1238.23   1
   2  -7   7 6767.52 1353.44   2
   7  -5  -7 5206.63 1307.61   1
   5  -7   7 7658.60 1733.72   2
   7  -2  -7 5823.88 1471.25   1
  -5   7  -7 7116.36 1655.69   1
  -5   7  -6 175.292 538.228   1
  -7   5   6-554.360 936.683   1
   2  -7   6-762.833 656.873   1
   5  -7   6-773.966 507.963   1
   5   2   6-10.3173 264.338   1
   2  -7   6-1055.84 771.256   2
  -2   7  -6-394.345 615.901   1
  -7   2   6-266.592 572.726   1
   7  -5  -6 947.077 866.878   1
   7  -2  -6-100.615 687.284   1
   5  -7   6-283.550 598.408   2
  -5   7  -5 2530.74 848.917   1
   2  -7   5 2797.80 935.286   1
   5  -7   5 4174.92 1331.84   1
  -5  -2  -5 1880.23 666.794   1
  -7   2   5 2305.87 827.536   1
   5   2   5 2578.60 829.115   1
  -2   7  -5 2587.47 909.665   1
   7  -5  -5 2939.55 1016.24   1
   7  -2  -5 3096.21 1075.58   1
   2  -7   5 1391.55 810.683   2
   5  -7   5 2364.74 906.031   2
  -7   5   5 1619.95 653.129   1
   2  -7   4 311759. 11040.6   1
   5  -7   4 296965. 11358.7   1
  -5   7  -4 283898. 11392.8   1
   5   2   4 324575. 10729.2   1
  -7   5   4 304421. 11682.2   1
   7  -2  -4 301085. 11800.2   1
   7  -5  -4 323880. 11737.8   1
   2  -7   4 293328. 11229.8   2
  -7   2   4 317985. 11877.8   1
   5  -7   4 299058. 11163.4   2
  -5  -2  -4 281464. 9893.22   1
  -5  -2  -3 5869.92 1089.90   1
   2  -7   3 3048.86 817.514   2
  -5   7  -3 3570.65 1009.51   1
  -7   2   3 4181.78 1308.92   1
   2  -7   3 5433.61 1168.86   1
   5  -7   3 3883.29 1123.67   1
  -7   5   3 5045.45 1225.18   1
  -2   7  -3 5727.37 1227.87   1
   7  -5  -3 4691.95 1278.55   1
  -2  -5  -3 3102.13 1041.28   2
   5   2   3 3218.77 817.188   1
   7  -2  -3 3221.56 1079.21   1
   5  -7   3 4896.89 1176.72   2
  -2   7  -2 12824.5 1751.58   1
   2  -7   2 6912.01 1228.80   1
  -5  -2  -2 7974.69 1369.34   1
  -5   7  -2 9790.07 1600.67   1
   2  -7   2 8763.39 1541.28   2
  -7   5   2 6721.43 1563.28   1
   5  -7   2 10069.7 1717.36   1
  -2  -5  -2 8509.15 1501.44   2
   5  -7   2 6578.77 1471.89   2
   5   2   2 9306.13 1546.94   1
   7  -5  -2 9242.31 1687.41   1
   7  -2  -2 7905.50 1557.68   1
  -7   2   2 8738.62 1599.04   1
  -7   5   1 8149.52 1567.16   1
   2  -7   1 6471.54 1141.59   1
  -5   7  -1 6331.21 1320.45   1
  -5  -2  -1 5771.16 1221.22   1
   5  -7   1 6474.14 1360.24   1
  -2  -5  -1 5879.48 1399.95   2
   7  -5  -1 6456.22 1555.83   1
  -7   2   1 5615.01 1401.39   1
  -2   7  -1 7928.71 1276.27   1
   5   2   1 6704.47 1268.85   1
   7  -2  -1 6860.98 1434.47   1
   2  -7   1 9045.09 1638.48   2
   5  -7   1 8182.54 1566.57   2
   2  -7   0 572263. 13996.9   1
  -7   5   0 536858. 16301.0   1
  -2   7   0 430879. 13380.8   1
   5  -7   0 562400. 15641.3   1
  -7   2   0 567761. 16477.7   1
   7  -5   0 552675. 16665.1   1
   7  -2   0 462479. 15806.2   1
   5   2   0 534297. 15765.2   1
  -2  -5   0 548163. 16085.0   2
   2  -7   0 504883. 15277.4   2
   5  -7   0 598466. 16246.4   2
  -5   7   0 505863. 15483.0   1
  -5  -2   0 446440. 14817.3   1
   2   5  -1-59.5934 255.327   1
  -7   2  -1-170.692 659.407   1
   5   2  -1-316.245 507.813   1
  -5  -2   1 356.521 338.126   1
   5  -7  -1-204.640 370.223   1
  -2  -5   1 61.3254 289.078   1
  -5   7   1 925.385 618.557   1
   7  -5   1 502.138 385.971   1
  -2  -5   1 833.890 727.023   2
   7  -2   1 427.548 504.504   1
   2  -7  -1 168.455 570.985   2
   5  -7  -1-512.191 569.662   2
  -7   5  -1-12.6592 307.589   1
  -7   2  -2 565.653 563.045   1
   2   5  -2 669.883 475.317   1
  -2  -5   2-150.999 524.626   2
   5  -7  -2 199.707 215.131   1
   2  -7  -2-332.710 424.914   2
   7  -5   2 478.625 305.294   1
   7  -2   2 121.189 590.496   1
  -7   5  -2-554.078 490.159   1
  -5  -2   2-751.390 570.510   2
  -2  -5   2-275.109 342.831   1
   5   2  -2 679.582 713.159   1
   5  -7  -2-9.87201 347.008   2
  -5  -2   2 790.105 606.803   1
  -5   7   2-441.509 456.230   1
  -5  -2   3 5677.94 1408.15   2
   2   5  -3 6481.36 1259.36   1
   2  -7  -3 7770.10 1282.06   2
  -5   7   3 6170.98 1382.76   1
  -2  -5   3 7769.33 1324.50   1
   7  -2   3 6549.51 1432.34   1
   7  -5   3 7702.47 1641.24   1
   5  -7  -3 6571.40 1228.34   1
  -2  -5   3 7154.06 1593.48   2
  -7   5  -3 7376.33 1528.01   1
  -7   2  -3 6446.50 1536.41   1
   5  -7  -3 6400.18 1293.74   2
   5   2  -3 5996.15 1313.25   1
  -5  -2   3 6614.79 1367.59   1
  -7   2  -4 613945. 18044.8   1
   5  -7  -4 593799. 16567.1   2
  -5   7   4 733737. 18159.3   1
  -5  -2   4 625146. 17947.6   1
  -5  -2   4 593469. 18662.7   2
   7  -5   4 620065. 18644.5   1
   2   5  -4 593704. 17624.8   1
   7  -2   4 550386. 17829.5   1
   5  -7  -4 670264. 17631.6   1
  -2  -5   4 551641. 17918.7   2
   5   2  -4 542145. 17743.4   1
  -7   5  -4 594026. 18064.8   1
  -2  -5   4 633217. 17861.3   1
  -5   7   5 15254.5 2099.04   1
   7  -2   5 16123.5 2385.61   1
  -5  -2   5 15710.5 2243.14   1
   5  -7  -5 15474.2 2107.53   1
  -7   5  -5 16638.4 2393.29   1
   7  -5   5 16878.6 2345.87   1
  -7   2  -5 14590.3 2129.41   1
  -2  -5   5 13514.0 2207.51   2
   5   2  -5 16626.2 2443.27   1
   2   5  -5 15460.7 2097.07   1
  -5  -2   5 14709.8 2318.35   2
   7  -5   5 18751.2 2556.07   2
  -2  -5   5 14993.8 2212.60   1
  -5   7   6 20260.3 2406.43   1
   7  -5   6 18505.5 2628.11   1
   2   5  -6 20784.2 2468.42   1
   7  -2   6 20788.5 2743.57   1
   5  -7  -6 18129.0 2295.41   1
  -5  -2   6 20060.3 2597.27   1
  -5  -2   6 21484.4 2916.61   2
  -2  -5   6 20154.2 2687.14   2
  -7   5  -6 18647.6 2532.08   1
   5   2  -6 20139.0 2642.74   1
  -7   2  -6 15923.2 2325.81   1
   7  -5   6 20845.7 2866.75   2
  -2  -5   6 21672.2 2631.74   1
   5   2  -7 1504.45 778.141   1
   2   5  -7 1133.69 658.185   1
  -7   5  -7 1471.89 775.322   1
  -7   2  -7 742.274 356.006   1
   7  -5   7 2138.37 891.348   1
  -2  -5   7 1381.89 435.056   2
   7  -2   7 1446.23 774.772   1
  -5   7   7 1348.78 615.436   1
  -2  -5   7 1895.62 842.986   1
   5  -7  -7 1583.71 772.514   1
  -5  -2   7 144.531 516.334   2
   7  -5   7 475.216 400.372   2
  -5  -2   7 2615.98 1051.11   1
   7  -5   8 437201. 15104.7   1
   2   5  -8 434742. 14965.9   1
   7  -2   8 490686. 15702.9   1
  -5   7   8 436268. 14301.6   1
   5  -7  -8 474786. 14131.3   1
  -5  -2   8 379980. 14836.8   2
  -2  -5   8 381035. 14541.2   2
  -7   5  -8 435082. 14950.8   1
  -7   2  -8 390855. 14205.1   1
   5   2  -8 398173. 14611.9   1
  -5  -2   8 365205. 14258.8   1
   7  -5   8 415584. 14753.7   2
  -2  -5   8 382464. 14420.8   1
   5   2  -9 4539.93 1445.88   1
  -2  -5   9 5509.97 1422.54   1
  -7   5  -9 5457.89 1436.32   1
  -7   2  -9 4113.40 1325.41   1
   2   5  -9 4534.48 1323.72   1
   7  -5   9 5513.59 1361.23   1
   7  -2   9 6928.53 1707.74   1
  -5  -2   9 4590.97 1432.55   1
  -5  -2   9 3719.57 1428.53   2
  -2  -5   9 3108.14 1126.60   2
  -5   7   9 3391.67 1211.30   1
   7  -5   9 4683.61 1266.64   2
   7  -5  10 26610.0 3366.06   1
   7  -2  10 27395.1 3350.37   1
  -2  -5  10 24529.6 3094.75   2
  -5  -2  10 24492.5 3370.21   2
  -7   5 -10 26750.3 3355.06   1
  -7   2 -10 29735.6 3405.21   1
   5   2 -10 26869.3 3283.67   1
   7  -5  10 25005.6 3120.37   2
  -5  -2  10 24814.8 3258.97   1
   2   5 -10 23287.0 3135.14   1
   7  -2  10 15293.8 2796.06   2
  -2  -5  10 30301.8 3580.69   1
  -7   5 -11-175.052 488.086   1
  -7   2 -11-307.831 421.213   1
  -5  -2  11-634.957 878.098   1
   5   2 -11-1323.27 1041.83   1
  -2  -5  11-403.685 474.239   1
   2   5 -11 1038.61 799.170   1
   7  -5  11-288.388 342.286   1
   7  -2  11-284.825 497.898   1
   7  -2  11 382.190 608.498   2
  -5  -2  11 586.114 485.372   2
  -2  -5  11 407.217 605.726   2
   7  -5  11 1098.58 764.607   2
  -5  -2  12 73310.1 6106.59   1
   7  -5  12 73759.4 5877.49   1
   7  -2  12 71635.7 5805.30   1
   5   2 -12 71606.3 5641.11   1
   7  -5  12 78275.8 5877.29   2
  -7   5 -12 85652.6 6124.81   1
  -7   2 -12 68059.9 5638.79   1
  -5  -2  12 70123.9 6044.88   2
   2   5 -12 74541.8 5870.40   1
  -2  -5  12 76713.5 5947.66   2
   7  -2  12 61719.2 5431.39   2
  -2  -5  12 73335.9 6080.45   1
  -5  -2  13-444.579 1001.63   2
  -2  -5  13-621.835 747.840   1
   5   2 -13 776.427 847.187   1
   2   5 -13 820.511 805.842   1
   7  -5  13-222.995 570.740   1
   7  -2  13 30.8146 508.571   1
  -5  -2  13-662.654 682.542   1
  -2  -5  13-88.8466 795.643   2
  -7   2 -13-387.700 755.361   1
  -7   5 -13 333.081 445.765   1
   7  -5  13-844.835 863.191   2
   7  -2  13-11.7789 479.775   2
  -2  -5  14 1581.53 896.342   1
   5   2 -14 2303.68 1070.14   1
   2   5 -14 1660.78 876.593   1
   7  -5  14 714.756 767.868   1
   7  -2  14 2024.66 796.093   1
  -5  -2  14 649.289 565.570   1
  -2  -5  14 1026.01 699.858   2
  -5  -2  14 362.972 313.192   2
  -7   5 -14 2010.19 1160.42   1
  -7   2 -14 2145.79 1109.71   1
   7  -5  14 1740.54 1028.77   2
   7  -2  14 822.339 869.594   2
  -2  -5  15 1682.53 571.883   1
   5   2 -15 629.172 296.313   1
   2   5 -15 2025.28 1197.85   1
   7  -5  15-1421.68 1173.68   1
   7  -2  15-84.0072 626.697   1
  -5  -2  15 169.623 398.296   2
  -5  -2  15-128.244 566.022   1
  -7   5 -15 1414.78 801.739   1
  -7   2 -15 832.360 738.587   1
   7  -5  15-44.9903 715.625   2
   7  -2  15 719.498 442.649   2
  -2  -5  15 298.166 286.751   2
  -5  -2  16 109694. 7869.94   1
   7  -2  16 96326.8 7349.96   1
   7  -5  16 113861. 7857.29   1
  -7   2 -16 112280. 7586.32   1
  -7   5 -16 105214. 7413.80   1
   7  -5  16 100283. 7467.73   2
  -5  -2  16 100414. 7755.15   2
   5   2 -16 125123. 8110.23   1
  -2  -5  16 104575. 7657.60   2
   7  -2  16 78491.3 6618.74   2
   2   5 -16 106831. 7462.83   1
  -2  -5  16 96521.9 7469.94   1
  -2  -5  17 2979.09 1291.17   1
   5   2 -17 1958.59 1104.07   1
   2   5 -17 2710.77 1386.72   1
   7  -2  17 1712.20 1201.84   1
   7  -5  17 2061.06 758.873   1
  -5  -2  17 3180.94 1329.68   1
  -5  -2  17 4475.02 1667.41   2
  -2  -5  17 2899.85 1189.72   2
  -7   5 -17 2659.21 1184.52   1
   7  -5  17 2486.72 1605.50   2
   7  -5  18-690.321 1094.96   1
  -7   5 -18-180.274 267.362   1
   7  -5  18-194.667 652.392   2
  -2  -5  18-559.354 354.921   2
   7  -1 -17 3585.47 1242.67   1
   1  -7  17 3239.07 1178.44   1
   6  -7  17 3285.70 1411.06   1
  -1   7 -17 4428.38 1596.75   1
  -7   1  17 3966.13 1620.08   1
  -6   7 -17 3236.56 1411.59   1
   1  -7  17 3177.21 1259.79   2
   6  -7  17 1698.27 1174.04   2
   7  -1 -16 10911.0 2413.35   1
   1  -7  16 9531.27 2318.68   1
   6  -7  16 11324.9 2456.91   1
  -1   7 -16 8992.48 2225.19   1
  -7   1  16 17438.0 2993.88   1
  -7   6  16 9181.46 2443.59   1
  -6   7 -16 10379.0 2259.98   1
   1  -7  16 9552.81 2109.09   2
   6  -7  16 7425.63 2254.83   2
   1  -7  15 7575.39 1906.50   2
   7  -1 -15 8740.48 2006.28   1
   1  -7  15 5709.74 1754.73   1
   6  -7  15 7125.18 1772.32   1
   6  -7  15 5340.86 2032.19   2
  -1   7 -15 6209.96 1645.00   1
  -7   1  15 7974.33 2007.57   1
  -7   6  15 4867.47 1729.39   1
  -7   1  15 3569.61 1351.69   2
  -6   7 -15 6641.00 1900.46   1
   7  -6 -15 6366.06 1738.92   1
   1  -7  14 34550.3 4159.75   1
  -1   7 -14 47405.6 4720.28   1
   6  -7  14 40323.2 4456.10   1
  -6   7 -14 39171.5 4255.33   1
  -7   1  14 48532.0 4897.43   1
  -7   1  14 33033.0 4275.25   2
   1  -7  14 34681.0 4139.04   2
   7  -1 -14 38367.3 4444.28   1
   6  -7  14 30393.4 4435.77   2
   7  -6 -14 34867.2 4031.43   1
  -7   6  14 40330.0 4616.39   1
   7  -1 -13 14475.6 2518.34   1
   1  -7  13 16216.6 2907.76   1
   6  -7  13 16568.7 2752.04   1
  -7   1  13 20737.9 3083.30   1
  -1   7 -13 12591.5 2486.24   1
  -7   1  13 10039.6 2243.96   2
  -7   6  13 13409.9 2686.77   1
   1  -7  13 14015.4 2602.77   2
  -6   7 -13 14640.9 2581.14   1
   7  -6 -13 16281.6 2696.62   1
   6  -7  13 13599.5 2682.74   2
   1  -7  12 8816.94 2062.70   1
   6  -7  12 7458.11 1763.32   1
  -7   1  12 12941.7 2407.23   1
  -1   7 -12 11491.7 2259.81   1
  -7   6  12 10174.7 2306.03   1
  -7   1  12 5163.20 1489.02   2
   1  -7  12 8702.79 1952.14   2
   7  -1 -12 10690.8 2290.73   1
  -6   7 -12 11462.3 2225.94   1
   7  -6 -12 10369.2 2063.05   1
   6  -7  12 9958.29 2104.83   2
   1  -7  11 29915.6 3742.37   1
  -1   7 -11 34816.8 3994.24   1
   6  -7  11 32223.4 3764.27   1
  -7   1  11 28531.6 3573.39   1
  -6   7 -11 31916.3 3649.22   1
   7  -1 -11 26252.6 3480.66   1
   7  -6 -11 32195.2 3720.83   1
   1  -7  11 31592.2 3556.34   2
   6  -7  11 31096.8 3694.05   2
  -7   6  11 26034.1 3578.19   1
   1  -7  10 97127.4 6876.68   1
  -1   7 -10 112343. 7177.58   1
   6  -7  10 131723. 7714.33   1
  -7   1  10 116886. 7208.82   1
  -6   7 -10 119067. 7248.82   1
   7  -6 -10 99840.7 6754.03   1
  -7   6  10 118708. 7608.61   1
   1  -7  10 117947. 7279.92   2
   7  -1 -10 121679. 7448.22   1
   6  -7  10 113130. 7076.32   2
   1  -7   9 77983.2 5748.34   1
  -1   7  -9 62884.1 5150.97   1
   6  -7   9 72711.4 5482.53   1
  -7   1   9 66714.2 5159.43   1
   7  -1  -9 63121.5 5158.15   1
  -6   7  -9 65116.4 5270.14   1
   7  -6  -9 65205.2 5260.14   1
   1  -7   9 61126.2 5104.48   2
  -7   6   9 70595.8 5451.88   1
   6  -7   9 60189.5 4990.91   2
  -6   7  -8 461.924 565.312   1
  -7   1   8 1439.41 869.167   1
   1  -7   8 1211.89 835.900   1
  -7   6   8 1634.68 929.382   1
   6  -7   8 540.957 596.807   1
   6   1   8 996.756 695.752   1
  -1   7  -8 887.871 779.262   1
   7  -6  -8-92.3335 524.028   1
   1  -7   8 498.672 432.751   2
   6  -7   8 1686.46 1008.64   2
   7  -1  -8 212.678 589.048   1
   1  -7   7 234522. 9991.33   1
  -7   1   7 164140. 8723.14   1
  -1   7  -7 205611. 9451.05   1
   6  -7   7 199413. 9533.08   1
   6   1   7 245806. 9573.16   1
  -6   7  -7 194474. 9551.41   1
   7  -6  -7 190073. 9097.25   1
  -7   6   7 242563. 10263.4   1
   7  -1  -7 202138. 9503.84   1
   1  -7   7 191764. 9255.83   2
  -6  -1  -7 182599. 8239.29   1
   6  -7   7 204624. 9291.95   2
   1  -7   6 310488. 11685.7   1
  -1   7  -6 242485. 10549.9   1
   6  -7   6 209838. 10253.6   1
   6   1   6 277931. 10573.8   1
  -7   6   6 320056. 11944.0   1
   7  -6  -6 323889. 11706.9   1
  -6   7  -6 305505. 11804.5   1
   7  -1  -6 281633. 11466.2   1
   1  -7   6 298842. 11552.0   2
   6  -7   6 278694. 11097.7   2
  -6  -1  -6 268300. 10199.1   1
  -7   1   6 271024. 11084.7   1
   1  -7   5 116797. 6552.26   1
   6  -7   5 116913. 6728.51   1
   6   1   5 115139. 6386.13   1
  -7   6   5 120789. 7011.00   1
   7  -6  -5 104788. 6291.05   1
   7  -1  -5 110734. 6655.64   1
  -6   7  -5 127777. 7122.59   1
   1  -7   5 108891. 6498.77   2
   6  -7   5 119275. 6620.71   2
  -7   1   5 124234. 6954.22   1
  -6  -1  -5 113271. 5877.03   1
  -6  -1  -4 103186. 5561.55   1
   1  -7   4 104234. 5775.95   1
   6  -7   4 91776.9 5722.75   2
  -1   7  -4 95897.9 5585.79   1
   6  -7   4 90771.7 5828.33   1
  -7   6   4 89889.3 5761.05   1
   6   1   4 107503. 5933.59   1
   7  -6  -4 88422.1 5623.01   1
   7  -1  -4 82828.2 5697.31   1
   1  -7   4 99893.6 6002.81   2
  -6   7  -4 90496.3 5743.46   1
  -7   1   4 94858.5 5935.63   1
  -1  -6  -4 90325.6 5259.33   2
  -6  -1  -3 4287.42 1043.72   1
   1  -7   3 3007.85 917.433   1
  -7   6   3 2597.43 1007.27   1
  -6   7  -3 1839.13 674.602   1
  -7   1   3 2684.19 751.490   1
   7  -1  -3 1696.92 740.212   1
   6  -7   3 1755.62 837.696   1
  -1   7  -3 3196.43 972.954   1
   1  -7   3 2187.94 930.891   2
   7  -6  -3 3051.25 968.918   1
   6   1   3 1194.56 252.637   1
  -1  -6  -3 1289.38 665.518   2
   6  -7   3 2241.11 468.126   2
  -7   1   2 343681. 12299.8   1
  -1   7  -2 315261. 10752.0   1
  -7   6   2 337610. 12261.2   1
  -6  -1  -2 329351. 11387.3   1
   6  -7   2 349329. 12182.9   1
  -1  -6  -2 349333. 11910.1   2
   7  -6  -2 352145. 12490.6   1
   6   1   2 326030. 11811.3   1
   7  -1  -2 338583. 12431.5   1
   1  -7   2 346363. 12074.7   2
  -6   7  -2 314303. 12005.1   1
   6  -7   2 317369. 11788.1   2
  -7   6   1 355.628 244.829   1
  -6  -1  -1 780.689 367.331   1
  -6   7  -1 1756.32 801.445   1
   6  -7   1 1099.06 393.124   1
   7  -6  -1 2271.43 922.764   1
   6   1   1 916.445 590.064   1
   1  -7   1 456.045 412.883   2
   7  -1  -1 951.091 407.466   1
  -1  -6  -1 286.352 447.367   2
  -7   1   1 896.839 639.830   1
   6  -7   1 2117.11 858.263   2
  -7   6   0 47315.9 3995.07   1
   6  -7   0 42020.7 3688.03   1
  -7   1   0 45832.6 3758.39   1
   7  -6   0 46990.1 4023.19   1
  -6  -1   0 56609.6 4130.40   1
   7  -1   0 48754.3 4080.60   1
   6   1   0 51215.9 4095.67   1
  -1  -6   0 47278.6 3875.51   2
   1  -7   0 51616.3 3885.91   2
   6  -7   0 42698.2 3786.09   2
  -6   7   0 51328.9 4035.06   1
  -7   6  -1 203440. 9193.64   1
  -6  -1   1 227273. 9408.99   1
  -7   1  -1 260353. 9906.64   1
   6   1  -1 191146. 8861.97   1
   6  -7  -1 212568. 9079.52   1
   7  -6   1 253803. 10037.4   1
  -1  -6   1 217366. 9269.06   2
   7  -1   1 243415. 9890.75   1
   1  -7  -1 233257. 9010.36   2
   6  -7  -1 229821. 9550.42   2
   7  -6   1 263044. 10562.9   2
  -6   7   1 185583. 8775.67   1
  -6   7   2 211273. 8606.96   1
  -7   1  -2 148680. 7392.46   1
   1  -7  -2 144993. 6842.92   2
  -1  -6   2 161517. 7958.46   2
   7  -6   2 198917. 8733.50   1
   6  -7  -2 186877. 8006.27   1
   7  -1   2 141771. 7614.39   1
  -6  -1   2 160671. 7658.57   1
   6   1  -2 163240. 8003.62   1
   6  -7  -2 186175. 8366.15   2
   1   6  -2 180742. 7203.02   1
   7  -6   2 179617. 8547.85   2
  -7   6  -2 164351. 7968.19   1
  -7   1  -3 338718. 11267.1   1
  -6   7   3 260611. 10248.7   1
   7  -6   3 266990. 10902.5   1
   7  -1   3 287479. 10973.8   1
   6  -7  -3 318005. 10994.7   1
  -1  -6   3 266951. 10757.3   2
   6   1  -3 204378. 9874.96   1
   6  -7  -3 282724. 10999.8   2
  -6  -1   3 217835. 9860.55   1
  -7   6  -3 264551. 10595.9   1
   7  -6   3 281206. 11171.0   2
   1   6  -3 269874. 9851.35   1
  -1  -6   3 267224. 9741.83   1
  -1  -6   4 11890.0 1806.13   1
  -6   7   4 7787.70 1597.10   1
   6  -7  -4 11108.6 2020.95   2
   1   6  -4 9124.66 1615.04   1
   6  -7  -4 9884.78 1893.69   1
  -7   6  -4 12004.9 2027.53   1
   7  -6   4 10394.1 1998.93   1
   7  -1   4 10857.4 1807.12   1
  -6  -1   4 8891.08 1835.87   2
  -1  -6   4 10690.2 1863.97   2
  -7   1  -4 11970.8 1937.58   1
  -6  -1   4 10059.5 1878.24   1
   6   1  -4 8974.85 1618.12   1
   7  -6   4 9396.10 1873.69   2
  -1  -6   5 103020. 5926.15   1
  -6  -1   5 93426.0 5830.64   1
  -6   7   5 99509.4 5999.76   1
   7  -6   5 105500. 6331.48   1
   7  -1   5 89482.7 5985.36   1
   6  -7  -5 100238. 5846.95   1
  -6  -1   5 106350. 6641.54   2
  -1  -6   5 86607.7 5845.47   2
   6   1  -5 94671.6 6110.13   1
  -7   6  -5 107733. 6375.01   1
   7  -6   5 107777. 6380.02   2
  -7   1  -5 92690.6 5645.24   1
   1   6  -5 114113. 6281.98   1
  -1  -6   6 362924. 13048.1   1
  -6  -1   6 372160. 13240.5   1
   7  -6   6 398886. 13912.4   1
   7  -1   6 323236. 12698.7   1
  -6   7   6 346305. 12682.9   1
   6  -7  -6 299873. 12004.3   1
  -6  -1   6 372118. 14086.7   2
  -1  -6   6 373683. 13463.2   2
  -7   6  -6 364573. 13454.8   1
   6   1  -6 376820. 13631.4   1
   7  -6   6 390004. 13642.9   2
  -7   1  -6 390705. 13166.8   1
   1   6  -6 346410. 12720.1   1
  -1  -6   7 71587.7 5328.81   1
  -1  -6   7 72813.7 5483.29   2
   7  -6   7 66567.5 5276.63   1
   7  -1   7 76666.0 5329.95   1
  -6  -1   7 73085.5 5295.62   1
  -6   7   7 84241.9 5519.53   1
   6  -7  -7 79830.3 5240.37   1
  -6  -1   7 69292.9 5534.37   2
  -7   6  -7 74337.8 5470.80   1
   6   1  -7 69350.7 5357.70   1
  -7   1  -7 78258.7 5331.54   1
   7  -6   7 71416.7 5165.86   2
   1   6  -7 78987.7 5420.61   1
  -1  -6   8 89111.7 6044.05   1
   7  -6   8 84054.8 5854.66   1
   7  -1   8 90267.4 6066.97   1
  -6  -1   8 86663.4 5990.30   1
  -6   7   8 87691.3 5958.12   1
  -1  -6   8 78883.7 5731.91   2
   6  -7  -8 69780.1 5120.18   1
   6   1  -8 87035.9 6041.46   1
  -7   6  -8 96310.2 6238.33   1
  -6  -1   8 80323.7 6118.94   2
  -7   1  -8 58733.2 4813.17   1
   7  -6   8 85190.9 5769.64   2
   1   6  -8 90227.3 6027.82   1
  -1  -6   9 26098.3 3317.90   1
   7  -6   9 20903.1 3002.17   1
   7  -1   9 30223.1 3457.24   1
  -6   7   9 37196.3 3836.30   1
  -6  -1   9 30461.9 3446.21   1
  -1  -6   9 24298.4 3191.76   2
   6  -7  -9 21303.7 2879.14   1
  -7   6  -9 28088.4 3459.00   1
  -6  -1   9 26315.1 3512.86   2
   6   1  -9 26844.5 3339.71   1
  -7   1  -9 31122.1 3448.68   1
   7  -6   9 25954.7 3136.06   2
   1   6  -9 26146.4 3111.49   1
  -1  -6  10 101957. 6853.66   1
  -7   1 -10 129899. 7300.39   1
   7  -6  10 95896.3 6580.55   1
   7  -1  10 122507. 7289.29   1
  -7   6 -10 97929.5 6685.46   1
   6  -7 -10 57783.7 5105.82   1
  -6  -1  10 101326. 6776.88   1
  -6   7  10 90953.8 6439.39   1
  -1  -6  10 96213.7 6533.71   2
   6   1 -10 94469.7 6551.79   1
   7  -6  10 105868. 6595.93   2
  -6  -1  10 77629.5 6394.77   2
   1   6 -10 96252.9 6517.38   1
  -7   1 -11 8036.44 1796.58   1
  -1  -6  11 6402.86 1688.62   1
   1   6 -11 9703.37 1999.80   1
  -6   7  11 8650.26 2234.03   1
   7  -6  11 7659.03 1814.17   1
   7  -1  11 5449.09 1643.48   1
   6   1 -11 9005.47 1882.49   1
  -6  -1  11 7088.81 1918.20   2
  -1  -6  11 6425.86 1653.10   2
   7  -6  11 7782.67 1766.59   2
  -6  -1  11 8660.53 2026.25   1
   7  -1  11 4103.34 1525.66   2
  -7   6 -11 7218.87 1770.61   1
   6   1 -12 15016.2 2600.54   1
  -6  -1  12 15873.9 2695.95   1
  -1  -6  12 11142.5 2190.23   1
   1   6 -12 12938.4 2427.08   1
   7  -6  12 14444.3 2560.19   1
   7  -1  12 12791.9 2446.90   1
   7  -6  12 12844.7 2367.94   2
  -6  -1  12 14069.5 2585.27   2
  -1  -6  12 12893.5 2334.51   2
  -7   6 -12 13979.8 2460.87   1
   7  -1  12 7703.10 1987.04   2
  -7   1 -12 13028.1 2341.17   1
   6   1 -13 11250.1 2234.51   1
  -1  -6  13 6210.19 1739.36   1
  -6  -1  13 11823.2 2352.14   1
   1   6 -13 4104.45 1191.76   1
   7  -6  13 10077.0 2182.00   1
   7  -1  13 8068.79 2058.78   1
  -6  -1  13 5468.51 1770.18   2
  -1  -6  13 9094.50 1919.97   2
  -7   6 -13 12261.3 2330.62   1
   7  -6  13 8317.85 1918.17   2
  -7   1 -13 7487.30 1829.48   1
   7  -1  13 5774.62 1834.03   2
  -1  -6  14 47961.7 5136.13   1
   7  -6  14 45864.9 4776.74   1
   7  -1  14 43715.3 4713.95   1
  -7   6 -14 53389.6 4960.41   1
  -6  -1  14 41476.3 4791.78   2
  -6  -1  14 56670.0 5277.05   1
   6   1 -14 55323.6 5016.76   1
   7  -6  14 41042.3 4740.36   2
   1   6 -14 43966.0 4646.40   1
  -1  -6  14 51438.2 4997.43   2
  -1  -6  15 20748.4 3396.21   1
   7  -6  15 27304.7 3698.39   1
  -7   6 -15 24444.3 3415.72   1
  -1  -6  15 24549.8 3604.73   2
  -6  -1  15 23025.5 3535.58   2
  -6  -1  15 32516.6 3960.48   1
   6   1 -15 25020.6 3452.53   1
   7  -6  15 21284.7 3552.54   2
   1   6 -15 21396.3 3298.58   1
   6   1 -16-287.632 1053.89   1
  -1  -6  16 800.517 595.910   1
   1   6 -16 705.771 596.579   1
   7  -6  16 1391.50 1088.07   1
  -1  -6  16 1967.84 903.968   2
  -6  -1  16 1935.63 1184.66   1
  -6  -1  16 1062.73 1128.93   2
  -7   6 -16 777.507 785.333   1
   7  -6  16 1197.28 660.482   2
  -1  -6  17 21243.3 3534.59   1
   7  -6  17 26270.7 3782.85   1
  -7   6 -17 25210.0 3603.84   1
  -6  -1  17 16962.3 3261.99   2
  -1  -6  17 20474.3 3256.19   2
   7  -6  17 23572.7 3865.09   2
  -6  -1  17 32998.9 4075.91   1
   6   1 -17 25915.4 3669.22   1
   1   6 -17 24920.6 3573.62   1
  -7   7   0-148.295 497.623   1
   7   0   0-190.288 448.224   1
   7  -7   0 86.3651 452.021   1
  -7   0   0 1536.13 848.008   1
   0  -7   0 280.601 320.495   2
   7  -7   0-538.134 757.225   2
  -7   0  -1 1838.64 786.110   1
   7  -7   1 1487.93 830.527   1
   7  -7  -1 959.841 696.887   1
  -7   7  -1 1676.20 714.478   1
   0  -7  -1 1069.16 600.302   2
   7   0   1 1332.32 728.468   1
   0  -7   1 2107.89 974.627   2
  -7   7   1 1231.78 700.052   1
  -7   0   1 1762.80 856.855   1
   7  -7   1 1462.35 628.752   2
   7   0  -1 647.783 283.913   1
   7  -7  -1 1470.34 874.201   2
  -7   7   2 134836. 7413.32   1
  -7   0  -2 148665. 7511.94   1
   7  -7   2 152238. 7835.96   1
   7  -7  -2 199717. 8647.66   1
   7   0   2 148488. 7768.42   1
   7   0  -2 168982. 8382.81   1
  -7   0   2 176941. 8252.72   1
   0  -7   2 179765. 8292.94   2
   0  -7  -2 160833. 7516.20   2
   7  -7   2 187886. 8668.04   2
  -7   7  -2 176380. 8302.08   1
   7  -7  -2 127270. 8290.48   2
  -7   0  -3 314336. 10966.9   1
  -7   7   3 272451. 10960.7   1
   7  -7   3 298149. 11325.1   1
   0  -7   3 280104. 11027.6   2
   7   0   3 316222. 11587.5   1
   7  -7  -3 288039. 11042.9   1
   7   0  -3 296552. 11531.0   1
  -7   0   3 208721. 9874.81   1
  -7   7  -3 239606. 10590.5   1
   7  -7   3 221843. 10216.0   2
   7  -7  -3 239866. 11490.6   2
  -7   0  -4 96669.5 5756.78   1
  -7   7   4 95467.9 5994.74   1
   7  -7   4 91816.6 6057.41   1
   7   0   4 70798.7 5203.43   1
   7  -7  -4 88541.9 5812.27   1
   7   0  -4 87141.6 5942.57   1
  -7   7  -4 101927. 6321.87   1
  -7   0   4 91354.5 5925.06   1
   7  -7   4 98534.1 5934.85   2
   7  -7  -4 100104. 7107.46   2
   0  -7   4 90033.8 5907.40   2
   0   7  -4 98314.1 5693.70   1
   0  -7   5 127119. 6862.70   1
   7  -7   5 125593. 7279.10   1
  -7   7   5 143745. 7544.35   1
   7   0   5 108161. 6682.35   1
   7  -7  -5 137577. 7188.13   1
   7  -7   5 123064. 6965.54   2
   0  -7   5 128773. 7324.35   2
   7   0  -5 123397. 7187.27   1
  -7   7  -5 127634. 7364.74   1
  -7   0   5 131829. 7275.12   1
  -7   0  -5 122319. 6592.96   1
   0   7  -5 138148. 7092.44   1
   0   7  -6 246867. 10261.4   1
   0  -7   6 241754. 10203.7   1
  -7   0   6 237008. 10286.9   1
   7  -7   6 249784. 10693.7   1
   7   0   6 228861. 10042.3   1
  -7   7   6 186125. 9441.87   1
   7  -7  -6 229331. 10005.0   1
  -7   7  -6 231824. 10387.0   1
   7   0  -6 234461. 10390.7   1
   0  -7   6 207148. 9876.63   2
   7  -7   6 284118. 10905.9   2
  -7   0  -6 186893. 8881.20   1
   0   7  -7 16668.9 2428.36   1
   0  -7   7 23975.0 3042.30   1
  -7   0   7 21307.2 2842.22   1
   7   0  -7 21988.0 2856.05   1
   7   0   7 19408.9 2664.53   1
  -7   7   7 17336.6 2892.38   1
   7  -7   7 18653.1 2685.74   1
   7  -7  -7 15222.9 2371.10   1
  -7   7  -7 20513.0 2840.73   1
   0  -7   7 19451.6 2786.85   2
  -7   0  -7 16750.6 2386.15   1
   7  -7   7 18663.9 2619.70   2
   0   7  -8 19685.7 2648.24   1
  -7   0   8 17106.1 2682.46   1
  -7   7  -8 16896.1 2696.24   1
   0  -7   8 13265.2 2281.30   1
   7  -7   8 18595.7 2809.26   1
   0  -7   8 13622.6 2368.99   2
   7   0   8 17892.1 2668.86   1
  -7   7   8 15436.4 2560.34   1
  -7   0  -8 14616.6 2331.74   1
   7  -7  -8 13283.8 2270.37   1
   7  -7   8 15710.7 2404.52   2
   7   0  -8 16115.6 2614.51   1
   0  -7   9 56422.0 4902.33   1
   0   7  -9 53779.7 4787.62   1
   7  -7   9 53742.7 4829.52   1
  -7   0   9 57764.1 4819.25   1
   7   0   9 50990.3 4496.86   1
   7   0  -9 48012.1 4672.18   1
  -7   7  -9 54758.9 4993.34   1
  -7   7   9 61809.4 5147.71   1
   0  -7   9 54582.5 4811.20   2
   7  -7  -9 60351.8 4991.71   1
  -7   0   9 49472.5 4814.35   2
  -7   0  -9 49020.9 4356.17   1
   7  -7   9 44938.5 4344.71   2
   0   7 -10 101655. 6800.56   1
   0  -7  10 91754.0 6567.11   1
   7  -7  10 103107. 6814.23   1
   7   0  10 95645.4 6439.05   1
  -7   0  10 97830.3 6600.72   1
  -7   7 -10 99405.8 6706.56   1
  -7   0  10 79482.6 6658.68   2
   7  -7 -10 83935.0 6232.84   1
   0  -7  10 91443.6 6379.67   2
   7   0 -10 93768.9 6655.37   1
   7  -7  10 94138.2 6403.24   2
  -7   7  10 78614.2 6393.51   1
   7   0 -11 15707.3 2634.41   1
   0  -7  11 12844.0 2421.02   1
  -7   0  11 14856.2 2889.98   2
  -7   7  11 12659.3 2601.19   1
   0   7 -11 15331.3 2579.60   1
   7  -7  11 14191.4 2586.47   1
  -7   0  11 15377.2 2692.40   1
   0  -7  11 13334.6 2428.81   2
   7  -7 -11 13291.5 2510.74   1
   7  -7  11 14263.1 2402.07   2
  -7   7 -11 14874.8 2473.21   1
   7   0 -12 6604.68 1642.63   1
   0  -7  12 6192.00 1701.87   1
   7  -7  12 6927.90 1705.98   1
   0   7 -12 4632.63 1443.85   1
  -7   7  12 5338.99 2055.06   1
  -7   0  12 6380.36 1513.86   1
  -7   0  12 4536.48 1626.72   2
   0  -7  12 5459.11 1595.80   2
   7  -7 -12 3361.05 1415.10   1
  -7   7 -12 7380.91 1847.24   1
   7  -7  12 8185.15 1863.95   2
   7   0  12 268.741 637.747   2
   7   0 -13 8899.51 2018.70   1
   0  -7  13 6772.85 1755.96   1
   7  -7  13 11821.1 2327.55   1
   0   7 -13 6601.21 1726.62   1
  -7   7  13 4464.05 1894.60   1
  -7   0  13 8131.47 1885.36   1
   0  -7  13 5683.93 1527.86   2
  -7   7 -13 9250.55 1911.03   1
   7  -7  13 4996.93 1855.82   2
  -7   0  13 5896.31 1723.80   2
   0  -7  14 41349.9 4630.57   1
   7  -7  14 40785.4 4559.69   1
   0  -7  14 44791.4 4728.82   2
  -7   7 -14 46678.8 4748.61   1
  -7   0  14 54475.4 5114.95   1
  -7   0  14 35191.4 4483.81   2
   7   0 -14 49335.9 4989.03   1
   7  -7  14 47398.0 4925.62   2
   0   7 -14 43401.4 4667.42   1
   7   0 -15 15861.1 2874.40   1
   7  -7  15 18698.4 3047.25   1
   0  -7  15 15584.3 2823.05   1
  -7   7 -15 17285.8 2968.70   1
  -7   0  15 13407.9 2763.85   2
  -7   0  15 22451.6 3404.27   1
   0  -7  15 18149.9 3038.07   2
   7  -7  15 10929.9 2777.95   2
   0   7 -15 19245.4 3139.47   1
   7   0 -16 5093.41 1609.29   1
   0  -7  16 4938.34 1606.03   1
   7  -7  16 6885.44 2006.62   1
   0   7 -16 3315.28 1218.31   1
  -7   0  16 7076.94 1919.58   1
  -7   0  16 2027.51 1116.35   2
  -7   7 -16 4539.58 1544.70   1
   0  -7  16 4716.56 1691.88   2
   7  -7  16 5442.25 1989.91   2
   0  -7  17 6994.44 1925.19   1
   0   7 -17 8157.75 2143.75   1
  -8   4  17-843.832 777.962   1
   8  -4 -17-137.831 470.780   1
   4  -8  16 103205. 7743.85   1
  -8   4  16 98981.2 7470.43   1
  -4   8 -16 80321.5 6644.98   1
   4  -8  16 90972.1 7078.90   2
   8  -4 -16 79413.1 6693.99   1
   4  -8  15-744.893 649.241   1
  -4   8 -15-462.003 572.456   1
   4  -8  15 1407.20 1214.35   2
   8  -4 -15 786.623 876.637   1
  -8   4  15-211.037 741.920   1
   4  -8  14 1105.88 877.657   2
   4  -8  14 3004.08 1110.85   1
  -8   4  14 3462.14 1323.06   1
   8  -4 -14 2203.16 972.550   1
  -4   8 -14 3327.00 1280.78   1
   4  -8  13-1351.48 1277.82   1
  -4   8 -13 1075.01 794.151   1
   4  -8  13-276.455 537.083   2
  -8   4  13-2.02829 613.221   1
   8  -4 -13-862.734 803.673   1
   4  -8  12 147557. 8918.61   1
  -4   8 -12 122652. 7868.39   1
   8  -4 -12 129856. 8198.17   1
   4  -8  12 134344. 8052.52   2
   4  -8  11 1399.71 1022.76   1
  -4   8 -11 139.267 586.784   1
  -8   4  11 678.921 776.762   1
   4  -8  11 911.833 777.585   2
   8  -4 -11 588.755 681.129   1
   4  -8  10-790.097 916.138   1
  -8   4  10-213.176 608.781   1
  -4   8 -10 55.4549 562.310   1
   4  -8  10-98.8432 557.190   2
   8  -4 -10-63.3589 343.849   1
   4  -8   9 164.319 320.397   1
   8  -4  -9 996.345 744.844   1
  -8   4   9 996.818 978.269   1
  -4   8  -9-207.850 390.807   1
   4  -8   9-1189.54 995.202   2
   4  -8   8 230285. 10456.9   1
   4  -8   8 214654. 10091.2   2
  -8   4   8 237272. 10918.4   1
   4  -8   7 14.0089 264.905   1
  -8   4   7 1070.82 664.955   1
  -4   8  -7 18.7549 314.475   1
   8  -4  -7 571.751 338.930   1
   4  -8   6 51139.2 4341.80   1
  -4   8  -6 54137.9 4494.73   1
   8  -4  -6 47816.9 4448.83   1
  -8   4   6 41312.1 4236.51   1
   4  -8   6 42862.7 4124.05   2
  -8   4   5 294.274 621.851   1
   4  -8   5-593.219 630.917   1
   8  -4  -5-929.309 680.337   1
   4  -8   5 866.667 624.130   2
  -4   8  -5-491.922 611.797   1
   4  -8   4 296835. 11172.1   1
  -4   8  -4 286841. 11130.8   1
  -8   4   4 301995. 11913.8   1
   8  -4  -4 256239. 11071.4   1
   4  -8   4 289154. 11296.9   2
   4  -8   3-229.085 556.285   1
  -8   4   3-79.5658 340.465   1
   8  -4  -3 386.243 564.413   1
   4  -8   3 104.419 436.977   2
  -4   8  -3 718.663 341.632   1
   4  -8   2 94195.8 5511.10   1
  -8   4   2 93216.1 5883.35   1
  -4   8  -2 96980.8 5739.91   1
   8  -4  -2 90693.2 5883.86   1
   4  -8   2 97647.0 5962.12   2
  -4   8  -1-356.030 394.712   1
  -8   4   1-603.375 718.373   1
   4  -8   1-382.881 415.686   1
   4  -8   1 286.474 626.894   2
  -4  -4  -1 893.335 857.394   2
   8  -4  -1 468.940 368.531   1
  -8   4   0 667607. 20268.9   1
  -4  -4   0 670063. 20627.0   2
   8  -4   0 650621. 20390.6   1
  -4   8   0 697267. 19503.1   1
   4  -8   0 708216. 19944.4   2
  -8   4  -1 454.604 654.934   1
  -4   8   1-161.361 423.726   1
   4  -8  -1 57.4746 169.861   1
  -4  -4   1 1104.45 704.547   2
   8  -4   1-549.787 762.906   1
   4  -8  -1 766.112 557.651   2
   4   4  -1-151.397 428.580   1
  -4  -4   1-308.287 289.782   1
  -4  -4   2 21479.4 2443.71   1
  -8   4  -2 22185.8 2669.81   1
   8  -4   2 21670.7 2765.10   1
   4   4  -2 25543.1 2844.15   1
  -4  -4   2 23197.2 2756.33   2
   4  -8  -2 18556.5 2377.54   2
  -4  -4   3-84.8054 466.424   1
   8  -4   3 405.305 454.801   1
  -4  -4   3 613.707 765.438   2
  -8   4  -3-915.906 767.697   1
   4   4  -3 325.057 240.251   1
   8  -4   4 378353. 14174.2   1
  -4  -4   4 415957. 13823.1   1
  -4  -4   4 407732. 14552.6   2
  -8   4  -4 363164. 13620.7   1
   4   4  -5-1314.94 905.927   1
  -8   4  -5-593.504 585.279   1
   8  -4   5 938.219 718.166   1
  -4  -4   5 1541.68 1018.97   2
  -4  -4   5-331.204 648.553   1
   4   4  -6 2314.18 1099.92   1
  -8   4  -6 2182.25 918.479   1
  -4  -4   6 3582.39 939.973   1
   8  -4   6 2607.73 1108.28   1
  -4  -4   6 2896.59 1014.98   2
   4   4  -7 63.6692 282.593   1
  -8   4  -7 375.743 477.375   1
   8  -4   7-67.0612 556.795   1
  -4  -4   7 1090.49 706.298   2
  -4  -4   7-229.244 569.764   1
  -4  -4   8 157234. 8576.02   1
   8  -4   8 135896. 7935.00   1
  -4  -4   8 141060. 8138.98   2
  -8   4  -8 148633. 7943.02   1
   4   4  -8 156455. 8407.80   1
   8  -4   8 136244. 8413.12   2
   4   4  -9 162.275 331.536   1
  -8   4  -9 179.512 325.633   1
   8  -4   9 272.570 263.659   1
  -4  -4   9-694.466 678.649   2
   8  -4   9-325.209 799.408   2
  -4  -4   9-298.305 577.814   1
   4   4 -10 1702.37 977.486   1
  -8   4 -10 2204.91 1066.44   1
   8  -4  10 1027.45 448.270   1
  -4  -4  10 1090.83 1029.21   2
  -4  -4  10-94.7857 512.479   1
   8  -4  10 1531.24 1057.62   2
  -8   4 -11 134.028 543.345   1
   4   4 -11-100.008 733.516   1
  -4  -4  11 994.545 1088.43   1
   8  -4  11 619.763 616.490   1
  -4  -4  11 755.251 790.467   2
   8  -4  11-139.146 490.035   2
   8  -4  12 172979. 9397.12   1
  -4  -4  12 146136. 9170.42   1
  -8   4 -12 140442. 8487.62   1
  -4  -4  12 151222. 8965.14   2
   4   4 -12 174651. 9647.42   1
   8  -4  12 161977. 8938.84   2
   4   4 -13-142.798 533.601   1
   8  -4  13-164.596 489.933   1
  -4  -4  13 247.640 686.984   2
   8  -4  13 520.697 387.225   2
  -8   4 -13-1.89553 341.203   1
   4   4 -14-515.194 721.979   1
   8  -4  14-689.276 879.595   1
  -4  -4  14 1012.70 827.635   2
  -8   4 -14-569.606 725.692   1
   8  -4  14 240.404 385.026   2
   4   4 -15-1806.42 1104.61   1
   8  -4  15 27.9236 323.504   1
  -4  -4  15-1434.88 1122.91   2
  -8   4 -15-893.057 876.195   1
   8  -4  15 86.2386 324.098   2
   8  -4  16 69897.8 6316.38   1
  -8   4 -16 78719.0 6401.14   1
  -4  -4  16 75831.0 6841.58   1
  -4  -4  16 74970.6 6483.13   2
   8  -4  16 60150.1 5773.87   2
   4   4 -16 88966.1 6968.85   1
   4   4 -17 1521.65 1133.06   1
   8  -4  17-31.9925 352.755   1
  -8   4 -17 293.840 398.081   1
  -4  -4  17 998.053 991.392   2
   8  -4  17-147.714 316.982   2
  -8   5  17 13013.1 2662.93   1
   8  -5 -17 12043.1 2361.52   1
  -8   5  16 33076.3 4097.23   1
   3  -8  16 32559.0 4228.56   1
   5  -8  16 30705.8 4007.99   1
  -3   8 -16 32761.0 4037.05   1
  -5   8 -16 26111.0 3552.56   1
   8  -5 -16 21313.1 3336.70   1
  -8   3  16 30449.3 3915.20   1
   8  -3 -16 23499.8 3595.01   1
   3  -8  16 23855.3 3363.69   2
   5  -8  16 22195.7 3507.06   2
   3  -8  15 32212.5 4363.81   1
   5  -8  15 36238.7 4409.43   1
  -3   8 -15 42527.6 4624.65   1
  -8   3  15 41720.9 4741.20   1
  -5   8 -15 37067.2 4290.92   1
   8  -3 -15 33849.6 4205.92   1
   8  -5 -15 28912.1 3789.01   1
   3  -8  15 33865.7 4005.92   2
   5  -8  15 33259.3 4197.18   2
  -8   5  15 44457.5 4835.28   1
   3  -8  14 43509.5 4996.80   1
   5  -8  14 51535.2 5315.80   1
  -3   8 -14 47007.9 4941.32   1
  -8   3  14 61021.2 5533.19   1
  -5   8 -14 46983.6 4831.97   1
   8  -3 -14 54867.2 5265.88   1
   8  -5 -14 43018.8 4758.04   1
   3  -8  14 43139.7 4660.04   2
   5  -8  14 46717.6 4928.93   2
  -8   5  14 46711.7 4968.94   1
  -8   3  13 3201.86 1077.44   1
   5  -8  13 2191.57 1366.98   2
   3  -8  13 3202.62 1307.86   1
   5  -8  13 2282.84 1026.71   1
  -3   8 -13 2130.61 1056.30   1
  -5   8 -13 5637.42 1537.14   1
   3  -8  13 3806.71 1325.54   2
   8  -5 -13 3415.56 1256.22   1
  -8   5  13 3433.93 1514.30   1
   8  -3 -13 2132.05 961.324   1
   3  -8  12 37.6963 836.430   1
   5  -8  12 372.415 485.978   1
  -5   8 -12 350.250 451.875   1
   5  -8  12 807.853 830.229   2
  -3   8 -12 1367.49 862.783   1
  -8   5  12 287.568 312.039   1
   3  -8  12-424.352 636.038   2
   8  -5 -12 972.363 743.067   1
   8  -3 -12-1533.92 929.848   1
  -8   3  12-142.200 353.901   1
   3  -8  11 10131.1 2236.65   1
   5  -8  11 10327.1 2212.14   1
  -3   8 -11 9715.95 2124.94   1
  -8   5  11 8181.44 2024.09   1
   3  -8  11 10137.1 2171.43   2
  -5   8 -11 7710.59 1973.13   1
   5  -8  11 11363.5 2351.07   2
   8  -5 -11 9118.46 2032.52   1
  -8   3  11 10142.0 2200.47   1
   8  -3 -11 9619.43 1974.59   1
   3  -8  10 89110.6 6543.04   1
   5  -8  10 79502.1 6141.98   1
  -3   8 -10 84825.1 6203.89   1
  -5   8 -10 85435.1 6284.76   1
   8  -3 -10 95890.2 6668.96   1
   8  -5 -10 91788.8 6553.52   1
   3  -8  10 73635.4 5704.88   2
  -8   5  10 83965.7 6560.01   1
   5  -8  10 82049.8 6083.06   2
  -8   3  10 94248.4 6576.59   1
   3  -8   9 109146. 7407.52   1
   5  -8   9 144340. 8236.16   1
  -3   8  -9 170294. 8744.24   1
   8  -3  -9 148597. 8271.61   1
  -5   8  -9 142548. 8098.41   1
   3  -8   9 144126. 7992.97   2
  -8   5   9 120257. 7770.66   1
   5  -8   9 132286. 7687.44   2
   8  -5  -9 132891. 8040.09   1
  -8   3   9 168934. 8681.16   1
   3  -8   8 33529.2 3748.35   1
   5  -8   8 27744.8 3337.99   1
  -3   8  -8 28913.9 3345.29   1
  -8   5   8 33404.9 3627.85   1
  -5   8  -8 35607.6 3761.96   1
   8  -5  -8 28147.6 3463.42   1
   8  -3  -8 28352.0 3373.33   1
   3  -8   8 26086.1 3216.68   2
   5  -8   8 25629.8 3196.14   2
  -8   3   8 25221.8 3342.37   1
   3  -8   7 43100.0 4119.09   1
   3  -8   7 38130.6 3754.37   2
   5  -8   7 35661.8 3804.29   1
  -3   8  -7 45867.4 4193.64   1
  -5   8  -7 39568.2 3972.96   1
   8  -5  -7 39719.5 4047.28   1
   8  -3  -7 36975.8 3856.97   1
  -8   5   7 40037.9 4193.54   1
   5  -8   7 39464.8 3903.71   2
  -8   3   7 43118.8 4228.66   1
   3  -8   6 257456. 11034.9   1
   5  -8   6 271828. 11412.0   1
  -3   8  -6 336678. 12148.9   1
  -5   8  -6 273759. 11490.6   1
   8  -5  -6 299142. 11929.5   1
   8  -3  -6 251690. 11245.0   1
  -8   5   6 304587. 12218.2   1
   3  -8   6 278012. 11344.9   2
  -8   3   6 282605. 11681.7   1
   5  -8   6 288720. 11601.4   2
  -5   8  -5 1967.65 976.157   1
   3  -8   5 1276.15 587.813   1
  -8   3   5 602.212 558.431   1
   5  -8   5 1542.03 824.986   1
   8  -3  -5-761.718 805.221   1
  -3   8  -5 602.048 384.750   1
   8  -5  -5 696.808 497.366   1
   3  -8   5 2160.31 1163.35   2
  -8   5   5 1496.60 930.866   1
   5  -8   5 437.641 358.512   2
   3  -8   4 53491.4 4075.40   1
   5  -8   4 65855.1 4778.83   1
  -3   8  -4 52746.2 4264.16   1
  -8   5   4 54440.0 4582.17   1
  -5   8  -4 48995.5 4234.92   1
   8  -5  -4 43744.7 4020.46   1
   8  -3  -4 48388.8 4371.88   1
   3  -8   4 51251.6 4345.25   2
  -8   3   4 47252.7 4399.14   1
   5  -8   4 54873.4 4443.25   2
   3  -8   3 114991. 6253.41   1
   5  -8   3 160701. 7628.64   1
  -3   8  -3 158702. 7367.26   1
  -8   5   3 136098. 7351.66   1
   5  -8   3 114553. 6841.41   2
   8  -5  -3 122031. 7101.72   1
  -8   3   3 144110. 7545.16   1
   8  -3  -3 130577. 7290.97   1
  -5   8  -3 138750. 7412.78   1
   3  -8   3 136123. 7212.93   2
   3  -8   2 122366. 6192.08   1
   5  -8   2 120298. 6580.71   1
  -8   5   2 123608. 7051.24   1
  -3   8  -2 152613. 6943.37   1
  -8   3   2 137787. 7424.30   1
   8  -5  -2 135196. 7362.92   1
   8  -3  -2 126060. 7041.84   1
  -3  -5  -2 141660. 7480.16   2
  -5   8  -2 138670. 7198.83   1
   3  -8   2 136357. 7143.29   2
   5  -8   2 147533. 7478.90   2
  -8   5   1 165665. 8212.13   1
   5  -8   1 156904. 7523.25   1
  -8   3   1 174383. 8250.33   1
  -3   8  -1 202658. 7809.12   1
  -5  -3  -1 147124. 6810.80   1
   8  -5  -1 161856. 8267.69   1
   8  -3  -1 157421. 8053.59   1
   5   3   1 148405. 7046.73   1
  -5   8  -1 180153. 8154.03   1
   3  -8   1 146244. 7499.13   2
   5  -8   1 210880. 9077.65   2
  -3  -5  -1 173316. 8369.41   2
  -5  -3   0 8238.67 1536.35   1
  -8   5   0 5906.04 1294.53   1
  -8   3   0 8745.24 1771.17   1
  -5   8   0 9851.25 1630.55   1
   5  -8   0 7156.33 1510.14   1
   8  -5   0 9697.12 1734.19   1
   8  -3   0 7212.73 1407.28   1
   5   3   0 8452.27 1578.49   1
   3  -8   0 8939.18 1641.47   2
   5  -8   0 9938.63 1802.86   2
  -3  -5   0 5458.13 1574.54   2
  -8   3  -1 18108.7 2471.28   1
   5  -8  -1 12510.3 1829.15   1
  -3  -5   1 16846.8 2512.42   2
   5   3  -1 19277.2 2442.29   1
  -5  -3   1 16776.1 2560.68   2
   8  -5   1 13969.8 2211.63   1
   8  -3   1 13711.3 2257.05   1
  -5  -3   1 18035.0 2318.19   1
  -5   8   1 20177.1 2466.45   1
   5  -8  -1 17939.2 2537.22   2
   3  -8  -1 17865.9 2284.99   2
  -8   5  -1 14986.3 2282.86   1
  -8   5  -2 373491. 13584.9   1
  -8   3  -2 342258. 12961.5   1
   5  -8  -2 303426. 11583.6   1
   8  -5   2 395869. 13918.5   1
   8  -3   2 403759. 14039.8   1
  -3  -5   2 343903. 13365.5   2
  -5  -3   2 366483. 13884.4   2
   5   3  -2 421462. 13860.7   1
   5  -8  -2 461940. 13893.5   2
  -5   8   2 392472. 12990.8   1
  -5  -3   2 418211. 13404.5   1
  -8   3  -3 76269.7 5215.94   1
  -5  -3   3 85228.9 5367.13   1
   5  -8  -3 85382.4 5010.07   1
   8  -5   3 72886.7 5264.58   1
  -5  -3   3 70344.5 5181.95   2
   8  -3   3 65254.5 5056.18   1
  -3  -5   3 64543.7 5171.69   2
  -3  -5   3 75190.5 4747.90   1
   5   3  -3 50629.8 4352.48   1
   3   5  -3 83117.7 5241.73   1
  -5   8   3 67972.2 4581.86   1
  -8   5  -3 69006.6 5044.05   1
   3   5  -4 12719.3 2025.34   1
  -5  -3   4 11503.3 1861.93   1
  -3  -5   4 12759.5 2195.99   2
   8  -5   4 11076.9 2062.37   1
   8  -3   4 9200.95 1918.31   1
  -8   5  -4 12534.2 2048.50   1
  -5  -3   4 8868.41 1829.47   2
  -5   8   4 10030.7 1708.47   1
  -8   3  -4 12523.5 2163.40   1
  -3  -5   4 13319.1 2084.50   1
   5   3  -4 9979.25 1827.08   1
  -3  -5   5 133204. 7145.67   1
   8  -5   5 109806. 6826.87   1
   8  -3   5 124019. 7289.05   1
  -5  -3   5 131361. 7111.33   1
   3   5  -5 147312. 7651.00   1
  -5  -3   5 118092. 7206.83   2
  -3  -5   5 112948. 6982.61   2
   5   3  -5 126147. 7260.32   1
  -8   5  -5 127013. 7147.22   1
  -8   3  -5 140908. 7421.12   1
  -3  -5   6 111643. 6818.43   1
   8  -5   6 105469. 6633.02   1
   8  -3   6 104350. 6615.88   1
  -5  -3   6 98948.8 6346.69   1
  -5  -3   6 107080. 6867.97   2
  -3  -5   6 104555. 6828.50   2
   5   3  -6 114049. 6906.59   1
  -8   5  -6 115905. 6836.58   1
   3   5  -6 113712. 6853.38   1
  -8   3  -6 124829. 7042.05   1
   8  -5   6 110783. 6939.35   2
   8  -5   7 68219.1 5267.02   1
   8  -3   7 70469.7 5320.50   1
  -5  -3   7 62372.3 5356.68   2
  -3  -5   7 68880.9 5484.95   2
  -5  -3   7 72790.8 5446.23   1
  -8   5  -7 68678.7 5295.04   1
   5   3  -7 61786.8 5172.78   1
  -8   3  -7 53291.2 4675.34   1
   3   5  -7 76692.3 5677.98   1
   8  -5   7 76352.3 5761.12   2
   8  -5   8 53523.9 4825.13   1
   8  -3   8 52635.4 4760.29   1
   8  -5   8 58356.8 5167.24   2
  -5  -3   8 43785.0 4505.68   2
  -3  -5   8 48331.3 4673.77   2
  -8   5  -8 60932.4 4950.09   1
  -5  -3   8 54987.5 4839.24   1
  -8   3  -8 49650.0 4490.23   1
   5   3  -8 51613.5 4775.39   1
   3   5  -8 56161.0 4875.21   1
  -3  -5   8 55224.5 4984.44   1
  -3  -5   9 16829.3 2751.93   1
   8  -5   9 17450.7 2790.40   1
   8  -3   9 20457.4 2987.21   1
  -5  -3   9 16584.1 2691.01   1
  -8   5  -9 17061.7 2694.32   1
  -8   3  -9 20891.0 2840.01   1
  -5  -3   9 16411.4 2730.39   2
  -3  -5   9 16527.7 2721.46   2
   5   3  -9 20681.0 2924.16   1
   3   5  -9 19736.5 2868.16   1
   8  -5   9 14563.9 2485.93   2
   8  -5  10 131599. 7836.44   1
   8  -3  10 131525. 7929.32   1
  -3  -5  10 119781. 7732.26   2
  -8   3 -10 136607. 7869.87   1
  -5  -3  10 117298. 7873.32   2
   5   3 -10 121965. 7750.85   1
  -5  -3  10 111089. 7371.53   1
  -8   5 -10 144077. 8116.80   1
   8  -5  10 121695. 7523.17   2
   3   5 -10 125011. 7805.25   1
   8  -3  10 96924.6 7046.72   2
  -3  -5  10 134473. 8354.78   1
  -8   5 -11 599.306 438.427   1
  -3  -5  11 1896.13 916.989   1
   5   3 -11 2105.34 1237.81   1
  -8   3 -11 1894.56 1131.19   1
   3   5 -11 2146.40 1023.73   1
   8  -5  11 1826.85 1078.01   1
   8  -3  11 1425.47 657.639   1
  -5  -3  11 184.465 406.290   2
  -3  -5  11 2226.19 1128.66   2
  -5  -3  11 779.561 383.910   1
   8  -5  11 1861.32 866.669   2
   8  -3  11 1095.74 671.648   2
  -5  -3  12 1528.54 938.309   1
  -8   5 -12 266.924 451.344   1
  -8   3 -12 1211.10 688.412   1
  -3  -5  12 1245.77 895.931   1
   5   3 -12 1726.10 908.690   1
   3   5 -12 601.266 595.007   1
   8  -5  12 156.774 443.887   1
   8  -3  12 1617.12 819.093   1
  -5  -3  12 2134.09 1186.80   2
  -3  -5  12 3130.60 1151.54   2
   8  -5  12 1569.71 956.205   2
   8  -3  12 427.535 584.977   2
   8  -5  13 30437.3 3813.37   1
  -5  -3  13 27766.6 3821.27   2
   8  -3  13 26346.9 3588.71   1
  -8   5 -13 27471.1 3613.99   1
  -8   3 -13 29726.0 3784.41   1
  -3  -5  13 26753.6 3766.93   2
   5   3 -13 25261.6 3494.82   1
   8  -5  13 24206.1 3391.83   2
   8  -3  13 18009.9 2908.43   2
   3   5 -13 26770.1 3670.62   1
  -5  -3  13 22969.9 3485.82   1
  -3  -5  13 23930.2 3654.32   1
  -5  -3  14 37634.6 4481.73   1
   8  -5  14 47843.2 4945.90   1
   8  -3  14 47972.0 5022.87   1
  -8   5 -14 51644.5 4998.97   1
  -8   3 -14 39944.7 4463.13   1
  -5  -3  14 41705.8 4720.88   2
  -3  -5  14 41780.7 4613.56   2
   5   3 -14 49409.4 4910.38   1
   8  -5  14 44558.1 4737.60   2
   8  -3  14 35566.7 4131.21   2
   3   5 -14 48986.1 4844.77   1
  -3  -5  14 43248.1 4933.83   1
  -5  -3  15 57603.2 5580.33   1
   8  -5  15 56054.2 5481.64   1
   8  -3  15 64099.6 5772.69   1
  -8   5 -15 58080.1 5211.04   1
  -8   3 -15 40016.8 4522.75   1
  -5  -3  15 53190.3 5313.53   2
  -3  -5  15 52352.4 5310.20   2
   5   3 -15 60621.3 5602.41   1
   8  -5  15 54852.9 5277.98   2
   8  -3  15 35820.9 4300.06   2
   3   5 -15 63864.8 5917.66   1
  -3  -5  15 54073.1 5678.70   1
  -3  -5  16 4285.22 1526.62   1
   5   3 -16 3612.79 1485.69   1
   3   5 -16 5053.76 1563.02   1
  -5  -3  16 4321.24 1667.13   1
   8  -5  16 4437.44 1559.35   1
   8  -3  16 3457.87 1481.83   1
  -3  -5  16 3779.03 1382.97   2
  -8   3 -16 2618.74 1025.14   1
  -5  -3  16 4178.25 1411.49   2
  -8   5 -16 2564.36 1063.53   1
   8  -5  16 2462.10 1097.04   2
   8  -3  16 1760.88 1010.27   2
   3   5 -17 1914.96 939.860   1
   8  -3  17 2492.85 1156.09   1
   8  -5  17 2097.17 1180.76   1
  -3  -5  17 2547.98 1108.19   2
  -5  -3  17 2197.36 1084.71   2
  -8   3 -17 2137.82 1176.78   1
  -8   5 -17 3268.33 1345.03   1
   8  -5  17 858.269 574.353   2
  -8   6  17 5288.03 1987.55   1
  -2   8 -16 21121.1 3361.98   1
   2  -8  16 14173.3 2871.66   1
  -6   8 -16 19406.0 3043.60   1
  -8   2  16 21878.1 3428.96   1
   6  -8  16 17783.1 3121.95   1
  -8   6  16 15948.7 2953.13   1
   8  -2 -16 17579.8 3134.38   1
   2  -8  16 15573.8 2767.86   2
   6  -8  16 12952.8 3001.13   2
   8  -6 -16 13913.5 2691.03   1
  -8   2  15 1577.49 1180.06   1
   2  -8  15 1151.26 1096.09   1
   6  -8  15 2110.72 1244.20   1
  -2   8 -15 1696.87 933.227   1
  -8   6  15 1038.43 1110.06   1
  -6   8 -15 2442.46 1184.82   1
   2  -8  15 2034.45 1322.71   2
   6  -8  15 1484.44 1117.03   2
   8  -6 -15 508.462 256.162   1
   8  -2 -15 486.390 408.776   1
   2  -8  14 40855.9 4736.72   1
  -2   8 -14 41231.4 4697.23   1
   6  -8  14 48625.4 4935.61   1
  -8   2  14 46834.8 4881.37   1
  -6   8 -14 46706.0 4829.87   1
   8  -6 -14 45110.2 4838.13   1
   2  -8  14 43602.8 4670.22   2
   8  -2 -14 49667.4 5090.60   1
   6  -8  14 45202.0 4891.33   2
  -8   6  14 36785.7 4485.32   1
  -8   2  13 9933.53 2121.00   1
   2  -8  13 11096.0 2454.83   1
   6  -8  13 8413.50 2083.60   1
  -2   8 -13 9469.76 2104.64   1
  -8   6  13 8404.22 2062.31   1
  -6   8 -13 8651.07 2058.37   1
   2  -8  13 9710.30 2176.60   2
   8  -6 -13 12495.7 2441.39   1
   6  -8  13 8578.22 2219.38   2
   8  -2 -13 9678.84 2185.68   1
  -8   2  12 5077.63 1534.70   1
   2  -8  12 5139.92 1614.43   1
   6  -8  12 3069.95 1087.18   1
  -2   8 -12 4473.76 1449.64   1
  -8   6  12 1786.53 1138.98   1
  -6   8 -12 3702.93 1218.58   1
   2  -8  12 2460.68 891.330   2
   8  -6 -12 3806.00 1488.02   1
   6  -8  12 3914.20 1512.37   2
   8  -2 -12 4331.10 1280.44   1
   2  -8  11 29755.7 3804.93   1
  -8   2  11 35558.7 4176.50   1
  -2   8 -11 30833.1 3851.55   1
   6  -8  11 27065.1 3634.34   1
  -6   8 -11 31598.1 3825.64   1
   8  -6 -11 25926.3 3466.61   1
   8  -2 -11 30489.0 3779.56   1
   2  -8  11 29821.6 3613.92   2
  -8   6  11 28053.3 3924.03   1
   6  -8  11 25704.4 3607.96   2
   2  -8  10 40931.1 4427.73   1
  -8   2  10 45718.9 4524.98   1
  -2   8 -10 36743.3 4108.19   1
   6  -8  10 42846.4 4416.08   1
   8  -2 -10 39965.3 4350.73   1
  -6   8 -10 41023.7 4291.37   1
   8  -6 -10 39027.5 4228.17   1
   2  -8  10 36369.1 3981.40   2
  -8   6  10 36576.9 4481.71   1
   6  -8  10 34639.8 4002.00   2
   2  -8   9 50757.0 4845.88   1
  -2   8  -9 64939.6 5340.26   1
   6  -8   9 52437.8 4847.18   1
  -6   8  -9 57625.5 4987.11   1
   8  -6  -9 63191.8 5230.47   1
  -8   6   9 53737.0 5106.83   1
   8  -2  -9 50911.1 4728.39   1
   2  -8   9 45114.1 4432.79   2
   6  -8   9 46725.2 4648.51   2
  -8   2   9 49790.8 4681.08   1
  -8   6   8-308.560 720.762   1
   2  -8   8 192.511 600.988   1
   6  -8   8-34.5307 820.041   1
  -2   8  -8 477.798 277.239   1
  -8   2   8-159.202 533.089   1
   8  -6  -8 54.6707 761.029   1
   2  -8   8-33.2283 576.822   2
   6  -8   8 617.870 636.053   2
   8  -2  -8 1494.68 830.505   1
  -6   8  -8 541.845 567.912   1
   2  -8   7 129985. 7537.14   1
  -2   8  -7 105494. 6768.68   1
   6  -8   7 98588.4 6746.96   1
  -6   8  -7 129477. 7677.31   1
  -8   6   7 134389. 7737.58   1
   8  -6  -7 128345. 7368.39   1
   8  -2  -7 134000. 7639.48   1
   2  -8   7 123916. 7223.19   2
   6  -8   7 130736. 7445.97   2
  -8   2   7 114020. 7130.76   1
   2  -8   6 310265. 12204.2   1
  -2   8  -6 321917. 12226.7   1
   8  -2  -6 308670. 12539.8   1
   6  -8   6 278029. 11932.2   1
  -8   6   6 310064. 12482.3   1
  -6   8  -6 298319. 12327.3   1
   8  -6  -6 351332. 12762.0   1
   2  -8   6 273548. 11653.0   2
  -8   2   6 280715. 11868.4   1
   6  -8   6 328252. 12588.1   2
   2  -8   5 88565.1 5846.89   1
  -2   8  -5 107209. 6282.53   1
  -6   8  -5 93825.0 6262.38   1
   6  -8   5 98406.0 6227.38   1
  -8   6   5 106617. 6522.38   1
   8  -6  -5 81467.2 5751.60   1
   8  -2  -5 87054.7 6105.61   1
   2  -8   5 91696.1 6071.21   2
  -8   2   5 83073.2 5985.53   1
   6  -8   5 102809. 6396.50   2
   2  -8   4 162555. 7942.15   1
  -2   8  -4 187743. 8334.39   1
   6  -8   4 194650. 8864.08   1
  -8   6   4 162404. 8417.07   1
   6   2   4 192247. 8293.13   1
   8  -6  -4 177010. 8728.12   1
   8  -2  -4 168138. 8640.85   1
  -6   8  -4 170793. 8587.67   1
  -8   2   4 186946. 8973.76   1
   2  -8   4 147757. 8024.25   2
   6  -8   4 170560. 8530.33   2
  -6   8  -3 774.169 619.939   1
  -8   6   3 1291.10 774.463   1
   6  -8   3 559.100 611.214   1
  -2  -6  -3 1469.05 743.229   2
   6   2   3-276.473 516.050   1
   8  -6  -3 706.030 439.515   1
   2  -8   3 924.404 387.390   2
   8  -2  -3 584.311 492.098   1
   6  -8   3 1872.75 1000.41   2
  -6  -2  -3 316.366 355.065   1
  -8   2   3 596.030 665.109   1
  -8   6   2 199493. 9484.78   1
  -6  -2  -2 221383. 8877.49   1
   6  -8   2 207816. 9525.54   1
   8  -6  -2 275966. 10804.4   1
   6   2   2 182899. 8671.36   1
  -8   2   2 235726. 10067.7   1
   8  -2  -2 213701. 9738.47   1
   2  -8   2 246870. 10033.5   2
  -6   8  -2 226778. 9850.61   1
  -2  -6  -2 207943. 9439.37   2
   6  -8   2 254354. 10404.1   2
  -8   6   1 1382.97 561.218   1
  -6   8  -1-177.801 631.620   1
  -6  -2  -1-293.320 523.001   1
   6  -8   1 688.428 634.822   1
   8  -6  -1 1711.92 1110.65   1
  -2  -6  -1 5.61732 532.702   2
  -8   2   1 1005.14 646.585   1
   8  -2  -1 940.039 549.592   1
   6   2   1 448.199 413.064   1
   2  -8   1 363.802 232.992   2
   6  -8   1-16.3495 472.645   2
   6  -8   0 15797.7 2202.24   1
  -8   2   0 15941.1 2323.20   1
   8  -6   0 15358.3 2363.08   1
  -6   8   0 14547.1 2199.88   1
  -6  -2   0 19785.6 2513.95   1
   6   2   0 14764.5 2276.83   1
  -2  -6   0 14877.2 2359.80   2
   2  -8   0 13879.8 2176.87   2
   8  -2   0 16319.1 2344.03   1
   6  -8   0 20552.1 2659.09   2
  -8   6   0 14196.4 2240.82   1
  -8   6  -1 105541. 6478.35   1
  -8   2  -1 110657. 6622.84   1
  -2  -6   1 107805. 6608.00   2
   6  -8  -1 104452. 6070.63   1
   8  -6   1 110870. 6565.73   1
   8  -2   1 96635.6 6438.30   1
   6   2  -1 119877. 6847.80   1
  -6  -2   1 105625. 6185.16   1
   2  -8  -1 98804.2 5836.42   2
  -6   8   1 122104. 6617.71   1
  -8   2  -2 51803.6 4373.81   1
   6  -8  -2 60404.0 4470.11   1
   8  -6   2 65976.4 4864.80   1
   8  -2   2 52040.6 4489.51   1
  -2  -6   2 54490.3 4736.30   2
   6   2  -2 60196.4 4718.71   1
  -6  -2   2 52650.1 4334.65   1
   6  -8  -2 70059.9 5025.33   2
  -6   8   2 44293.4 3920.53   1
  -8   6  -2 54709.7 4586.56   1
  -8   2  -3 180594. 8659.86   1
   8  -6   3 170650. 8791.25   1
   6  -8  -3 187010. 8455.80   1
   8  -2   3 212248. 9399.60   1
  -2  -6   3 181716. 8880.04   2
   6   2  -3 187546. 8900.01   1
  -6  -2   3 178114. 8473.60   1
   8  -6   3 184213. 9423.13   2
  -8   6  -3 184181. 8785.24   1
  -6   8   3 178160. 8421.09   1
  -6  -2   4 2099.09 849.917   2
   8  -2   4 1923.71 945.976   1
  -8   6  -4 2278.30 804.618   1
   8  -6   4 2743.90 1094.13   1
   6  -8  -4 2943.01 1076.29   1
  -2  -6   4 2442.49 1008.43   2
  -8   2  -4 2231.84 1050.27   1
  -6  -2   4 3620.25 1002.81   1
  -6   8   4 2593.92 926.633   1
   6   2  -4 3066.86 1117.25   1
   8  -6   4 2122.31 888.445   2
  -6   8   5 116977. 6620.77   1
  -6  -2   5 146893. 7660.60   1
   2   6  -5 136364. 7296.28   1
   8  -6   5 120082. 7127.64   1
   8  -2   5 138532. 7659.88   1
   6  -8  -5 138764. 7035.49   1
  -6  -2   5 134325. 7776.12   2
  -2  -6   5 127622. 7500.40   2
   6   2  -5 112545. 7107.04   1
  -8   6  -5 124831. 7161.17   1
   8  -6   5 135359. 7745.55   2
  -8   2  -5 108472. 6659.50   1
  -2  -6   5 127885. 7173.61   1
  -6   8   6 373115. 12980.6   1
  -6  -2   6 319507. 12469.7   1
   8  -6   6 324704. 12694.8   1
   8  -2   6 364909. 13395.5   1
   6  -8  -6 307305. 11796.0   1
  -2  -6   6 307189. 12656.3   2
   6   2  -6 292081. 12432.8   1
  -6  -2   6 277946. 12463.1   2
  -8   6  -6 336949. 12769.7   1
  -8   2  -6 314907. 12297.3   1
   8  -6   6 313279. 12721.7   2
   2   6  -6 341622. 12857.1   1
  -2  -6   6 309698. 12494.4   1
   8  -6   7 37971.2 3983.28   1
   8  -2   7 40984.8 4034.12   1
  -6  -2   7 40312.0 3886.15   1
  -6  -2   7 35140.6 3886.39   2
  -2  -6   7 37504.2 3984.12   2
  -8   6  -7 39405.7 3981.41   1
   6   2  -7 35399.4 3912.72   1
  -8   2  -7 34340.9 3673.55   1
   8  -6   7 38048.2 3909.50   2
   2   6  -7 38758.4 3960.26   1
  -2  -6   7 35421.3 3908.34   1
   8  -6   8 105871. 6754.97   1
   8  -2   8 114616. 7111.52   1
  -6  -2   8 96740.7 6498.18   1
  -8   6  -8 98533.1 6521.02   1
  -6  -2   8 91420.8 6564.73   2
   6   2  -8 87495.4 6419.70   1
  -8   2  -8 105149. 6577.25   1
  -2  -6   8 80517.5 6197.13   2
   8  -6   8 93648.8 6249.94   2
   2   6  -8 101533. 6698.66   1
  -2  -6   8 101122. 6819.12   1
   6   2  -9 3844.69 1254.11   1
  -2  -6   9 4091.21 1367.39   1
  -8   6  -9 3372.15 1277.26   1
   2   6  -9 4784.64 1361.43   1
  -8   2  -9 4839.02 1417.08   1
   8  -6   9 3369.09 1042.34   1
   8  -2   9 4307.52 1505.42   1
  -6  -2   9 2497.04 965.933   1
  -6  -2   9 3217.46 1232.83   2
  -2  -6   9 3491.36 1250.71   2
   8  -6   9 2989.12 1004.99   2
   8  -6  10 75873.9 6013.64   1
   8  -2  10 87087.8 6372.10   1
  -8   6 -10 94803.4 6653.44   1
  -6  -2  10 94432.6 6629.85   1
  -6  -2  10 72040.9 6355.89   2
  -8   2 -10 108219. 6882.81   1
  -2  -6  10 86587.0 6465.24   2
   6   2 -10 86078.2 6454.62   1
   8  -6  10 95114.8 6358.50   2
   2   6 -10 90787.9 6566.56   1
  -2  -6  10 91358.9 6728.43   1
  -8   6 -11 6186.05 1709.77   1
   6   2 -11 6873.53 1903.87   1
  -8   2 -11 9402.07 2055.44   1
  -2  -6  11 8909.57 2186.97   1
   2   6 -11 7787.92 1788.91   1
   8  -6  11 7967.98 1993.25   1
   8  -2  11 8155.00 1978.38   1
  -6  -2  11 4951.08 1656.72   2
  -2  -6  11 9351.42 2091.69   2
  -6  -2  11 8161.26 2025.28   1
   8  -6  11 6422.80 1713.95   2
   8  -2  11 3514.53 1242.21   2
  -6  -2  12 5881.06 1552.88   1
  -8   2 -12 5759.94 1623.32   1
   6   2 -12 7580.60 1868.32   1
  -2  -6  12 6961.09 1893.69   1
   2   6 -12 8453.99 1935.60   1
   8  -6  12 9952.21 2177.75   1
   8  -2  12 7393.38 1958.72   1
  -6  -2  12 7293.56 1850.75   2
  -2  -6  12 7727.11 2002.53   2
   8  -6  12 7242.95 1692.55   2
   8  -2  12 6426.71 1765.53   2
  -8   6 -12 6727.32 1929.98   1
   8  -6  13 26735.3 3602.03   1
   8  -2  13 27784.8 3703.32   1
  -8   6 -13 29231.4 3650.02   1
  -8   2 -13 20824.3 3138.32   1
  -2  -6  13 26118.1 3615.25   2
  -6  -2  13 26219.0 3545.31   1
  -6  -2  13 23620.4 3518.51   2
   6   2 -13 31108.5 3751.63   1
   8  -6  13 27161.3 3661.28   2
   2   6 -13 23711.5 3425.29   1
   8  -2  13 16987.9 2889.90   2
  -2  -6  13 23310.3 3603.46   1
   8  -6  14 30162.0 3853.49   1
   8  -2  14 28199.7 3682.96   1
  -8   6 -14 32714.3 3957.04   1
  -8   2 -14 29732.9 3812.25   1
  -6  -2  14 31698.5 4326.39   2
  -2  -6  14 28450.8 3733.47   2
  -6  -2  14 30691.5 3967.73   1
   6   2 -14 34271.7 4170.55   1
   8  -6  14 30299.3 3918.65   2
   2   6 -14 23586.7 3529.36   1
   8  -2  14 18081.3 3044.54   2
  -2  -6  14 28592.3 3949.08   1
   6   2 -15 19798.8 3163.76   1
  -2  -6  15 16296.4 3046.73   1
   2   6 -15 15481.5 2882.96   1
  -6  -2  15 16423.2 3050.02   1
   8  -6  15 19600.3 3173.20   1
   8  -2  15 17004.7 2885.28   1
  -8   6 -15 18912.2 3109.10   1
  -6  -2  15 12375.0 2566.98   2
  -2  -6  15 18591.5 3110.79   2
   8  -6  15 14041.0 2847.57   2
   8  -2  15 8633.45 2058.53   2
   6   2 -16 347.331 796.656   1
  -2  -6  16-965.373 598.245   1
   2   6 -16-181.762 615.733   1
  -6  -2  16 225.868 590.942   1
   8  -6  16-850.811 1340.27   1
  -2  -6  16-924.847 940.992   2
  -8   6 -16 1151.70 823.820   1
  -6  -2  16-1227.40 1025.16   2
   8  -6  16-1327.12 1447.45   2
  -6  -2  17 13691.9 2916.06   2
   1  -8  16 41014.9 4958.83   1
  -1   8 -16 49920.7 5245.46   1
   1  -8  15-419.252 448.690   1
  -8   1  15 2096.90 1106.05   1
   7  -8  15 129.904 363.073   1
  -1   8 -15-636.937 676.677   1
   1  -8  15 304.828 559.213   2
  -7   8 -15 229.335 506.007   1
   7  -8  15-675.137 875.190   2
   8  -1 -15-690.380 898.237   1
   1  -8  14 1619.31 999.484   1
  -8   1  14 2773.60 1272.83   1
   7  -8  14 3072.06 1115.50   1
  -1   8 -14 2160.24 1020.68   1
  -8   7  14 1040.63 1167.84   1
   1  -8  14 925.002 302.104   2
  -7   8 -14 1260.50 903.589   1
   7  -8  14 1831.27 1003.98   2
   8  -1 -14 1277.02 674.359   1
  -8   1  13 64.1159 340.925   1
   1  -8  13-523.904 645.865   1
   7  -8  13-235.716 537.322   1
  -8   7  13 80.3948 483.833   1
  -1   8 -13-80.9208 533.851   1
   1  -8  13-1141.84 708.301   2
  -7   8 -13-243.959 448.233   1
   8  -7 -13 555.582 636.400   1
   7  -8  13 893.715 882.973   2
   8  -1 -13 554.061 685.971   1
   1  -8  12 76590.2 6453.38   1
  -1   8 -12 75821.8 6191.39   1
   7  -8  12 77390.0 6232.63   1
  -8   1  12 96278.4 6984.24   1
  -7   8 -12 86678.2 6605.63   1
   8  -7 -12 73570.4 6105.98   1
  -8   7  12 88619.2 7059.93   1
   1  -8  12 87053.4 6526.36   2
   8  -1 -12 96006.8 6912.74   1
   7  -8  12 92567.3 6760.50   2
  -8   1  11 247.017 621.953   1
  -8   7  11 389.610 841.651   1
   1  -8  11-458.282 706.042   1
   7  -8  11 669.459 606.957   1
  -1   8 -11 366.609 321.988   1
   7  -8  11 325.952 721.033   2
   1  -8  11-298.090 480.742   2
   8  -7 -11-802.845 939.439   1
  -7   8 -11-472.507 724.654   1
   8  -1 -11 631.138 435.152   1
  -8   7  10 6359.11 1809.11   1
   1  -8  10 4754.40 1398.07   1
   7  -8  10 3498.10 1383.85   1
  -1   8 -10 6543.44 1774.99   1
   1  -8  10 6139.19 1767.65   2
   8  -7 -10 5580.84 1598.59   1
   7  -8  10 3736.53 1404.03   2
   8  -1 -10 5520.06 1642.82   1
  -7   8 -10 4684.10 1293.36   1
  -8   1  10 6196.96 1678.31   1
   1  -8   9 4925.27 1507.20   1
   7  -8   9 5751.74 1694.73   1
  -1   8  -9 7492.22 1823.79   1
   1  -8   9 5193.43 1552.42   2
   8  -7  -9 6588.87 1772.24   1
  -8   1   9 6121.09 1659.21   1
   7  -8   9 4855.34 1487.97   2
  -8   7   9 4527.84 1550.62   1
   8  -1  -9 7733.91 1865.17   1
  -7   8  -9 4503.26 1339.83   1
   1  -8   8 154173. 8611.33   1
  -1   8  -8 132501. 8126.25   1
   7  -8   8 156987. 8765.92   1
  -8   7   8 177036. 9284.25   1
  -7   8  -8 164502. 8799.33   1
   8  -7  -8 162236. 8499.12   1
   8  -1  -8 159192. 8703.85   1
   1  -8   8 155638. 8537.77   2
   7  -8   8 149522. 8365.68   2
  -8   1   8 143808. 8229.13   1
  -7   8  -7 898.626 786.354   1
   1  -8   7 846.891 726.125   1
   7  -8   7 740.752 730.274   1
  -1   8  -7 1352.51 884.015   1
  -8   7   7 400.819 484.885   1
  -8   1   7 203.533 467.682   1
   8  -7  -7-35.7547 344.217   1
   1  -8   7 1269.91 880.836   2
   8  -1  -7-284.556 456.454   1
   7  -8   7 709.523 819.111   2
  -7   8  -6 913.385 677.592   1
   8  -7  -6 234.705 294.575   1
   7  -8   6 1605.49 915.003   1
  -1   8  -6 1357.65 730.420   1
  -8   7   6 731.206 781.936   1
   7   1   6 1274.84 551.238   1
  -8   1   6 685.699 634.355   1
   1  -8   6 164.199 336.555   2
   8  -1  -6 959.014 535.105   1
   7  -8   6 950.268 764.955   2
  -7   8  -5 4613.58 1443.25   1
  -8   7   5 3425.89 1235.13   1
   7  -8   5 2797.49 1033.53   1
  -8   1   5 4796.07 1291.01   1
   7   1   5 3859.15 1035.24   1
  -7  -1  -5 3745.69 966.124   1
   8  -7  -5 4855.06 1391.48   1
   1  -8   5 4945.11 1482.91   2
   8  -1  -5 5144.17 1503.90   1
   7  -8   5 4675.21 1373.53   2
  -7  -1  -4 638779. 17755.0   1
   7  -8   4 501005. 17471.5   2
  -8   7   4 585795. 18312.9   1
   7  -8   4 516629. 17840.5   1
   7   1   4 613991. 18071.3   1
   8  -7  -4 583193. 18252.5   1
   1  -8   4 525741. 17745.1   2
  -8   1   4 472644. 17185.4   1
  -7   8  -4 598079. 18480.3   1
   8  -1  -4 553083. 18134.1   1
  -8   1   3 2881.90 1092.45   1
  -8   7   3 2815.86 1076.72   1
  -7   8  -3 1883.18 595.227   1
   7  -8   3 3143.89 1036.64   1
   7   1   3 3272.16 1053.68   1
   8  -7  -3 3116.25 1348.11   1
   1  -8   3 3099.94 1171.49   2
   8  -1  -3 3114.86 976.112   1
   7  -8   3 2777.08 1146.57   2
  -7  -1  -3 3824.34 1214.96   1
  -8   7   2 120880. 7012.52   1
  -7  -1  -2 123671. 6736.26   1
   7  -8   2 133221. 7185.41   1
   8  -7  -2 107777. 6708.64   1
   7   1   2 116359. 6974.25   1
  -8   1   2 111399. 6825.09   1
   8  -1  -2 109394. 6832.35   1
  -1  -7  -2 121101. 6866.95   2
   1  -8   2 126763. 7179.98   2
   7  -8   2 118763. 7275.41   2
  -7   8  -2 122510. 7067.92   1
  -7  -1  -1-9.55887 661.734   1
  -7   8  -1 751.316 798.750   1
   7  -8   1 195.300 252.580   1
   8  -7  -1-296.329 277.544   1
  -1  -7  -1 578.763 773.241   2
   7   1   1 133.127 495.837   1
   1  -8   1 475.423 452.261   2
   8  -1  -1-232.717 447.747   1
  -8   7   1 19.6779 438.479   1
   7  -8   1-64.3571 262.962   2
   8  -7  -1-302.244 581.338   2
  -8   1   1 93.6737 531.987   1
  -8   7   0 147015. 7683.80   1
   1  -8   0 116979. 6803.44   2
  -8   1   0 123979. 7007.92   1
   7  -8   0 110947. 6724.85   1
   8  -7   0 122980. 7134.40   1
  -7  -1   0 185627. 8200.97   1
   8  -1   0 123452. 7278.38   1
   7   1   0 126269. 7200.07   1
  -1  -7   0 124546. 7155.00   2
   7  -8   0 154282. 8188.79   2
   8  -7   0 117149. 7765.59   2
  -7   8   0 147779. 7676.88   1
  -8   1  -1 4.41313 410.928   1
   7  -8  -1 204.261 541.267   1
   8  -7   1-195.441 410.963   1
  -7   8   1-451.730 453.466   1
   8  -1   1 1.56906 444.463   1
  -1  -7   1 454.212 410.128   2
  -8   7  -1 288.562 545.837   1
   1  -8  -1-238.950 302.629   2
   7   1  -1-635.515 595.102   1
  -7  -1   1-177.883 348.231   1
   7  -8  -1 20.8327 480.973   2
   8  -7   1-311.202 633.627   2
  -8   1  -2 209167. 9202.78   1
   8  -7   2 172216. 8870.57   1
   7  -8  -2 185570. 8746.29   1
   8  -1   2 196305. 9273.73   1
  -1  -7   2 187345. 9154.89   2
  -7  -1   2 143419. 8027.24   1
   7   1  -2 173147. 8832.64   1
   8  -7   2 168422. 9052.09   2
  -8   7  -2 182522. 8812.76   1
  -7   8   2 176376. 8611.00   1
  -7  -1   3 5760.73 1543.48   1
  -8   7  -3 5283.21 1419.12   1
   8  -7   3 7613.15 1725.93   1
   7  -8  -3 6129.82 1403.46   1
   8  -1   3 5856.08 1388.65   1
  -1  -7   3 6524.47 1560.23   2
   7   1  -3 7496.37 1800.29   1
  -7   8   3 5762.85 1415.14   1
   7  -8  -3 7204.50 1748.13   2
  -8   1  -3 6864.16 1527.44   1
   8  -7   3 5706.89 1571.16   2
  -8   1  -4 322109. 13045.8   1
  -7   8   4 419592. 14222.5   1
   8  -7   4 421965. 14747.7   1
   8  -1   4 433440. 14917.5   1
   7  -8  -4 413348. 14115.9   1
  -1  -7   4 405791. 14735.5   2
   7   1  -4 317643. 13685.8   1
  -8   7  -4 441163. 15002.3   1
  -7  -1   4 394876. 14370.4   1
   8  -7   4 407084. 14565.3   2
  -7   8   5 2004.25 1014.34   1
  -8   7  -5 550.850 521.204   1
   8  -7   5 725.460 604.686   1
   8  -1   5 794.905 347.655   1
   7  -8  -5 862.197 664.008   1
  -8   1  -5 393.180 340.206   1
  -7  -1   5-454.229 633.633   1
  -1  -7   5-640.435 728.689   2
   7   1  -5 1005.86 837.296   1
   8  -7   5 746.195 825.539   2
  -7  -1   6 40107.8 4079.88   1
  -7   8   6 40797.6 4020.30   1
   8  -7   6 34009.0 3823.53   1
   7   1  -6 36416.5 3881.37   1
   8  -1   6 35120.5 3781.71   1
   7  -8  -6 35531.1 3710.63   1
  -1  -7   6 33100.8 3786.83   2
  -8   7  -6 34648.2 3690.36   1
   8  -7   6 40857.1 3898.85   2
  -8   1  -6 44775.0 4008.17   1
  -1  -7   7 3936.59 1285.06   1
  -8   7  -7 3090.77 1163.07   1
   1   7  -7 4941.88 1420.36   1
  -7   8   7 5871.48 1490.98   1
  -8   1  -7 3456.20 1185.36   1
   8  -7   7 3677.93 1251.31   1
   8  -1   7 4113.79 1209.17   1
  -7  -1   7 3680.98 1074.50   2
   7  -8  -7 4189.19 1160.76   1
  -1  -7   7 2083.94 913.482   2
   8  -7   7 4818.43 1360.50   2
   7   1  -7 4009.37 1276.50   1
  -7  -1   7 1278.13 625.516   1
  -7  -1   8 207200. 10047.6   1
   8  -7   8 228328. 10612.4   1
   8  -1   8 228789. 10554.1   1
  -7   8   8 241358. 10816.1   1
   7  -8  -8 232514. 10353.4   1
  -7  -1   8 190562. 10257.8   2
  -8   7  -8 215327. 10439.8   1
  -1  -7   8 207167. 10153.5   2
   7   1  -8 206403. 10298.3   1
  -8   1  -8 204513. 9859.03   1
   8  -7   8 201859. 9735.37   2
   1   7  -8 230044. 10628.5   1
  -1  -7   8 201650. 10217.5   1
  -8   7  -9 2395.82 1120.56   1
  -1  -7   9 2146.94 1024.51   1
  -7  -1   9 1791.61 925.145   1
  -8   1  -9 756.141 472.646   1
   1   7  -9 2916.30 1136.32   1
   8  -7   9 1845.48 814.920   1
   8  -1   9 1515.77 831.982   1
  -7   8   9 1407.68 940.675   1
  -7  -1   9 1215.33 608.609   2
  -1  -7   9 979.679 631.687   2
   8  -7   9 2309.65 831.059   2
   7   1  -9 2554.70 1117.96   1
  -8   7 -10 6461.11 1761.25   1
  -1  -7  10 5385.17 1601.26   1
  -8   1 -10 5080.22 1486.45   1
   1   7 -10 6163.73 1723.91   1
  -7  -1  10 5118.22 1561.98   1
   8  -7  10 5786.64 1550.92   1
   8  -1  10 4346.54 1394.74   1
  -7  -1  10 2760.76 1208.46   2
  -1  -7  10 3426.85 1224.50   2
   8  -7  10 5855.58 1553.20   2
   7   1 -10 5160.13 1674.97   1
   7   1 -11 174.203 553.199   1
  -8   1 -11 391.448 535.890   1
  -1  -7  11 39.1538 428.121   1
   1   7 -11 3.87649 637.858   1
   8  -7  11 168.589 483.527   1
  -7  -1  11 240.314 583.207   1
   8  -1  11-403.160 239.366   1
  -7  -1  11 545.645 614.052   2
  -1  -7  11 201.015 749.468   2
   8  -7  11 247.975 519.220   2
  -8   7 -11 447.827 374.016   1
  -1  -7  12 64416.6 5937.02   1
   8  -7  12 87834.8 6613.08   1
  -7  -1  12 82974.9 6329.15   1
  -8   7 -12 94475.6 6683.29   1
  -7  -1  12 73392.0 6458.17   2
  -1  -7  12 78839.1 6304.08   2
   7   1 -12 83034.5 6329.61   1
   8  -7  12 76366.1 6151.30   2
   1   7 -12 87283.6 6690.33   1
   7   1 -13-332.180 535.768   1
  -1  -7  13 64.4086 317.085   1
   1   7 -13 767.482 908.638   1
   8  -7  13 403.778 808.153   1
  -7  -1  13 354.586 514.879   1
  -7  -1  13 157.487 849.215   2
  -1  -7  13 1043.38 674.205   2
  -8   7 -13-1060.20 912.704   1
   8  -7  13-676.455 918.712   2
   8  -1  13-547.188 705.145   2
   7   1 -14 2959.16 1286.49   1
  -1  -7  14 1855.05 1058.57   1
   1   7 -14 1741.32 864.066   1
   8  -7  14 1560.69 958.054   1
  -7  -1  14 2344.50 1100.92   1
  -7  -1  14 2096.28 1394.82   2
  -1  -7  14 322.854 752.050   2
  -8   7 -14 2883.41 1263.45   1
   8  -7  14 1410.55 811.201   2
   7   1 -15 2190.49 1348.49   1
  -1  -7  15-272.228 565.476   1
   1   7 -15 871.335 814.689   1
   8  -7  15 759.278 714.970   1
  -7  -1  15-281.837 634.602   1
  -7  -1  15-446.739 812.663   2
  -1  -7  15 1084.93 795.443   2
  -8   7 -15 637.788 631.114   1
   8  -7  15 546.165 716.963   2
   1   7 -16 49675.7 5202.98   1
  -7  -1  16 44810.4 5385.01   2
  -1  -7  16 51550.2 5434.30   1
  -8   0   0 2291.83 1010.89   1
   8  -8   0 1715.68 805.785   1
  -8   8   0 2882.09 988.517   1
   0  -8   0 2539.79 849.998   2
   8   0   0 1456.97 730.090   1
   8  -8   0 2137.89 961.447   2
  -8   0  -1 93651.9 6108.74   1
   8  -8   1 95380.8 6343.91   1
   8  -8  -1 112470. 6861.18   1
  -8   0   1 71269.3 5572.50   1
   8   0   1 88097.4 6302.42   1
   8   0  -1 104519. 6591.03   1
   0  -8   1 104986. 6661.85   2
   8  -8   1 114855. 7240.18   2
   8  -8  -1 134482. 8240.29   2
  -8   8  -1 99542.2 6430.25   1
  -8   8   1 96631.4 6304.50   1
  -8   8   2 139688. 7760.37   1
  -8   0  -2 126813. 7254.72   1
   8  -8   2 120653. 7302.90   1
   8  -8  -2 155569. 8124.71   1
   8   0   2 124279. 7404.71   1
  -8   0   2 149355. 8070.39   1
   8   0  -2 125257. 7480.30   1
   0  -8   2 157660. 8304.30   2
  -8   8  -2 134868. 7659.52   1
   8  -8   2 154352. 8313.55   2
   8  -8  -2 108297. 7898.80   2
  -8   0  -3 20565.8 2751.29   1
  -8   0   3 17506.8 2627.93   1
  -8   8  -3 13672.2 2248.56   1
   8  -8   3 12850.3 2318.09   1
   8  -8  -3 12316.8 2041.06   1
   8   0  -3 17579.8 2746.25   1
   0  -8   3 15317.2 2590.73   2
   8   0   3 16086.6 2400.74   1
   8  -8   3 16815.4 2653.72   2
  -8   8   3 12666.5 2295.55   1
   8  -8  -3 13730.2 2959.90   2
  -8   0  -4 20922.9 2815.13   1
  -8   8   4 22179.2 3016.68   1
   8  -8   4 26533.8 3251.76   1
   8   0   4 20868.0 2821.30   1
   8  -8  -4 19343.1 2774.94   1
   8   0  -4 26812.9 3317.35   1
   0  -8   4 19027.4 2836.54   2
  -8   8  -4 22832.6 3094.50   1
   8  -8   4 28542.2 3292.76   2
  -8   0   4 16517.8 2797.25   1
  -8   8   5 37324.4 3964.64   1
   8  -8   5 43529.1 4229.85   1
   8   0   5 43919.3 4202.57   1
   8  -8  -5 49513.2 4412.00   1
   8   0  -5 38974.5 4087.30   1
   0  -8   5 38567.9 4111.14   2
  -8   8  -5 37431.8 3858.42   1
  -8   0   5 33800.3 3928.58   1
   8  -8   5 37454.1 3851.89   2
  -8   0  -5 33121.3 3553.56   1
  -8   8   6 135898. 7982.56   1
   8  -8   6 154820. 8536.89   1
   8   0   6 146655. 8128.94   1
   8  -8  -6 150676. 8276.62   1
   0  -8   6 145645. 8316.35   2
   8   0  -6 140161. 8174.32   1
  -8   8  -6 150734. 8322.10   1
  -8   0   6 144558. 8314.87   1
   8  -8   6 155344. 8390.82   2
  -8   0  -6 115405. 7082.38   1
   8  -8   7 28976.0 3607.02   1
  -8   8   7 30466.3 3598.29   1
   8   0   7 33465.1 3666.84   1
   8  -8  -7 32053.9 3710.29   1
  -8   8  -7 36044.4 3966.39   1
   8   0  -7 34627.0 3936.29   1
   0  -8   7 31600.7 3774.94   2
   8  -8   7 41870.4 4117.00   2
  -8   0   7 30680.0 3728.57   1
   8  -8   8 26512.9 3458.38   1
  -8   8   8 19698.3 2998.07   1
  -8   8  -8 25428.5 3389.52   1
   8  -8  -8 25862.4 3349.82   1
   0  -8   8 25430.3 3360.92   2
   8   0  -8 26708.4 3477.01   1
   8  -8   8 25239.8 3211.05   2
  -8   0   8 20857.1 3111.27   1
  -8   8  -9 6214.98 1747.02   1
   0   8  -9 3354.90 1176.14   1
   8  -8   9 4906.15 1525.36   1
  -8   8   9 4698.32 1539.76   1
   8  -8  -9 5875.37 1649.74   1
   0  -8   9 5470.38 1662.10   2
  -8   0   9 3391.60 1226.05   1
   8  -8   9 3072.60 1219.88   2
   8   0  -9 2500.25 1014.79   1
   0  -8  10 50943.7 4987.79   1
  -8   0  10 54726.8 5052.89   1
   8  -8  10 62708.8 5522.96   1
  -8   8  10 50047.4 5024.67   1
  -8   8 -10 51097.4 4953.05   1
   8  -8 -10 48670.2 4685.71   1
   0  -8  10 47738.6 4769.22   2
   8   0 -10 43733.1 4702.05   1
   8  -8  10 48347.7 4763.43   2
   0   8 -10 52512.9 5097.99   1
   0  -8  11 28536.8 3823.77   1
  -8   0  11 35650.5 4011.98   1
   8  -8  11 32796.5 3974.97   1
  -8   8 -11 28410.3 3709.86   1
  -8   8  11 34954.2 4267.62   1
   0  -8  11 32597.4 3989.41   2
   8   0 -11 27483.1 3714.33   1
   8  -8  11 28348.2 3776.56   2
   0   8 -11 30595.8 3944.83   1
  -8   0  12 1913.84 789.257   1
   0  -8  12 710.794 497.326   1
   0   8 -12 1209.11 890.225   1
   8  -8  12 3586.60 1293.56   1
   0  -8  12 1372.11 469.263   2
   8  -8  12 1005.02 830.086   2
  -8   8 -12 3506.75 1220.62   1
   8   0 -12 1756.13 1040.16   1
   8   0  12 359.684 782.357   2
   0  -8  13 25203.4 3741.48   1
   8  -8  13 29031.6 3866.85   1
  -8   0  13 36669.9 4155.72   1
  -8   8 -13 28691.0 3808.65   1
   0  -8  13 29955.0 3840.72   2
   8   0 -13 25992.8 3697.32   1
   8  -8  13 27726.5 3724.63   2
   0   8 -13 24298.9 3620.63   1
   0  -8  14 29066.7 4035.11   1
   8  -8  14 42179.3 4656.20   1
  -8   0  14 50551.2 5113.12   1
  -8   8 -14 49378.2 4922.25   1
   0  -8  14 42165.1 4573.61   2
   8   0 -14 46260.8 4895.77   1
   8  -8  14 38705.4 4678.48   2
   0   8 -14 34862.5 4355.84   1
   0  -8  15 6418.15 1938.04   1
   0   8 -15 5562.31 1760.93   1
   4  -9  15 4919.36 1607.07   1
   5  -9  15 3258.08 1513.90   1
  -4   9 -15 5524.60 1850.21   1
  -5   9 -15 7080.11 1934.68   1
  -9   5  15 6308.10 1838.30   1
  -9   4  15 7721.69 2029.87   1
   4  -9  15 6100.50 1759.23   2
   5  -9  15 6261.34 1657.10   2
   9  -5 -15 3638.18 1319.52   1
   9  -4 -15 6411.04 1689.09   1
   4  -9  14 94741.2 7484.82   1
   5  -9  14 82417.6 6893.39   1
  -4   9 -14 89975.7 6957.06   1
  -5   9 -14 88147.8 6896.44   1
   4  -9  14 93475.1 6938.72   2
   9  -5 -14 88736.3 6973.95   1
   9  -4 -14 114545. 7865.15   1
   5  -9  14 93100.5 6982.65   2
  -9   5  14 93963.4 7180.46   1
  -9   4  14 103831. 7620.46   1
   4  -9  13 29197.5 4090.12   1
   5  -9  13 29217.2 3880.54   1
  -4   9 -13 32122.9 3939.43   1
  -5   9 -13 33641.9 4094.61   1
   9  -5 -13 31429.3 3865.14   1
   9  -4 -13 31576.2 4049.40   1
   4  -9  13 29115.5 3667.29   2
   5  -9  13 23427.9 3547.03   2
  -9   5  13 31328.1 3975.59   1
  -9   4  13 36181.7 4239.98   1
  -4   9 -12 12680.7 2381.91   1
   4  -9  12 13616.9 2712.26   1
   5  -9  12 14692.6 2829.17   1
  -9   5  12 16133.3 2748.58   1
  -9   4  12 15072.0 2583.39   1
  -5   9 -12 13434.7 2547.83   1
   4  -9  12 12007.0 2347.87   2
   5  -9  12 11446.2 2339.93   2
   9  -5 -12 14989.8 2683.45   1
   9  -4 -12 16055.1 2836.92   1
   4  -9  11 63237.1 5786.86   1
   5  -9  11 70446.4 6142.40   1
  -4   9 -11 67717.5 5763.00   1
  -5   9 -11 62295.5 5517.95   1
   9  -5 -11 72106.9 5916.16   1
   9  -4 -11 73206.9 6027.99   1
   4  -9  11 63036.6 5457.14   2
   5  -9  11 66170.2 5530.28   2
  -9   5  11 61983.2 5923.18   1
  -9   4  11 78302.9 6271.96   1
   4  -9  10 59843.2 5656.50   1
   5  -9  10 83225.1 6420.32   1
  -4   9 -10 73449.9 5898.67   1
  -5   9 -10 75157.6 5904.14   1
   9  -5 -10 71649.9 5989.56   1
   9  -4 -10 75241.3 5922.03   1
  -9   5  10 73179.8 6163.01   1
   4  -9  10 69072.6 5682.10   2
  -9   4  10 79028.0 6396.71   1
   5  -9  10 73805.5 5801.58   2
  -4   9  -9 14590.3 2651.01   1
   4  -9   9 17703.6 2818.24   1
   5  -9   9 10978.9 2217.12   1
  -9   5   9 11364.8 2223.52   1
  -9   4   9 12729.8 2481.47   1
  -5   9  -9 14742.6 2476.88   1
   9  -5  -9 10279.9 2215.33   1
   4  -9   9 10931.3 2149.66   2
   9  -4  -9 10750.4 2194.60   1
   5  -9   9 13418.4 2442.49   2
  -9   5   8 6640.67 1725.63   1
   4  -9   8 4605.45 1352.80   1
   5  -9   8 4102.33 1410.54   1
  -9   4   8 6218.94 1631.53   1
  -4   9  -8 5182.44 1460.49   1
  -5   9  -8 9619.42 2072.39   1
   9  -5  -8 7045.89 1833.51   1
   4  -9   8 6544.35 1760.22   2
   9  -4  -8 6285.55 1768.73   1
   5  -9   8 5729.18 1596.15   2
  -9   5   7 121.862 930.589   1
  -9   4   7 222.575 650.958   1
   4  -9   7 1566.38 859.350   1
   5  -9   7 974.027 808.203   1
  -4   9  -7 660.234 653.224   1
   9  -5  -7 458.775 515.150   1
   9  -4  -7 275.055 562.099   1
  -5   9  -7-319.410 654.209   1
   4  -9   7 1690.38 859.378   2
   5  -9   7 1295.94 971.080   2
   4  -9   6 36203.6 3821.26   1
   5  -9   6 33617.9 3772.80   1
  -4   9  -6 32305.0 3596.53   1
  -5   9  -6 43046.7 4104.47   1
  -9   5   6 38565.2 4113.25   1
   9  -5  -6 36389.2 3922.04   1
   9  -4  -6 34725.3 3930.11   1
   5  -9   6 36956.6 3956.19   2
  -9   4   6 33048.8 3991.69   1
   4  -9   6 32614.4 3721.49   2
   4  -9   5 30734.3 3463.63   1
   5  -9   5 27422.9 3362.60   1
  -4   9  -5 30207.6 3418.82   1
  -5   9  -5 41620.0 4107.45   1
  -9   5   5 31643.0 3661.71   1
   9  -5  -5 31383.4 3489.27   1
  -9   4   5 31494.5 3620.42   1
   9  -4  -5 34753.1 3782.79   1
   4  -9   5 34314.6 3722.44   2
   5  -9   5 36700.9 3869.25   2
   4  -9   4 27444.5 3121.72   1
   5  -9   4 25030.4 3062.83   1
  -4   9  -4 29989.4 3240.50   1
  -9   5   4 25091.7 3217.88   1
  -5   9  -4 30847.7 3454.48   1
  -9   4   4 23463.9 3113.96   1
   9  -5  -4 24482.6 3001.66   1
   9  -4  -4 23390.6 3003.38   1
   4  -9   4 22407.1 3075.64   2
   5  -9   4 30101.5 3533.52   2
   5  -9   3 39697.3 3735.64   1
  -9   5   3 35282.0 3728.41   1
  -4   9  -3 42607.0 3817.80   1
  -9   4   3 42666.6 4005.89   1
  -5   9  -3 33748.2 3546.60   1
   9  -5  -3 38691.0 3889.53   1
   9  -4  -3 38075.7 3787.39   1
   4  -9   3 32704.5 3661.44   2
   5  -9   3 42672.2 4189.24   2
   5  -9   2 312376. 11919.9   1
  -9   5   2 319938. 12570.5   1
  -9   4   2 345273. 12885.0   1
   9  -5  -2 351628. 13199.3   1
   9  -4  -2 315926. 12665.7   1
  -5   9  -2 330172. 12656.4   1
   4  -9   2 297667. 12448.2   2
   5  -9   2 335117. 13018.9   2
  -9   5   1 51777.1 4467.05   1
   5  -9   1 48860.9 4116.42   1
  -9   4   1 46509.8 4265.57   1
   9  -5  -1 49988.5 4524.80   1
   9  -4  -1 50299.0 4502.00   1
  -5   9  -1 48505.2 4239.65   1
  -4  -5  -1 49439.5 4584.56   2
   4  -9   1 54008.7 4679.43   2
   5  -9   1 59295.0 4844.66   2
  -9   5   0 15177.8 2439.71   1
  -9   4   0 16186.5 2403.35   1
  -4  -5   0 15640.6 2443.27   2
   9  -5   0 16577.9 2548.06   1
   9  -4   0 17774.7 2589.22   1
   4  -9   0 17570.2 2530.61   2
   5  -9   0 13636.1 2197.14   2
  -9   5  -1 148106. 7851.11   1
  -9   4  -1 152813. 8014.02   1
   9  -5   1 146040. 7898.06   1
   9  -4   1 164728. 8509.21   1
  -5  -4   1 126178. 7764.60   2
  -4  -5   1 144903. 7999.31   2
  -9   5  -2 194742. 9452.18   1
  -9   4  -2 201326. 9522.70   1
   9  -5   2 222735. 10085.2   1
   9  -4   2 225892. 10125.8   1
  -5  -4   2 185042. 9726.44   2
  -4  -5   2 209313. 9964.83   2
  -9   4  -3 98213.8 6193.88   1
   9  -5   3 84280.2 6025.36   1
   9  -4   3 75147.2 5687.10   1
  -5  -4   3 67536.9 5513.74   2
  -4  -5   3 60494.2 5246.08   2
   5   4  -3 77727.9 5577.65   1
  -9   5  -3 72179.5 5443.50   1
  -5  -4   4 37483.9 3642.24   1
   9  -5   4 32157.7 3621.91   1
   9  -4   4 35181.7 3735.25   1
  -5  -4   4 24275.6 3347.00   2
  -4  -5   4 27331.5 3357.99   2
   5   4  -4 34746.2 3789.58   1
  -9   5  -4 30221.8 3414.14   1
  -9   4  -4 33623.0 3575.71   1
   4   5  -5 4696.19 1456.25   1
  -5  -4   5 8365.04 1719.53   1
  -9   5  -5 4226.35 1236.00   1
   9  -5   5 5606.46 1371.87   1
   9  -4   5 6155.10 1543.27   1
  -9   4  -5 6097.37 1418.42   1
  -5  -4   5 5770.70 1796.81   2
  -4  -5   5 4980.09 1439.51   2
   5   4  -5 5344.22 1598.61   1
   9  -5   6 45392.1 4387.31   1
   9  -4   6 48550.3 4587.73   1
  -5  -4   6 53963.0 4646.53   1
  -5  -4   6 48418.3 4580.64   2
  -4  -5   6 44744.4 4626.35   2
  -4  -5   6 46418.1 4445.75   1
   5   4  -6 49387.7 4794.06   1
   4   5  -6 51404.6 4784.44   1
  -9   5  -6 43980.0 4380.17   1
  -9   4  -6 49312.0 4478.08   1
   5   4  -7 953.158 524.607   1
   4   5  -7 2138.36 979.444   1
  -9   5  -7 1518.44 922.019   1
  -9   4  -7 1975.96 1101.64   1
  -4  -5   7 2027.37 847.435   1
   9  -5   7 3459.69 1198.63   1
   9  -4   7 2223.49 1024.40   1
  -5  -4   7 880.027 725.844   2
  -5  -4   7 2965.52 1025.95   1
  -4  -5   7 1709.09 1091.19   2
   9  -5   7 1988.07 962.329   2
   5   4  -8 4019.79 1441.18   1
   4   5  -8 2464.17 957.648   1
  -9   5  -8 2960.95 1223.21   1
  -9   4  -8 3664.07 1403.11   1
   9  -5   8 4661.57 1436.89   1
   9  -4   8 2695.04 1219.75   1
  -5  -4   8 4344.64 1602.66   2
  -4  -5   8 1316.33 717.007   2
  -4  -5   8 5026.91 1496.14   1
  -5  -4   8 3236.24 1016.73   1
   9  -5   8 2963.20 1119.90   2
   5   4  -9 13835.1 2588.70   1
  -5  -4   9 13142.4 2594.01   1
   4   5  -9 9704.74 2138.73   1
  -4  -5   9 10550.5 2157.94   1
  -9   5  -9 12440.0 2427.82   1
  -9   4  -9 11785.8 2282.31   1
   9  -5   9 11318.8 2329.30   1
   9  -4   9 12162.8 2280.24   1
  -5  -4   9 10574.7 2209.95   2
  -4  -5   9 12239.3 2427.30   2
   9  -5   9 10742.1 2236.99   2
   9  -4   9 7120.80 1818.77   2
  -4  -5  10 93617.6 7057.41   1
   9  -5  10 98558.2 7011.30   1
   9  -4  10 109259. 7244.91   1
  -5  -4  10 100763. 7023.85   2
  -4  -5  10 91117.4 6772.63   2
  -9   5 -10 110722. 7222.60   1
  -9   4 -10 95429.6 6706.71   1
  -5  -4  10 77214.8 6443.40   1
   5   4 -10 96646.5 6889.02   1
   4   5 -10 100225. 7084.15   1
   9  -5  10 95145.2 6795.84   2
   9  -4  10 90385.1 6841.53   2
  -4  -5  11 50517.1 5118.80   1
   9  -5  11 49558.8 4926.84   1
   9  -4  11 56311.2 5305.76   1
  -9   5 -11 66010.5 5618.45   1
  -9   4 -11 61180.7 5446.03   1
  -5  -4  11 49856.4 5115.72   2
  -4  -5  11 58903.2 5394.75   2
   5   4 -11 58386.9 5323.85   1
  -5  -4  11 42984.1 4778.74   1
   4   5 -11 50139.0 5152.45   1
   9  -5  11 54732.1 5019.83   2
   9  -4  11 48878.2 4944.43   2
  -9   5 -12 15210.9 2563.87   1
  -9   4 -12 10808.9 2344.77   1
   5   4 -12 11695.6 2395.27   1
   4   5 -12 8782.59 2114.84   1
  -4  -5  12 6900.12 1900.03   1
   9  -5  12 13772.7 2551.00   1
   9  -4  12 11342.7 2350.93   1
  -5  -4  12 6812.69 1833.56   1
  -5  -4  12 11065.1 2469.30   2
  -4  -5  12 12675.2 2482.91   2
   9  -5  12 10472.5 2217.85   2
   9  -4  12 8153.35 1942.99   2
   9  -5  13 56489.5 5336.42   1
   9  -4  13 47477.9 5030.29   1
  -9   5 -13 50506.6 4999.54   1
  -9   4 -13 58667.5 5250.71   1
  -5  -4  13 50411.0 5078.95   2
  -4  -5  13 43558.4 4763.92   2
   5   4 -13 50564.0 5051.15   1
   4   5 -13 51474.3 5310.54   1
   9  -5  13 46889.3 4799.51   2
   9  -4  13 41037.2 4470.27   2
  -5  -4  13 35064.9 4342.23   1
   9  -5  14 67758.5 6016.29   1
   9  -4  14 61267.0 5830.61   1
  -4  -5  14 38167.3 4622.07   1
  -9   5 -14 67098.1 5868.58   1
  -9   4 -14 63260.1 5650.99   1
  -5  -4  14 51626.0 5214.65   2
  -4  -5  14 59300.3 5744.30   2
   5   4 -14 59844.4 5752.02   1
   9  -5  14 62241.7 5544.51   2
   4   5 -14 65364.1 5900.33   1
   9  -4  14 52762.7 5193.29   2
  -5  -4  14 56628.9 5653.15   1
   5   4 -15 3417.72 1185.31   1
   4   5 -15 4070.39 1552.68   1
   9  -5  15 3368.16 1359.09   1
   9  -4  15 2800.02 1144.82   1
  -5  -4  15 2943.33 1271.87   2
  -4  -5  15 3410.51 1450.76   2
  -4  -5  15 2694.53 1333.90   1
  -9   5 -15 3639.96 1321.34   1
  -9   4 -15 2406.82 1185.26   1
  -5  -4  15 3110.83 1253.76   1
   9  -5  15 4170.33 1538.09   2
   9  -4  15 2233.29 1024.58   2
   9  -4  16 3157.70 1258.52   1
  -9   4 -16 6684.29 1936.56   1
   9  -4  16 3573.06 1375.37   2
   3  -9  15-199.764 394.039   1
   6  -9  15 1235.60 985.007   1
  -3   9 -15 688.966 1020.97   1
  -9   6  15 812.073 354.412   1
  -6   9 -15 325.690 518.550   1
  -9   3  15-121.194 520.033   1
   9  -6 -15 220.585 349.799   1
   9  -3 -15-248.146 573.397   1
   3  -9  14 8675.15 2059.69   1
   6  -9  14 7735.39 1890.86   1
  -9   6  14 6601.99 1920.53   1
  -3   9 -14 9349.13 2208.22   1
  -6   9 -14 10715.2 2301.70   1
   3  -9  14 11157.8 2337.18   2
  -9   3  14 9772.61 2219.17   1
   9  -6 -14 7367.41 1983.99   1
   6  -9  14 6394.92 2005.09   2
   9  -3 -14 9298.65 2282.00   1
   3  -9  13 2.30640 636.888   1
   6  -9  13 203.351 674.126   1
  -9   6  13-1142.00 938.025   1
  -3   9 -13-374.863 469.153   1
  -6   9 -13 611.599 587.157   1
  -9   3  13-292.713 353.874   1
   3  -9  13-606.356 922.337   2
   9  -6 -13-340.701 837.319   1
   6  -9  13 293.460 959.874   2
   9  -3 -13-4.19120 716.052   1
   3  -9  12 74522.8 6380.72   1
   6  -9  12 70524.0 6132.56   1
  -3   9 -12 80232.4 6532.19   1
  -6   9 -12 72906.2 6047.45   1
   3  -9  12 77511.5 5951.11   2
   9  -6 -12 62582.3 5788.25   1
   9  -3 -12 82307.5 6470.32   1
  -9   6  12 62963.0 6016.44   1
   6  -9  12 68891.8 6191.72   2
   3  -9  11 1333.73 602.981   1
   6  -9  11 1194.03 747.961   1
  -9   6  11 667.083 521.865   1
  -3   9 -11 1584.96 873.407   1
  -9   3  11-447.621 635.436   1
  -6   9 -11 1701.95 990.139   1
   3  -9  11 1643.11 961.520   2
   9  -6 -11 1855.01 1042.48   1
   6  -9  11 938.987 746.057   2
   9  -3 -11 1950.82 989.023   1
  -9   6  10 9733.01 2172.23   1
   3  -9  10 8515.58 2124.25   1
   6  -9  10 7157.98 1814.28   1
  -3   9 -10 6076.54 1745.62   1
  -9   3  10 7853.94 1909.46   1
   3  -9  10 7006.05 1786.28   2
   9  -6 -10 11751.4 2245.56   1
  -6   9 -10 7678.62 1874.60   1
   9  -3 -10 8092.51 2031.08   1
   6  -9  10 6913.25 2032.72   2
  -9   6   9 8264.75 1988.93   1
   3  -9   9 8149.87 1883.57   1
   6  -9   9 7774.81 1930.29   1
  -9   3   9 8983.82 2138.17   1
   9  -6  -9 9224.95 1929.56   1
   3  -9   9 7529.59 1708.84   2
  -6   9  -9 8659.56 2037.85   1
   9  -3  -9 8486.24 1973.47   1
   6  -9   9 6755.70 1881.08   2
  -3   9  -9 9346.23 2005.07   1
   3  -9   8 135649. 8280.72   1
   6  -9   8 138324. 8285.77   1
  -3   9  -8 145850. 8253.48   1
  -6   9  -8 152941. 8554.00   1
  -9   6   8 158393. 8899.30   1
   9  -6  -8 127979. 7867.97   1
   9  -3  -8 136300. 8017.10   1
   3  -9   8 134312. 7955.45   2
  -9   3   8 147540. 8612.32   1
   6  -9   8 152938. 8607.86   2
   3  -9   7 4406.71 1564.57   1
   6  -9   7 2899.69 1220.86   1
  -9   3   7 2761.78 1103.89   1
  -3   9  -7 2802.47 1023.91   1
   9  -6  -7 3326.37 1216.31   1
  -9   6   7 2957.90 1167.46   1
   3  -9   7 2043.17 858.978   2
   9  -3  -7 1718.64 1097.78   1
   6  -9   7 2659.46 1206.83   2
  -6   9  -7 2351.70 876.413   1
  -9   3   6 1451.06 921.198   1
   6  -9   6 708.255 776.910   1
  -3   9  -6 707.755 394.625   1
  -9   6   6 521.425 655.150   1
   9  -6  -6 1749.98 1058.30   1
   3  -9   6 908.824 665.767   2
   9  -3  -6 795.790 719.036   1
   6  -9   6 1146.80 1060.65   2
  -6   9  -6 1106.76 809.379   1
  -9   3   5 17559.0 2802.06   1
   6  -9   5 21914.8 2858.35   1
  -9   6   5 18981.1 2822.69   1
  -6   9  -5 16567.2 2698.38   1
   9  -3  -5 20792.7 2878.01   1
   9  -6  -5 20316.0 2773.86   1
   6  -9   5 25318.3 3183.11   2
   3  -9   5 16889.1 2641.93   2
   6  -9   4 315531. 12476.8   1
  -9   6   4 326852. 12841.7   1
   9  -6  -4 299553. 12428.2   1
  -9   3   4 330197. 12834.9   1
  -6   9  -4 287093. 12287.9   1
   9  -3  -4 303726. 12467.6   1
   3  -9   4 302928. 12525.6   2
   6  -9   4 293867. 12444.5   2
  -6   9  -3-721.297 523.169   1
  -9   6   3-94.9143 292.776   1
   6  -9   3-552.297 587.352   1
  -9   3   3 271.011 331.627   1
   9  -3  -3 656.125 709.128   1
   3  -9   3 800.200 443.811   2
   9  -6  -3-377.559 454.708   1
   6  -9   3-553.400 937.105   2
  -6   9  -2 5767.80 1562.35   1
  -9   6   2 4799.75 1499.73   1
   6  -9   2 6614.82 1505.47   1
  -9   3   2 6026.42 1466.97   1
  -3  -6  -2 5120.61 1319.70   2
   9  -6  -2 4666.27 1361.05   1
   9  -3  -2 4735.92 1331.09   1
   3  -9   2 5097.41 1378.65   2
   6  -9   2 7139.23 1593.03   2
  -9   6   1 437.066 817.117   1
  -6   9  -1 942.276 738.332   1
  -9   3   1 1259.14 826.555   1
   6  -9   1 1085.04 605.870   1
  -3  -6  -1 1046.50 954.817   2
   9  -6  -1 1272.35 898.844   1
   9  -3  -1 1575.48 933.194   1
   3  -9   1 1147.04 789.064   2
   6  -9   1 2022.50 1101.07   2
  -9   6   0 341299. 12972.8   1
  -9   3   0 337796. 12957.4   1
   6  -9   0 282652. 11709.8   1
   9  -6   0 296926. 12673.8   1
   9  -3   0 350429. 13470.8   1
  -3  -6   0 319893. 13179.4   2
   3  -9   0 338049. 12686.4   2
  -6   9   0 380435. 13337.0   1
   6  -9   0 406564. 14527.6   2
  -9   3  -1 5458.25 1535.25   1
  -6   9   1 5555.98 1226.66   1
   6  -9  -1 4279.26 1210.29   1
   9  -6   1 5405.69 1536.24   1
  -3  -6   1 3836.49 1406.51   2
   9  -3   1 4299.71 1334.54   1
   6   3  -1 4823.62 1330.83   1
  -9   6  -1 3438.62 1136.92   1
   6  -9  -1 4419.93 1293.29   2
  -6  -3   2 2723.67 1139.94   1
  -6   9   2 4000.42 1373.94   1
   9  -6   2 3600.18 1165.52   1
   9  -3   2 3782.55 1379.06   1
  -3  -6   2 3348.36 1200.79   2
  -9   6  -2 4227.20 1488.51   1
   6   3  -2 3280.27 973.081   1
  -9   3  -2 3645.81 1209.14   1
  -3  -6   3 7959.51 1992.42   2
  -6  -3   3 12088.7 2063.24   1
   9  -6   3 7151.70 1722.55   1
  -6  -3   3 7325.61 1794.79   2
   9  -3   3 11526.8 2144.05   1
  -9   6  -3 7989.09 1879.32   1
  -9   3  -3 8512.64 1763.37   1
   6   3  -3 8003.24 1796.81   1
   9  -6   4 157417. 8617.64   1
   9  -3   4 172109. 8852.98   1
  -3  -6   4 149681. 8634.00   2
   6   3  -4 191195. 9347.23   1
  -9   6  -4 148865. 8131.85   1
  -6  -3   4 134669. 8206.07   2
  -6  -3   4 157111. 8205.33   1
  -9   3  -4 142832. 8022.83   1
   9  -6   4 127707. 8162.72   2
  -9   6  -5 1693.45 881.389   1
   9  -6   5 1495.65 795.418   1
   9  -3   5 769.337 399.778   1
  -9   3  -5 1333.07 755.999   1
  -6  -3   5 1999.41 1145.87   2
  -3  -6   5 967.825 815.913   2
  -6  -3   5 411.130 629.563   1
   6   3  -5 1570.54 769.230   1
   9  -6   5 2862.76 1402.16   2
  -6  -3   6 160.861 537.261   1
  -9   6  -6 459.465 712.193   1
   9  -6   6 223.477 661.566   1
  -9   3  -6 43.2910 345.558   1
   9  -3   6-140.931 518.248   1
  -6  -3   6-129.642 624.643   2
  -3  -6   6 644.655 713.374   2
   9  -6   6-504.000 326.918   2
   6   3  -6-114.641 831.716   1
  -6  -3   7 13598.9 2393.89   1
   9  -6   7 16895.6 2768.37   1
  -9   6  -7 10939.4 2139.31   1
  -9   3  -7 13545.1 2401.87   1
   9  -3   7 11733.7 2247.72   1
  -6  -3   7 13628.9 2580.96   2
  -3  -6   7 11981.0 2420.60   2
   3   6  -7 15292.2 2681.70   1
   9  -6   7 13403.2 2579.37   2
   6   3  -7 12926.3 2353.87   1
   9  -6   8 175033. 9495.70   1
  -3  -6   8 184632. 9869.68   1
   9  -3   8 195503. 9891.75   1
  -6  -3   8 194109. 9674.16   1
  -6  -3   8 190507. 10055.0   2
  -3  -6   8 166477. 9390.96   2
  -9   6  -8 203275. 9917.64   1
   6   3  -8 183587. 9984.81   1
  -9   3  -8 167651. 9152.19   1
   3   6  -8 201402. 10242.3   1
   9  -6   8 186351. 9851.54   2
   6   3  -9 337.114 578.636   1
   3   6  -9 1764.35 1231.56   1
  -9   6  -9 1485.72 870.792   1
  -9   3  -9 1567.96 710.495   1
  -6  -3   9 1484.26 956.010   2
   9  -6   9 1341.65 791.234   1
   9  -3   9 1325.24 946.781   1
  -6  -3   9 933.903 816.528   1
  -3  -6   9 453.353 742.335   2
   9  -6   9 2125.24 1084.85   2
   6   3 -10 7432.75 1956.58   1
  -3  -6  10 5626.27 1523.14   1
  -9   6 -10 7028.11 1833.49   1
   3   6 -10 7792.29 1855.46   1
  -9   3 -10 6946.72 1826.15   1
   9  -6  10 6630.46 1729.63   1
   9  -3  10 6656.50 1723.25   1
  -6  -3  10 6649.47 1919.02   2
  -6  -3  10 9165.67 2029.98   1
  -3  -6  10 5975.81 1401.16   2
   9  -6  10 7731.63 1743.49   2
   9  -3  10 3430.68 1383.64   2
   6   3 -11 1146.72 869.422   1
  -3  -6  11 801.673 597.609   1
  -9   6 -11 800.818 713.453   1
  -9   3 -11 1851.50 1017.45   1
   3   6 -11 259.375 526.997   1
   9  -6  11 135.450 527.516   1
   9  -3  11 2111.35 1033.00   1
  -6  -3  11 1551.73 1036.88   2
  -3  -6  11 1844.24 1016.23   2
  -6  -3  11 1255.19 659.675   1
   9  -6  11 742.240 324.886   2
   9  -3  11 910.120 582.136   2
   9  -6  12 133729. 8327.50   1
   9  -3  12 133629. 8342.11   1
  -9   6 -12 132669. 8275.32   1
  -9   3 -12 121715. 8024.27   1
  -6  -3  12 120468. 8104.11   2
  -3  -6  12 129940. 8407.01   2
  -6  -3  12 105969. 7544.47   1
   6   3 -12 124393. 8218.18   1
   9  -6  12 128235. 7942.18   2
   3   6 -12 120722. 8238.54   1
  -3  -6  12 112118. 8111.17   1
   6   3 -13 3426.85 1253.81   1
  -3  -6  13 1439.47 901.964   1
   3   6 -13 2159.58 1159.06   1
   9  -6  13 1631.42 946.595   1
   9  -3  13 2945.15 1316.39   1
  -6  -3  13 1245.96 806.632   2
  -3  -6  13 3793.81 1368.44   2
   9  -6  13 1335.89 853.485   2
   9  -3  13 1408.19 813.990   2
  -6  -3  13 1130.22 1039.80   1
  -9   6 -13 542.372 514.846   1
  -9   3 -13 1085.32 821.914   1
  -6  -3  14 3467.56 1268.84   1
   6   3 -14 4225.31 1568.25   1
  -3  -6  14 3024.70 1368.39   1
   3   6 -14 3743.53 1500.33   1
   9  -6  14 3756.18 1471.20   1
   9  -3  14 3115.91 1223.44   1
  -6  -3  14 2688.68 1402.23   2
  -3  -6  14 3006.37 1330.95   2
  -9   6 -14 4183.13 1421.21   1
   9  -6  14 4751.36 1579.54   2
  -9   3 -14 3456.66 1320.30   1
   9  -3  14 1511.91 722.248   2
   6   3 -15 4707.27 1391.84   1
  -3  -6  15 4094.02 1665.30   1
  -6  -3  15 2381.13 1266.08   1
   3   6 -15 2807.02 1245.96   1
   9  -6  15 3283.14 1381.56   1
   9  -3  15 4020.91 1566.71   1
  -6  -3  15 2439.64 1351.53   2
  -3  -6  15 2934.73 1188.17   2
  -9   6 -15 2453.48 1105.99   1
  -9   3 -15 2469.85 1017.55   1
   9  -6  15 3343.57 1454.57   2
   9  -3  15 804.250 340.849   2
   2  -9  15 1935.82 1135.09   1
  -9   7  15 1582.66 1235.92   1
  -2   9 -15 2619.54 1249.85   1
   9  -7 -15 1167.09 763.900   1
   2  -9  14 40521.3 4938.36   1
  -2   9 -14 40670.0 4770.19   1
  -9   2  14 71765.4 6028.00   1
   7  -9  14 54041.7 5361.65   1
  -7   9 -14 56890.7 5367.47   1
   9  -7 -14 32381.4 4252.63   1
  -9   7  14 39802.3 4947.68   1
   2  -9  14 52901.1 5187.01   2
   9  -2 -14 49841.7 5075.41   1
   7  -9  14 47602.9 5183.71   2
   2  -9  13 3089.56 1251.74   1
  -9   7  13 2806.51 1410.59   1
   7  -9  13 5416.34 1705.47   1
  -2   9 -13 3726.77 1397.17   1
  -7   9 -13 4971.91 1706.58   1
   2  -9  13 4214.48 1567.78   2
   9  -7 -13 3044.25 1161.80   1
  -9   2  13 6395.41 1743.46   1
   7  -9  13 5156.32 1708.43   2
   9  -2 -13 5889.31 1721.51   1
  -9   7  12 7737.00 1971.35   1
   2  -9  12 7848.15 2022.25   1
   7  -9  12 8232.11 2108.59   1
  -2   9 -12 9751.47 2344.36   1
   2  -9  12 8100.40 2027.11   2
  -9   2  12 9499.42 2300.56   1
   9  -7 -12 7963.35 1960.07   1
  -7   9 -12 9912.58 2136.65   1
   7  -9  12 7214.62 2130.33   2
   9  -2 -12 9202.51 2119.38   1
  -2   9 -11 19875.6 3237.91   1
   7  -9  11 18292.8 3029.93   1
   2  -9  11 16167.8 2918.12   1
  -7   9 -11 22701.6 3253.40   1
  -9   7  11 16216.4 2855.84   1
   2  -9  11 20623.1 3130.13   2
   9  -7 -11 18360.4 2918.29   1
   7  -9  11 17125.2 2963.40   2
   9  -2 -11 18006.6 2970.97   1
  -9   2  11 21856.7 3370.97   1
   2  -9  10 22428.3 3280.88   1
  -2   9 -10 18569.2 3067.89   1
   7  -9  10 24530.5 3446.31   1
  -7   9 -10 25241.7 3434.40   1
   9  -7 -10 17951.9 2972.03   1
   9  -2 -10 20493.9 3142.99   1
   2  -9  10 22288.0 3168.70   2
   7  -9  10 19195.2 3254.82   2
  -9   2  10 21242.4 3227.42   1
  -9   7  10 17619.5 2969.94   1
  -2   9  -9 20875.5 3177.93   1
   7  -9   9 22975.2 3332.59   1
   2  -9   9 7303.13 2265.84   1
  -7   9  -9 21170.6 3131.60   1
  -9   7   9 19765.3 3096.02   1
   9  -7  -9 19876.5 2992.44   1
   9  -2  -9 26685.9 3308.61   1
   7  -9   9 21205.7 3245.14   2
   2  -9   9 18733.0 2998.52   2
  -9   2   9 21814.7 3193.06   1
   7  -9   8 1474.76 1029.30   1
  -2   9  -8-209.128 481.979   1
  -9   2   8 1252.24 1128.16   1
  -9   7   8 988.529 721.732   1
   9  -7  -8 603.493 697.716   1
   2  -9   8-953.097 769.166   2
   9  -2  -8 203.593 432.233   1
   7  -9   8 1524.68 784.107   2
  -7   9  -8 1177.84 782.938   1
   7  -9   7 25782.5 3400.03   1
  -9   7   7 22784.8 3142.14   1
  -7   9  -7 27041.5 3524.61   1
   9  -7  -7 27266.6 3474.20   1
   9  -2  -7 25995.4 3495.26   1
   2  -9   7 27970.0 3311.63   2
  -9   2   7 32774.5 3887.20   1
   7  -9   7 24860.7 3447.65   2
   7  -9   6 143253. 8655.35   1
  -9   7   6 198572. 9790.82   1
   9  -7  -6 180189. 9320.88   1
  -7   9  -6 184795. 9599.77   1
   9  -2  -6 193220. 9650.63   1
  -9   2   6 161924. 9049.20   1
   2  -9   6 164651. 8989.44   2
   7  -9   6 170331. 9224.07   2
   7  -9   5 79926.8 5879.81   1
  -9   7   5 79104.5 5813.52   1
   9  -7  -5 85480.3 6095.71   1
   9  -2  -5 64080.3 5470.42   1
  -7   9  -5 82732.5 6084.66   1
  -9   2   5 68122.9 5539.49   1
   2  -9   5 80915.6 5949.78   2
   7  -9   5 78410.8 5988.68   2
  -9   7   4 112151. 7010.23   1
   7  -9   4 104255. 6749.32   1
   9  -7  -4 100712. 6706.90   1
  -9   2   4 97545.9 6647.14   1
   9  -2  -4 95655.1 6575.78   1
  -7   9  -4 113514. 7067.34   1
   2  -9   4 87828.8 6331.83   2
   7  -9   4 95285.3 6757.03   2
  -9   7   3 74435.1 5697.91   1
   7  -9   3 90269.2 6012.71   1
   9  -7  -3 72138.2 5617.10   1
  -9   2   3 73551.3 5776.78   1
   9  -2  -3 60552.9 5255.39   1
   2  -9   3 92251.3 6108.05   2
  -7   9  -3 86286.1 6073.88   1
   7  -9   3 95638.3 6635.81   2
  -9   7   2 191377. 9590.37   1
   7  -9   2 185925. 9447.98   1
  -9   2   2 225360. 10339.6   1
   9  -7  -2 212425. 10123.4   1
   9  -2  -2 199358. 9797.37   1
  -2  -7  -2 223307. 10293.0   2
   2  -9   2 216775. 10131.5   2
  -7   9  -2 233241. 10441.4   1
  -7   9  -1 772.252 387.445   1
  -9   2   1 775.911 698.457   1
   7  -9   1 1612.32 912.652   1
   9  -7  -1 2269.39 848.935   1
  -2  -7  -1 1167.11 844.936   2
   7   2   1 1582.07 871.187   1
   9  -2  -1 370.267 713.139   1
   2  -9   1 1339.13 818.388   2
   7  -9   1 1753.49 906.029   2
  -9   7   1 1434.08 1133.10   1
  -9   2   0 151.066 407.805   1
  -7  -2   0 100.583 572.170   1
  -7   9   0 468.135 763.999   1
   7  -9   0 593.453 569.174   1
   9  -7   0-916.182 873.659   1
  -2  -7   0 187.132 634.600   2
   9  -2   0-358.374 579.281   1
   7   2   0 585.485 522.989   1
  -9   7   0 493.025 507.764   1
   7  -9   0-109.842 681.937   2
  -9   2  -1 2999.88 990.324   1
  -7   9   1 4194.50 1199.26   1
   7  -9  -1 4587.97 1306.56   1
   9  -7   1 3729.97 1286.22   1
  -2  -7   1 4106.69 1335.76   2
   9  -2   1 4056.20 1391.65   1
  -9   7  -1 6187.13 1618.33   1
   7   2  -1 5358.87 1436.93   1
  -7  -2   1 6418.33 1482.32   1
   7  -9  -1 5400.02 1466.13   2
   9  -7   1 4705.90 1421.23   2
  -9   2  -2 36915.5 3839.76   1
   7  -9  -2 46272.2 4189.59   1
   9  -7   2 55855.4 4892.83   1
   9  -2   2 38612.4 4090.39   1
   7   2  -2 50030.2 4537.90   1
  -2  -7   2 46630.2 4518.87   2
  -7  -2   2 41844.8 4106.04   1
  -7   9   2 45993.8 4266.59   1
   9  -7   2 36407.8 4195.15   2
  -9   7  -2 48404.8 4428.57   1
  -9   2  -3 118469. 7183.21   1
   9  -7   3 116211. 7269.17   1
   7  -9  -3 119855. 7009.81   1
   9  -2   3 93876.3 6592.31   1
   7   2  -3 107834. 7104.01   1
  -2  -7   3 123017. 7659.95   2
  -7  -2   3 139455. 7817.26   1
  -9   7  -3 125647. 7291.22   1
   9  -7   3 121880. 7746.29   2
  -7   9   3 116808. 7049.12   1
  -9   7  -4 12184.2 2361.66   1
   9  -7   4 9836.47 2006.57   1
  -7  -2   4 14671.2 2326.57   1
   7  -9  -4 9723.40 1916.18   1
   9  -2   4 10251.2 2090.15   1
  -2  -7   4 10149.4 2209.46   2
  -7   9   4 9132.66 1885.74   1
  -9   2  -4 11867.8 2211.54   1
   7   2  -4 8617.37 2007.25   1
   9  -7   4 9851.52 2134.54   2
   9  -7   5 76875.7 5809.47   1
   9  -2   5 75335.0 5845.51   1
  -2  -7   5 68290.2 5473.28   2
   7   2  -5 78654.8 6073.65   1
  -9   7  -5 69829.9 5578.39   1
   9  -7   5 64527.9 5354.08   2
  -7  -2   5 69525.7 5490.53   1
  -9   2  -5 80976.5 5668.83   1
  -7  -2   6 162364. 8704.55   1
   9  -7   6 152099. 8673.59   1
   9  -2   6 190752. 9611.76   1
  -2  -7   6 159635. 8933.19   2
   7   2  -6 125426. 8127.85   1
  -9   7  -6 142988. 8354.67   1
   9  -7   6 174436. 8883.13   2
  -9   2  -6 186579. 9099.48   1
  -7  -2   6 141381. 8749.68   2
  -9   7  -7 7370.13 1903.53   1
  -9   2  -7 5745.44 1641.39   1
   9  -7   7 6030.86 1712.80   1
   9  -2   7 6960.73 1731.54   1
  -7  -2   7 5665.07 1542.35   2
  -2  -7   7 6116.67 1711.49   2
   7   2  -7 5715.89 1488.71   1
   9  -7   7 4963.29 1568.94   2
  -7  -2   7 4874.04 1579.04   1
  -7  -2   8 30935.7 3780.97   1
   9  -7   8 31782.1 3812.45   1
   9  -2   8 23430.6 3241.31   1
  -7  -2   8 26296.8 3562.54   2
  -2  -7   8 24501.5 3510.67   2
  -9   7  -8 31735.5 3785.50   1
   7   2  -8 28556.9 3600.45   1
  -9   2  -8 30935.1 3739.99   1
   9  -7   8 32578.4 3757.02   2
  -9   7  -9 15036.1 2620.01   1
  -7  -2   9 12688.6 2440.38   1
   9  -7   9 14921.2 2554.21   1
   9  -2   9 13121.6 2432.39   1
  -7  -2   9 13635.2 2675.91   2
  -9   2  -9 17392.8 2764.40   1
  -2  -7   9 13545.7 2582.77   2
   9  -7   9 14057.3 2467.52   2
   7   2  -9 12081.1 2472.73   1
   9  -7  10 97259.8 6920.44   1
   9  -2  10 90975.9 6789.25   1
  -7  -2  10 94725.9 6835.03   1
  -9   7 -10 96263.6 7005.49   1
  -7  -2  10 102031. 7445.21   2
  -2  -7  10 78130.4 6566.52   2
  -9   2 -10 86935.5 6402.34   1
   7   2 -10 97365.6 6960.60   1
   9  -7  10 90917.7 6581.06   2
   2   7 -10 93780.4 6933.18   1
   9  -7  11 33783.4 4072.51   1
   9  -2  11 27800.1 3733.39   1
  -7  -2  11 36404.7 4126.68   1
  -9   7 -11 41126.2 4344.11   1
  -9   2 -11 44944.2 4549.29   1
  -7  -2  11 22324.3 3615.77   2
  -2  -7  11 34106.7 4167.09   2
   7   2 -11 40047.1 4488.14   1
   9  -7  11 32315.1 3913.28   2
   2   7 -11 32341.7 4032.80   1
   9  -2  11 10297.9 2394.00   2
  -2  -7  11 35091.4 4282.73   1
   7   2 -12 6489.43 1872.66   1
  -9   2 -12 4835.94 1567.95   1
  -2  -7  12 4416.09 1528.49   1
   2   7 -12 6692.16 1776.66   1
   9  -7  12 3615.19 1159.94   1
   9  -2  12 3761.19 1354.92   1
  -7  -2  12 3658.34 1337.35   1
  -7  -2  12 1451.50 714.655   2
  -2  -7  12 3493.54 1289.46   2
   9  -7  12 5543.01 1554.69   2
   9  -2  12 1371.29 934.670   2
  -9   7 -12 5258.40 1559.41   1
   7   2 -13 15609.5 2660.70   1
  -2  -7  13 7674.11 2199.70   1
   2   7 -13 12597.8 2512.16   1
  -7  -2  13 12888.6 2765.75   2
   9  -7  13 13620.8 2516.28   1
  -7  -2  13 14878.7 2612.53   1
  -2  -7  13 12439.0 2525.67   2
   9  -7  13 10261.5 2343.24   2
  -9   7 -13 18405.9 2957.86   1
  -2  -7  14 16936.1 3131.58   1
   9  -7  14 20966.2 3254.02   1
  -9   7 -14 21498.1 3227.37   1
  -7  -2  14 20928.8 3358.39   1
  -7  -2  14 19836.1 3508.16   2
  -2  -7  14 22061.9 3313.60   2
   7   2 -14 22253.5 3407.82   1
   9  -7  14 24067.0 3512.37   2
   2   7 -14 17946.2 3218.03   1
  -2  -7  15 3246.89 1347.53   1
   2   7 -15 5343.09 1726.00   1
  -7  -2  15 4386.31 1789.56   2
   1  -9  14 23899.7 3784.34   1
  -1   9 -14 20926.1 3445.22   1
  -9   1  13 35004.6 4252.14   1
   8  -9  13 29508.1 3790.77   1
  -8   9 -13 28905.7 3845.41   1
   1  -9  13 25828.1 3645.41   2
   9  -1 -13 31043.6 3933.38   1
   8  -9  13 27571.0 3858.00   2
  -1   9 -13 22759.0 3595.40   1
   8  -9  12 7356.85 2050.58   1
  -1   9 -12 4338.42 1604.34   1
   1  -9  12 5880.27 1843.15   2
  -9   8  12 2641.01 1485.36   1
  -9   1  12 4565.40 1474.97   1
  -8   9 -12 6225.88 1733.25   1
   8  -9  12 5425.16 1880.66   2
   9  -1 -12 3780.06 1312.68   1
   8  -9  11 4616.61 1419.04   1
  -9   8  11 3465.26 1565.16   1
   9  -8 -11 2903.40 1177.22   1
   1  -9  11 2400.36 1183.72   2
  -9   1  11 5027.83 1576.62   1
   8  -9  11 3341.29 1263.20   2
   9  -1 -11 4558.26 1417.22   1
  -8   9 -11 4632.25 1534.51   1
   8  -9  10 52939.8 5106.78   1
  -9   8  10 50584.1 5120.04   1
  -8   9 -10 63383.4 5572.73   1
   9  -8 -10 52816.6 5077.83   1
   9  -1 -10 58559.4 5435.84   1
   1  -9  10 54353.8 5111.61   2
   8  -9  10 53615.5 5444.86   2
  -9   1  10 62125.9 5700.56   1
   8  -9   9 15114.2 2635.66   1
  -9   8   9 14489.5 2599.93   1
  -9   1   9 15151.8 2599.64   1
   9  -8  -9 12353.3 2385.80   1
   1  -9   9 15764.2 2633.45   2
   8  -9   9 16931.9 2913.41   2
   9  -1  -9 19336.7 2989.54   1
  -8   9  -9 16559.8 2821.19   1
  -8   9  -8 3433.06 1431.69   1
   8  -9   8 3219.95 1203.52   1
  -9   8   8 2902.87 1196.15   1
  -9   1   8 2151.69 937.050   1
   9  -8  -8 1312.82 856.996   1
   1  -9   8 4004.90 1388.44   2
   9  -1  -8 2089.88 1108.24   1
   8  -9   8 3048.38 1269.86   2
   8  -9   7 28013.3 3641.14   1
  -9   8   7 27884.3 3605.48   1
   9  -8  -7 24478.3 3356.05   1
  -8   9  -7 32209.5 3875.19   1
   9  -1  -7 33091.0 3921.39   1
   1  -9   7 30463.8 3809.47   2
  -9   1   7 23935.4 3420.66   1
   8  -9   7 29363.2 3651.35   2
   8  -9   6 62285.3 5561.87   1
  -9   8   6 76902.6 5957.82   1
   9  -8  -6 82403.5 6067.15   1
  -8   9  -6 57601.9 5239.66   1
   9  -1  -6 57377.0 5266.49   1
   1  -9   6 63252.1 5330.79   2
  -9   1   6 69531.8 5698.78   1
   8  -9   6 62197.0 5390.19   2
  -9   8   5 15038.7 2463.68   1
  -8   9  -5 13939.4 2500.54   1
  -9   1   5 12001.1 2449.32   1
   9  -8  -5 15838.8 2649.51   1
   8  -9   5 9361.39 1988.66   1
   1  -9   5 13598.3 2496.28   2
   9  -1  -5 11057.5 2208.48   1
   8  -9   5 15723.6 2623.16   2
  -9   8   4 46650.4 4474.43   1
   8  -9   4 50557.5 4799.47   1
   9  -8  -4 42531.2 4301.37   1
   9  -1  -4 56191.4 4905.29   1
  -9   1   4 44579.9 4474.13   1
   1  -9   4 50294.3 4649.00   2
  -8   9  -4 42911.9 4377.57   1
   8  -9   4 57566.6 5189.08   2
  -9   8   3 34629.4 3763.99   1
   8  -9   3 42785.3 4286.53   1
   8   1   3 28069.0 3379.19   1
   9  -8  -3 31895.2 3619.20   1
  -9   1   3 29004.1 3710.36   1
   9  -1  -3 25403.1 3182.31   1
   1  -9   3 26732.5 3422.40   2
  -8   9  -3 31030.4 3688.35   1
   8  -9   3 39965.9 4343.11   2
   9  -8  -3 10946.7 2913.11   2
  -9   8   2 185981. 9270.87   1
  -8  -1  -2 205144. 9332.07   1
   8  -9   2 184298. 9364.41   1
   9  -8  -2 157716. 8752.72   1
  -9   1   2 165673. 8979.52   1
   8   1   2 182181. 9235.81   1
   9  -1  -2 141461. 8307.57   1
   1  -9   2 167762. 9101.77   2
  -8   9  -2 193745. 9529.79   1
   8  -9   2 189444. 10046.5   2
   9  -8  -2 134745. 9303.52   2
  -9   8   1 50962.8 4679.56   1
  -8  -1  -1 48192.8 4470.83   1
   8  -9   1 45610.0 4423.21   1
  -9   1   1 57761.7 4863.64   1
   9  -8  -1 63684.5 5231.55   1
   8   1   1 45320.3 4545.16   1
   9  -1  -1 55833.8 4867.26   1
   1  -9   1 57602.6 4993.77   2
  -8   9  -1 67430.8 5306.73   1
   9  -8  -1 33875.9 4455.93   2
  -9   1   0 8539.63 1788.36   1
  -8  -1   0 11959.8 2097.37   1
  -8   9   0 11363.2 2117.25   1
   8  -9   0 9015.29 1972.35   1
   9  -8   0 10596.1 2026.32   1
  -1  -8   0 7631.95 1919.76   2
   9  -1   0 8303.23 1900.04   1
  -9   8   0 9433.83 2063.46   1
   8   1   0 9041.31 1892.25   1
   8  -9   0 11143.3 2586.38   2
   9  -8   0 8994.56 2041.94   2
  -9   1  -1 59848.5 4848.23   1
   8  -9  -1 42712.6 4251.37   1
   9  -8   1 53180.8 4833.33   1
  -8  -1   1 54342.8 4720.77   1
   9  -1   1 46936.4 4599.21   1
   8   1  -1 39397.2 4105.11   1
  -1  -8   1 41247.8 4477.68   2
   8  -9  -1 64145.2 5996.56   2
   9  -8   1 28522.1 4202.68   2
  -8   9   1 50124.8 4684.89   1
  -9   8  -1 43735.7 4294.74   1
  -9   1  -2 106242. 6642.70   1
   9  -8   2 80632.5 6093.72   1
   8  -9  -2 78585.4 5899.91   1
   9  -1   2 94974.9 6631.81   1
  -8  -1   2 93836.9 6367.54   1
   8   1  -2 78611.0 6060.83   1
  -1  -8   2 88144.9 6524.76   2
   9  -8   2 91503.5 6814.70   2
  -9   8  -2 96048.6 6481.44   1
  -8   9   2 83549.7 6050.16   1
  -9   1  -3 48314.1 4406.05   1
   9  -8   3 49826.8 4629.42   1
   8  -9  -3 55009.7 4834.50   1
   9  -1   3 46742.0 4580.56   1
   8   1  -3 41233.6 4340.58   1
  -8  -1   3 56223.0 4940.46   1
  -1  -8   3 48105.9 4843.86   2
  -9   8  -3 56282.0 4809.55   1
   9  -8   3 57936.4 5038.23   2
  -8   9   3 58586.5 4977.46   1
  -8  -1   4 3429.71 1198.46   1
  -9   8  -4 3311.95 1277.77   1
   9  -8   4 4141.09 1422.72   1
   9  -1   4 2515.18 1131.21   1
   8  -9  -4 3759.86 1261.01   1
  -1  -8   4 2298.36 986.976   2
  -9   1  -4 4802.25 1482.49   1
  -8   9   4 3437.03 1298.06   1
   8   1  -4 3504.85 1237.54   1
   9  -8   4 3500.60 1133.52   2
  -9   8  -5 10733.5 2159.83   1
  -8  -1   5 12450.8 2373.66   1
   9  -8   5 11920.8 2295.90   1
   9  -1   5 12302.6 2360.52   1
   8  -9  -5 12770.1 2168.20   1
  -9   1  -5 13517.6 2292.43   1
  -1  -8   5 11139.9 2235.08   2
   8   1  -5 8726.75 1984.42   1
  -8   9   5 14996.2 2414.39   1
   9  -8   5 13487.2 2385.45   2
  -8   9   6 94754.6 6585.54   1
   9  -8   6 94787.6 6775.87   1
   9  -1   6 101117. 6915.42   1
   8  -9  -6 84223.3 6117.87   1
  -1  -8   6 80248.8 6245.81   2
   8   1  -6 80916.1 6327.70   1
  -9   8  -6 87344.7 6375.28   1
  -8  -1   6 86573.4 6432.12   1
   9  -8   6 74370.1 5805.71   2
  -9   1  -6 94876.5 6548.49   1
  -8   9   7 5287.47 1493.78   1
  -9   8  -7 4514.20 1441.16   1
  -9   1  -7 4572.34 1476.32   1
   9  -8   7 5170.22 1424.00   1
   9  -1   7 4864.65 1497.03   1
  -8  -1   7 3538.95 1086.81   1
  -1  -8   7 4272.52 1255.32   2
   8   1  -7 4282.28 1400.25   1
   9  -8   7 3562.08 1248.46   2
   9  -8   8 42833.6 4558.71   1
   9  -1   8 40292.9 4474.70   1
  -9   8  -8 49172.1 4808.38   1
  -1  -8   8 47045.9 4696.79   2
   8   1  -8 49978.8 4930.38   1
  -9   1  -8 53873.1 4867.62   1
   9  -8   8 46431.3 4526.18   2
  -8  -1   8 42350.4 4542.21   1
  -8  -1   9 42984.2 4624.26   1
   9  -8   9 45473.5 4701.80   1
   9  -1   9 54320.6 5094.94   1
  -9   8  -9 54198.4 5230.90   1
  -1  -8   9 46954.0 4761.69   2
   8   1  -9 45028.7 4764.99   1
   9  -8   9 48280.9 4491.08   2
  -8  -1  10 61385.9 5639.29   1
   9  -8  10 63450.8 5607.00   1
  -9   8 -10 60738.0 5542.90   1
  -1  -8  10 54388.9 5283.58   2
   8   1 -10 53858.7 5170.66   1
   9  -8  10 60098.7 5263.36   2
  -8  -1  11 27537.3 3800.89   1
   9  -8  11 26256.9 3598.84   1
  -9   8 -11 24329.0 3529.23   1
  -1  -8  11 27149.1 3747.42   2
   8   1 -11 29364.0 3701.79   1
   9  -8  11 22909.5 3200.76   2
  -8  -1  12 750.416 536.343   1
   9  -8  12 1237.54 826.925   1
  -1  -8  12 309.383 498.947   2
   9  -8  12 1535.71 1346.07   2
  -9   8 -12 686.347 818.792   1
   8   1 -12 363.122 404.434   1
   9  -1  12 294.626 456.535   2
  -8  -1  13 5470.98 1633.30   1
   1   8 -13 3762.46 1427.81   1
   9  -8  13 4979.26 1629.29   1
  -8  -1  13 3519.34 1525.19   2
  -1  -8  13 5750.73 1782.00   2
   9  -8  13 5426.58 1813.67   2
  -9   8 -13 4837.33 1597.55   1
   9  -1  13-136.959 870.840   2
   8   1 -13 4483.47 1527.91   1
  -8  -1  14 25837.4 3876.67   2
   1   8 -14 33458.6 4394.01   1
  -9   0   0 737664. 21914.6   1
   9  -9   0 625005. 20800.7   1
   9   0   0 666996. 21676.4   1
   9  -9   0 730910. 24137.7   2
  -9   9   0 634228. 20848.0   1
  -9   0  -1 397.349 319.388   1
  -9   0   1 484.609 427.329   1
  -9   9  -1-567.187 644.105   1
   9  -9   1 173.418 427.792   1
   9  -9  -1-40.0361 389.589   1
  -9   9   1 21.1073 452.323   1
   9   0   1 212.073 640.190   1
   9   0  -1 1873.13 1081.14   1
   9  -9   1 501.908 589.511   2
   9  -9  -1 765.703 633.693   2
  -9   0  -2 22.1686 377.117   1
  -9   9  -2 596.024 511.868   1
   9  -9   2-403.416 299.100   1
   9  -9  -2-857.179 867.681   1
  -9   0   2 1499.40 754.591   1
   9   0   2 318.002 591.975   1
   0  -9   2 841.187 738.235   2
  -9   9   2 488.603 674.391   1
   9   0  -2-276.609 597.303   1
   9  -9   2-285.640 772.875   2
  -9   9  -3 428.557 652.443   1
   9  -9   3 158.558 496.789   1
   9  -9  -3 687.514 806.234   1
   9   0   3 203.708 510.502   1
   0  -9   3 306.211 859.619   2
   9   0  -3-346.149 708.176   1
  -9   9   3 701.642 809.507   1
  -9   0   3-87.6612 355.291   1
  -9   0  -3 536.581 397.430   1
   9  -9   3 634.074 756.623   2
  -9   9   4 30589.6 3613.57   1
   9  -9   4 25681.7 3547.96   1
   9   0   4 20628.3 3149.72   1
   9  -9  -4 23225.2 3231.01   1
   9   0  -4 24727.6 3320.47   1
  -9   0   4 22884.0 3337.37   1
   0  -9   4 26271.3 3474.39   2
  -9   9  -4 21979.3 3197.84   1
   9  -9   4 30716.1 3771.99   2
  -9   0  -4 19266.6 2770.09   1
  -9   0   5 660.465 592.842   1
  -9   9  -5-486.534 663.538   1
   9  -9   5 386.629 571.054   1
   9   0   5-194.352 348.692   1
   9  -9  -5-459.844 490.874   1
   0  -9   5 812.660 750.314   2
   9   0  -5-461.586 783.836   1
   9  -9   5 23.5334 572.232   2
  -9   9   5-174.940 337.378   1
  -9   9   6 3578.82 1337.21   1
  -9   9  -6 4719.12 1432.49   1
  -9   0   6 4121.60 1370.96   1
   9  -9   6 1028.46 643.074   1
   9  -9  -6 2624.22 1085.38   1
   0  -9   6 3116.18 1313.94   2
   9   0  -6 2620.82 1122.74   1
   9  -9   6 2015.14 875.017   2
  -9   9   7 1008.85 784.522   1
  -9   9  -7 164.152 364.178   1
   9  -9   7 286.227 310.714   1
  -9   0   7 830.629 929.216   1
   9  -9  -7 1096.41 818.340   1
   0  -9   7 270.576 723.711   2
   9   0  -7-639.600 759.790   1
   9  -9   7-159.528 528.633   2
  -9   9   8 84196.8 6573.80   1
   9  -9   8 101768. 7137.30   1
   9  -9  -8 73541.1 6133.65   1
  -9   9  -8 100760. 7260.44   1
   9   0  -8 105046. 7344.65   1
   0  -9   8 85181.0 6652.57   2
  -9   0   8 95642.1 7109.49   1
   9  -9   8 95674.1 6890.35   2
  -9   9  -9-571.154 787.844   1
   9  -9   9-628.270 711.224   1
  -9   0   9-520.720 842.898   1
   0  -9   9 1471.82 956.623   2
   9   0  -9-100.109 766.126   1
   9  -9   9-44.0215 495.349   2
   9  -9  10 2084.47 1254.04   1
  -9   0  10 99.1889 725.205   1
   0  -9  10 773.985 554.378   2
   9   0 -10 228.715 426.283   1
   9  -9  10 951.359 606.830   2
  -9   9 -10 1526.35 964.412   1
   9  -9  11 735.090 643.830   1
   0  -9  11 628.558 644.594   2
  -9   0  11-786.328 1188.74   1
   9  -9  11-585.115 919.505   2
   9   0 -11-1132.71 980.294   1
  -9   9 -11-54.6973 383.533   1
  -9   0  12 111562. 7722.78   1
   9  -9  12 100471. 7363.13   1
  -9   9 -12 105978. 7420.92   1
   0  -9  12 82610.2 6732.86   2
   9   0 -12 100241. 7258.21   1
   9  -9  12 81280.3 6745.73   2
   5 -10  14 354.012 562.937   1
  -5  10 -14 621.200 899.410   1
   5 -10  13 82.9997 594.595   1
 -10   5  13 668.952 1265.92   1
  -5  10 -13 655.788 796.012   1
   5 -10  13-835.030 832.641   2
  10  -5 -13-402.654 391.459   1
   5 -10  12 199870. 11553.2   1
  -5  10 -12 243632. 12108.2   1
  10  -5 -12 292074. 13120.0   1
 -10   5  12 311461. 13512.2   1
   5 -10  12 235923. 11669.9   2
   5 -10  11 221.274 447.227   1
 -10   5  11-676.119 891.796   1
  -5  10 -11-203.127 458.342   1
  10  -5 -11 1126.88 858.188   1
   5 -10  11-176.482 358.658   2
 -10   5  10 6044.68 1702.29   1
   5 -10  10 3687.99 1278.59   1
  -5  10 -10 2656.58 1131.57   1
  10  -5 -10 6042.97 1707.30   1
   5 -10  10 5521.04 1522.54   2
 -10   5   9-1040.69 1070.50   1
   5 -10   9-870.159 540.578   1
  -5  10  -9-212.028 571.624   1
  10  -5  -9-276.670 355.082   1
   5 -10   9 864.154 762.730   2
   5 -10   8 32657.0 3977.90   1
  -5  10  -8 36243.2 4166.71   1
  10  -5  -8 37420.0 4094.37   1
 -10   5   8 35402.4 4028.08   1
   5 -10   8 38052.2 4201.29   2
   5 -10   7 551.125 535.831   1
  -5  10  -7 822.842 814.857   1
  10  -5  -7 705.624 410.985   1
   5 -10   7-573.710 735.543   2
 -10   5   7-401.267 408.655   1
   5 -10   6 15946.7 2631.95   1
  -5  10  -6 18463.3 2795.24   1
 -10   5   6 18976.4 2922.31   1
  10  -5  -6 14329.3 2495.05   1
   5 -10   6 16638.4 2863.48   2
 -10   5   5 280.694 361.646   1
  10  -5  -5 454.722 277.876   1
  -5  10  -5-164.303 565.970   1
   5 -10   5 92.7491 400.910   2
 -10   5   4 111919. 7149.68   1
  10  -5  -4 120398. 7440.55   1
   5 -10   4 126802. 7967.71   2
 -10   5   3 692.429 739.853   1
  10  -5  -3 849.303 772.988   1
   5 -10   3-303.004 518.714   2
 -10   5   2 18406.4 2736.88   1
  10  -5  -2 22711.3 3203.18   1
   5 -10   2 18045.5 3035.64   2
 -10   5   1-253.313 489.198   1
  10  -5  -1-134.278 601.338   1
 -10   5   0 489392. 16699.3   1
  10  -5   0 461286. 16770.4   1
  -5  -5   1-112.654 541.052   2
  10  -5   1-85.9170 560.400   1
 -10   5  -1-565.526 601.444   1
  10  -5   2 5148.78 1565.64   1
  -5  -5   2 4099.12 1328.52   2
 -10   5  -2 6282.96 1656.27   1
  10  -5   3 387.431 685.475   1
  -5  -5   3 230.724 633.857   2
 -10   5  -3-134.483 565.537   1
  10  -5   4 108383. 7242.49   1
  -5  -5   4 93939.6 6695.96   2
 -10   5  -4 105196. 6742.55   1
 -10   5  -5 305.907 752.261   1
  10  -5   5 355.084 584.336   1
  -5  -5   5-784.461 771.278   2
 -10   5  -6 3297.41 1334.43   1
  10  -5   6 1601.44 826.149   1
  -5  -5   6 2254.95 1060.21   2
 -10   5  -7-327.514 479.796   1
  10  -5   7-349.278 603.559   1
  -5  -5   7 182.079 558.295   2
  10  -5   7-309.375 590.182   2
  10  -5   8 59028.8 5372.68   1
  -5  -5   8 51915.9 5122.22   2
 -10   5  -8 68951.0 5612.89   1
   5   5  -8 49258.4 5185.82   1
  10  -5   8 54890.8 5237.59   2
   5   5  -9 762.755 872.018   1
 -10   5  -9-213.181 233.636   1
  10  -5   9-346.137 738.437   1
  -5  -5   9 97.8832 735.954   2
  10  -5   9 1470.93 1101.87   2
   5   5 -10 8261.99 2081.56   1
 -10   5 -10 10182.0 2120.07   1
  10  -5  10 11314.3 2180.84   1
  -5  -5  10 10580.4 2219.77   2
  10  -5  10 9501.06 2004.38   2
  -5  -5  10 8696.85 2104.40   1
   5   5 -11 110.892 463.870   1
 -10   5 -11-404.252 630.669   1
  -5  -5  11 115.010 375.882   1
  10  -5  11 149.089 770.711   1
  -5  -5  11 95.3347 859.254   2
  10  -5  11-1388.80 793.692   2
  10  -5  12 166797. 9594.60   1
 -10   5 -12 154664. 9113.56   1
  -5  -5  12 168614. 9684.03   2
   5   5 -12 166425. 9887.05   1
 -10   5 -13-475.501 781.063   1
   5   5 -13-467.285 994.539   1
  10  -5  13-141.621 560.826   1
  -5  -5  13-12.0732 649.435   1
  -5  -5  13-503.803 571.553   2
  10  -5  13-185.874 606.478   2
   5   5 -14 15046.8 2951.87   1
  10  -5  14 15727.2 2748.16   1
 -10   5 -14 14306.7 2754.07   1
  -5  -5  14 10249.0 2357.17   1
   4 -10  14 23297.3 3722.22   1
  -4  10 -14 25223.6 3762.62   1
   4 -10  13 33383.9 4487.18   1
   6 -10  13 37223.9 4627.08   1
  -4  10 -13 35491.7 4398.99   1
  -6  10 -13 36662.1 4328.65   1
  10  -6 -13 32695.7 4040.30   1
  10  -4 -13 40816.2 4638.66   1
 -10   6  13 36988.5 4474.20   1
   4 -10  13 43010.7 4624.36   2
   6 -10  13 45576.1 4670.39   2
 -10   4  13 40427.5 4706.02   1
   4 -10  12 21758.2 3425.54   1
   6 -10  12 25394.3 3812.73   1
  -4  10 -12 24874.0 3645.21   1
  -6  10 -12 28143.9 3653.22   1
  10  -6 -12 28616.0 3789.89   1
  10  -4 -12 28727.9 3807.70   1
 -10   6  12 27747.8 3863.55   1
   4 -10  12 25992.3 3606.13   2
   6 -10  12 25011.1 3655.30   2
 -10   4  12 28501.6 3949.88   1
 -10   6  11 6047.83 1643.80   1
   4 -10  11 5088.87 1578.23   1
   6 -10  11 5042.81 1680.98   1
 -10   4  11 6043.17 1879.32   1
  -4  10 -11 5715.80 1795.03   1
  -6  10 -11 5440.06 1765.76   1
  10  -6 -11 4501.62 1444.07   1
   4 -10  11 4207.31 1316.71   2
  10  -4 -11 7316.54 2001.71   1
   6 -10  11 3902.04 1508.31   2
   4 -10  10 84444.1 6793.51   1
   6 -10  10 78023.6 6441.36   1
  -4  10 -10 88394.6 6835.16   1
  -6  10 -10 96096.9 7031.08   1
  10  -6 -10 94198.7 6936.74   1
 -10   6  10 90062.1 6849.35   1
  10  -4 -10 97440.3 7120.31   1
 -10   4  10 96271.4 7232.66   1
   4 -10  10 95970.9 6790.65   2
   6 -10  10 84573.4 6657.49   2
   4 -10   9 2170.99 1095.08   1
 -10   4   9 6598.70 1742.16   1
   6 -10   9 4297.32 1485.28   1
  -4  10  -9 7160.97 2020.88   1
  -6  10  -9 6309.17 1706.52   1
  10  -6  -9 6623.33 1818.13   1
   4 -10   9 4845.35 1633.70   2
  10  -4  -9 6789.59 1741.86   1
   6 -10   9 4793.65 1626.74   2
 -10   6   9 9702.16 2206.08   1
 -10   4   8 1212.47 827.615   1
   6 -10   8 843.139 570.495   1
  -4  10  -8-325.637 599.836   1
  10  -6  -8 218.004 310.225   1
 -10   6   8 1936.66 1115.67   1
  10  -4  -8 9.61969 536.083   1
   4 -10   8 1515.86 1049.48   2
  -6  10  -8 262.050 374.654   1
   6 -10   8 482.312 603.956   2
   6 -10   7 37699.7 4173.63   1
  -6  10  -7 49589.0 4788.95   1
 -10   6   7 37078.5 4181.33   1
  10  -6  -7 37084.5 4018.51   1
  10  -4  -7 35705.9 4081.07   1
 -10   4   7 46197.9 4599.11   1
   4 -10   7 39259.6 4214.20   2
   6 -10   7 39871.6 4356.18   2
   6 -10   6 40322.1 4254.78   1
 -10   6   6 39199.1 4092.06   1
  -6  10  -6 29445.0 3707.55   1
  10  -6  -6 34688.9 3957.06   1
 -10   4   6 40604.7 4272.39   1
  10  -4  -6 32618.8 3737.91   1
   4 -10   6 34119.7 3939.38   2
   6 -10   6 41980.3 4553.21   2
   6 -10   5 13716.4 2474.62   1
 -10   6   5 13459.7 2393.37   1
  10  -6  -5 14144.0 2542.81   1
 -10   4   5 13308.5 2481.66   1
  10  -4  -5 14848.2 2554.92   1
   4 -10   5 15789.7 2589.19   2
   6 -10   5 17882.9 2881.86   2
  -6  10  -5 12567.3 2343.18   1
 -10   6   4 5180.09 1581.73   1
   6 -10   4 6413.74 1641.61   1
 -10   4   4 4003.64 1201.92   1
  10  -6  -4 3713.87 1338.18   1
  10  -4  -4 2949.50 1074.37   1
   4 -10   4 2850.61 1083.04   2
   6 -10   4 3994.24 1411.33   2
  -6  10  -4 5154.05 1478.45   1
 -10   6   3 27133.9 3302.71   1
 -10   4   3 25886.7 3309.18   1
  10  -6  -3 23768.7 3219.41   1
  -6  10  -3 22428.9 3119.73   1
  10  -4  -3 26941.8 3431.56   1
   4 -10   3 18471.6 2848.60   2
   6 -10   3 23991.3 3685.73   2
 -10   6   2 180347. 9402.53   1
 -10   4   2 204249. 9683.23   1
  10  -6  -2 177329. 9439.48   1
  10  -4  -2 160826. 9005.78   1
   4 -10   2 207370. 10175.4   2
   6 -10   2 198566. 10417.2   2
 -10   6   1 61994.4 5168.92   1
 -10   4   1 62583.5 5224.14   1
  10  -6  -1 65402.4 5422.30   1
  10  -4  -1 60043.9 5258.97   1
  -4  -6  -1 65240.2 5519.23   2
   6 -10   1 64073.8 5622.30   2
 -10   6   0 41688.7 4125.85   1
 -10   4   0 49050.6 4535.43   1
  10  -6   0 38737.4 4178.87   1
  10  -4   0 41176.9 4271.06   1
  -4  -6   0 33453.6 4053.23   2
 -10   6  -1 29734.5 3483.64   1
 -10   4  -1 27725.5 3335.86   1
  10  -6   1 22910.2 3125.78   1
  10  -4   1 25695.7 3353.90   1
  -4  -6   1 23737.1 3329.60   2
 -10   4  -2 132195. 7696.03   1
  10  -6   2 141221. 8158.02   1
  10  -4   2 124000. 7557.70   1
 -10   6  -2 136134. 7896.07   1
 -10   4  -3 22019.7 3015.43   1
  10  -6   3 24305.5 3277.95   1
  10  -4   3 18362.5 2881.31   1
  -4  -6   3 17544.8 3030.53   2
  -6  -4   3 15188.6 2947.66   2
 -10   6  -3 23702.7 3085.35   1
  10  -6   4 2828.71 1420.89   1
 -10   6  -4 3531.89 1257.62   1
  10  -4   4 2323.59 1038.50   1
  -6  -4   4 1132.84 558.642   2
  -4  -6   4 2775.50 1264.85   2
 -10   4  -4 2054.13 826.948   1
 -10   6  -5 9995.48 2030.34   1
  10  -6   5 7553.67 1884.39   1
  10  -4   5 7149.39 1849.65   1
  -6  -4   5 5138.90 1623.86   2
  -4  -6   5 6318.19 1749.88   2
 -10   4  -5 7831.71 1847.79   1
  10  -6   5 5315.11 1573.62   2
  10  -6   6 65001.6 5396.75   1
  10  -4   6 58306.4 5219.73   1
  -6  -4   6 42706.4 4722.80   2
  -4  -6   6 41443.1 4404.82   2
   6   4  -6 50187.3 5097.64   1
 -10   6  -6 57799.4 5017.02   1
 -10   4  -6 58462.1 5136.73   1
  10  -6   6 33920.7 4045.20   2
  -6  -4   7 4367.92 1429.96   1
 -10   6  -7 5126.90 1644.21   1
 -10   4  -7 6290.78 1758.28   1
  10  -6   7 4830.15 1283.00   1
  10  -4   7 3325.41 1051.51   1
  -6  -4   7 3816.46 1590.74   2
  -4  -6   7 6480.85 1987.65   2
  10  -6   7 6153.74 1686.09   2
   6   4  -7 6019.44 1848.42   1
 -10   6  -8 9389.50 2003.09   1
  -6  -4   8 4509.97 1467.86   1
 -10   4  -8 8016.18 1878.68   1
  10  -6   8 8460.19 1877.99   1
  10  -4   8 8813.43 1893.98   1
  -6  -4   8 6455.15 1668.53   2
  -4  -6   8 6633.94 1782.64   2
  10  -6   8 7297.05 1856.77   2
   6   4  -8 7372.09 1871.16   1
  10  -6   9 67998.5 5912.45   1
  10  -4   9 66337.9 5820.04   1
  -6  -4   9 65984.1 5741.96   1
  -6  -4   9 65971.2 5755.29   2
  -4  -6   9 68477.5 5757.47   2
 -10   6  -9 73538.2 5749.08   1
 -10   4  -9 65632.5 5615.01   1
   6   4  -9 70764.0 6191.72   1
  10  -6   9 64278.7 5474.44   2
  10  -6  10 69201.1 5932.05   1
  10  -4  10 54263.7 5364.96   1
  -6  -4  10 52030.9 5249.37   1
  -6  -4  10 58885.4 5460.49   2
  -4  -6  10 64337.2 5830.34   2
 -10   6 -10 66578.1 5704.04   1
 -10   4 -10 54486.0 5268.51   1
   6   4 -10 73185.0 6265.46   1
  10  -6  10 64324.4 5651.50   2
  10  -4  10 38958.6 4667.61   2
  10  -6  11 43833.2 4811.52   1
  10  -4  11 51085.4 5201.56   1
  -6  -4  11 35004.0 4374.39   1
 -10   6 -11 55796.3 5376.77   1
  -6  -4  11 44788.2 4894.16   2
 -10   4 -11 45098.7 4713.82   1
  -4  -6  11 48504.3 5039.61   2
   6   4 -11 39974.7 4722.13   1
   4   6 -11 46223.4 5102.84   1
  10  -6  11 46386.5 4565.47   2
  10  -4  11 29698.8 3948.20   2
   6   4 -12 6114.69 1820.25   1
 -10   6 -12 10347.6 2261.31   1
 -10   4 -12 6426.15 1773.67   1
   4   6 -12 7964.34 2122.90   1
  -4  -6  12 2537.72 1227.12   1
  10  -6  12 8399.99 2091.29   1
  10  -4  12 6936.86 1929.82   1
  -6  -4  12 7951.80 1969.66   2
  -4  -6  12 6554.20 1945.23   2
  -6  -4  12 3217.34 1490.55   1
  10  -6  12 7747.54 2000.84   2
  10  -4  12 5150.41 1431.69   2
 -10   4 -13 105.252 586.140   1
   6   4 -13 18.7876 435.153   1
   4   6 -13-373.518 534.032   1
  -4  -6  13-109.465 740.176   1
  10  -6  13 159.502 344.144   1
  10  -4  13-44.5328 259.310   1
  -6  -4  13-284.437 529.332   2
  -4  -6  13 649.703 512.958   2
  -6  -4  13 583.118 1032.92   1
  10  -6  13 305.497 837.543   2
  10  -4  13 1331.71 1107.33   2
 -10   6 -13 467.036 669.909   1
  -4  -6  14 21345.9 3700.36   1
  10  -4  14 43603.6 4852.35   1
 -10   4 -14 43867.9 4869.11   1
  -6  -4  14 34960.2 4422.31   1
   6   4 -14 43150.5 4955.16   1
   4   6 -14 39675.5 4780.42   1
  10  -4  14 23223.0 3376.44   2
  -3  10 -14 9117.25 2264.32   1
 -10   7  13 704.606 672.621   1
   7 -10  13-884.351 803.863   1
  -3  10 -13-196.181 426.937   1
  -7  10 -13-272.798 620.674   1
  10  -7 -13 341.348 557.050   1
   7 -10  12 6060.49 1773.35   1
  -3  10 -12 4131.55 1646.65   1
 -10   3  12 6233.32 1826.34   1
  -7  10 -12 4457.71 1579.05   1
  10  -7 -12 6823.83 1945.30   1
   3 -10  12 6761.39 1794.08   2
  10  -3 -12 8165.02 2185.09   1
   7 -10  12 3707.40 1424.45   2
 -10   7  12 4241.43 1557.88   1
   7 -10  11 3199.12 1266.05   1
 -10   3  11 5711.37 1656.62   1
  10  -7 -11 5207.63 1739.30   1
   3 -10  11 3893.72 1351.97   2
  -7  10 -11 2916.69 1107.37   1
  10  -3 -11 5180.20 1673.19   1
 -10   7  11 5210.19 1667.96   1
   7 -10  11 3332.77 1429.19   2
   7 -10  10 25759.8 3576.19   1
  -7  10 -10 31223.2 3924.07   1
 -10   7  10 40273.0 4326.38   1
  10  -7 -10 28277.7 3724.37   1
  10  -3 -10 33377.4 4046.03   1
   3 -10  10 30758.2 3844.70   2
 -10   3  10 30260.4 4392.64   1
   7 -10  10 29894.8 3793.30   2
   7 -10   9 19736.3 3195.60   1
  -7  10  -9 24618.1 3547.54   1
 -10   7   9 24395.0 3436.81   1
  10  -3  -9 23543.5 3437.09   1
   3 -10   9 23359.4 3182.48   2
 -10   3   9 24031.9 3697.42   1
   7 -10   9 19589.7 3457.53   2
  10  -7  -9 17294.4 2837.93   1
   7 -10   8 22545.6 3384.94   1
 -10   7   8 21125.4 3199.85   1
 -10   3   8 24356.6 3438.43   1
   7 -10   8 18830.2 3189.67   2
  10  -7  -8 19526.9 2977.01   1
   3 -10   8 17679.7 2862.11   2
  10  -3  -8 20626.2 3106.34   1
  -7  10  -8 19489.5 2979.75   1
   7 -10   7 21788.4 3139.09   1
 -10   7   7 20406.0 3067.37   1
  -7  10  -7 22962.6 3259.60   1
  10  -7  -7 18923.2 2995.81   1
 -10   3   7 20007.2 3211.79   1
   3 -10   7 19752.1 3010.29   2
   7 -10   7 19690.2 3225.43   2
  10  -3  -7 20088.8 2995.13   1
   7 -10   6 106058. 7308.55   1
 -10   7   6 127378. 7848.18   1
  -7  10  -6 126380. 7847.18   1
  10  -7  -6 121281. 7715.96   1
 -10   3   6 133222. 8014.80   1
  10  -3  -6 114531. 7349.85   1
   3 -10   6 111295. 7496.78   2
   7 -10   6 126382. 8088.74   2
   7 -10   5 40672.1 4210.94   1
 -10   7   5 44272.4 4423.97   1
  10  -7  -5 44536.7 4511.35   1
 -10   3   5 32734.5 3885.48   1
  -7  10  -5 40956.8 4383.85   1
  10  -3  -5 38615.2 4216.74   1
   3 -10   5 36459.6 3991.82   2
   7 -10   5 44578.6 4805.17   2
  -7  10  -4 1305.04 946.703   1
 -10   7   4 2095.62 1048.68   1
   7 -10   4 1166.49 495.218   1
 -10   3   4 352.773 822.796   1
  10  -7  -4 1400.23 950.752   1
  10  -3  -4 193.253 705.536   1
   3 -10   4 186.609 360.473   2
   7 -10   4 121.471 611.896   2
 -10   7   3 57832.8 4904.32   1
 -10   3   3 48725.8 4540.33   1
  10  -7  -3 52350.1 4914.09   1
  10  -3  -3 50689.9 4757.46   1
  -7  10  -3 45557.9 4639.56   1
   3 -10   3 52777.2 5015.30   2
   7 -10   3 52231.6 5344.88   2
 -10   7   2 101164. 6556.57   1
   7 -10   2 75244.9 5720.18   1
 -10   3   2 74381.7 5697.12   1
  10  -7  -2 104068. 6884.15   1
  10  -3  -2 80817.5 6173.52   1
  -7  10  -2 99119.1 6756.85   1
   3 -10   2 79333.9 6221.60   2
   7 -10   2 89291.6 7409.24   2
 -10   7   1 35494.4 3836.68   1
 -10   3   1 33971.5 3677.17   1
   7 -10   1 26545.6 3267.09   1
  10  -7  -1 35399.2 3760.75   1
  10  -3  -1 37872.7 4125.80   1
  -3  -7  -1 32550.0 3959.14   2
  -7  10  -1 36483.6 4072.39   1
   7 -10   1 45520.7 5120.77   2
 -10   7   0 23460.2 3141.08   1
 -10   3   0 23537.6 3058.21   1
  10  -7   0 21316.9 2998.21   1
  10  -3   0 24180.4 3215.34   1
  -3  -7   0 19153.8 3167.98   2
  -7  10   0 22316.6 3083.38   1
 -10   3  -1 11620.2 2174.78   1
  10  -7   1 10020.7 1958.48   1
  -3  -7   1 9360.15 2294.26   2
  10  -3   1 9956.96 2096.04   1
 -10   7  -1 11430.1 2287.58   1
 -10   3  -2 92727.2 6289.13   1
  10  -7   2 96749.3 6666.81   1
  10  -3   2 74220.0 5904.94   1
  -3  -7   2 76667.0 6089.13   2
 -10   7  -2 98923.0 6495.40   1
  10  -7   3 917.574 790.982   1
 -10   7  -3 1005.54 954.075   1
  10  -3   3 1019.40 776.523   1
  -3  -7   3 61.5218 253.153   2
 -10   3  -3 694.527 531.212   1
  10  -7   3-115.608 687.021   2
  10  -3   4 19335.4 2960.31   1
 -10   7  -4 21315.2 2869.15   1
  10  -7   4 15010.1 2602.89   1
   7   3  -4 18007.0 3017.43   1
  -3  -7   4 16827.1 2809.98   2
 -10   3  -4 15669.2 2661.60   1
  10  -7   4 9015.81 1959.76   2
  10  -7   5 25094.7 3366.34   1
  10  -3   5 19898.0 2927.36   1
   7   3  -5 27995.1 3667.95   1
  -3  -7   5 19513.7 3037.60   2
 -10   7  -5 23578.4 3332.75   1
  -7  -3   5 25632.3 3567.17   1
  10  -7   5 23410.1 3342.33   2
 -10   3  -5 22949.0 3104.45   1
  10  -7   6 71507.0 5847.51   1
  10  -3   6 59977.3 5395.31   1
  -7  -3   6 54465.1 5238.80   2
  -3  -7   6 61678.6 5633.02   2
   7   3  -6 76742.1 6289.04   1
 -10   7  -6 78543.6 6007.62   1
 -10   3  -6 51658.5 4908.31   1
  10  -7   6 57011.0 5233.12   2
  -7  -3   6 75580.0 6180.47   1
  -7  -3   7 109672. 7406.88   1
  10  -7   7 105871. 7239.43   1
  10  -3   7 98223.6 6974.70   1
  -7  -3   7 90829.2 6833.93   2
  -3  -7   7 88388.3 6825.54   2
   7   3  -7 97052.2 7200.39   1
 -10   7  -7 104884. 7158.63   1
 -10   3  -7 86882.7 6561.33   1
  10  -7   7 89929.5 6641.02   2
 -10   7  -8 7001.58 1731.12   1
 -10   3  -8 5955.92 1664.10   1
  10  -7   8 7621.48 2005.69   1
  10  -3   8 6727.79 1794.86   1
  -7  -3   8 5160.16 1544.35   2
  -3  -7   8 6507.21 1987.18   2
  10  -7   8 6595.50 1759.84   2
   7   3  -8 6443.68 1772.96   1
  -7  -3   8 5645.80 1565.57   1
  -7  -3   9 27016.5 3649.78   1
  10  -7   9 25490.0 3518.44   1
  10  -3   9 19929.7 3278.42   1
 -10   7  -9 26096.4 3485.98   1
  -7  -3   9 23492.7 3346.60   2
 -10   3  -9 15145.7 2732.05   1
   7   3  -9 25189.1 3582.64   1
  -3  -7   9 19185.9 3128.37   2
  10  -7   9 28675.5 3619.72   2
  10  -7  10 106535. 7336.11   1
  -7  -3  10 67389.1 6067.61   1
  10  -3  10 94061.1 7030.55   1
  -7  -3  10 84881.2 6828.61   2
 -10   7 -10 102579. 7268.37   1
  -3  -7  10 83308.6 6783.22   2
 -10   3 -10 78152.8 6347.80   1
   7   3 -10 97627.1 7301.93   1
  10  -7  10 86036.4 6476.32   2
 -10   7 -11 5535.46 1724.14   1
 -10   3 -11 2936.79 1111.87   1
  -7  -3  11 3543.22 1480.19   1
  10  -7  11 5573.90 1729.09   1
  10  -3  11 5425.43 1754.19   1
  -7  -3  11 5312.05 1601.36   2
  -3  -7  11 4180.25 1467.11   2
  10  -7  11 4633.71 1324.04   2
  10  -3  11 1085.07 968.770   2
   7   3 -11 3674.75 1259.59   1
 -10   7 -12 1765.26 929.314   1
 -10   3 -12 1195.41 782.097   1
  -7  -3  12 4803.58 1597.52   1
  10  -7  12 927.026 674.432   1
  10  -3  12 3179.41 1110.72   1
  -7  -3  12 1251.89 901.108   2
  -3  -7  12 3153.54 1359.04   2
  10  -7  12 4171.00 1404.83   2
  10  -3  12 394.621 624.736   2
   7   3 -12 3543.66 1377.94   1
   7   3 -13 17465.9 3119.74   1
  -7  -3  13 14324.6 2812.92   1
  10  -3  13 16370.1 2929.24   1
 -10   3 -13 14831.8 2864.30   1
  -7  -3  13 15780.3 2924.36   2
  10  -3  14 1740.25 1163.70   2
 -10   8  13 234.763 484.253   1
   8 -10  12 56670.7 5599.47   1
  -8  10 -12 56910.8 5459.87   1
 -10   8  12 43688.4 5009.39   1
  10  -8 -12 38314.4 4538.24   1
  10  -2 -12 58078.8 5603.65   1
   2 -10  12 55214.5 5297.11   2
   8 -10  12 56255.9 5563.22   2
 -10   2  12 56211.5 5809.84   1
   8 -10  11 1830.82 1237.98   1
 -10   2  11 1563.70 1017.48   1
 -10   8  11 1900.01 1201.51   1
  10  -8 -11 695.445 237.512   1
   2 -10  11 2334.27 1070.25   2
  -8  10 -11 276.938 634.425   1
  10  -2 -11 1672.33 1104.70   1
   8 -10  11 1634.59 1031.96   2
   8 -10  10 423.450 561.490   1
 -10   2  10 706.357 439.627   1
 -10   8  10 1027.00 898.448   1
  10  -8 -10 555.110 814.729   1
   2 -10  10 582.475 654.224   2
  10  -2 -10 2004.94 1166.77   1
   8 -10  10 1395.41 1025.46   2
  -8  10 -10 2234.56 1114.23   1
   8 -10   9 300.787 376.416   1
 -10   2   9 1073.50 782.326   1
 -10   8   9-277.950 593.359   1
  10  -8  -9 1016.17 838.362   1
   2 -10   9 868.480 790.878   2
  10  -2  -9-123.483 722.949   1
   8 -10   9-539.213 311.676   2
  -8  10  -9 1824.41 1237.86   1
   8 -10   8 87779.0 6754.77   1
 -10   8   8 67480.6 5805.91   1
  -8  10  -8 76755.9 6286.09   1
  10  -8  -8 73894.8 6050.79   1
  10  -2  -8 81193.6 6393.91   1
   2 -10   8 81279.1 6372.58   2
 -10   2   8 73199.5 6340.26   1
   8 -10   8 68655.3 6236.21   2
  -8  10  -7 8372.12 2018.52   1
 -10   2   7 6503.09 2009.31   1
 -10   8   7 7430.40 1865.40   1
   8 -10   7 6662.68 1861.59   1
  10  -8  -7 3800.12 1405.67   1
   2 -10   7 5710.11 1626.25   2
  10  -2  -7 4909.87 1505.65   1
   8 -10   7 6482.81 1958.89   2
 -10   2   6 368.165 907.438   1
  -8  10  -6 521.307 401.823   1
 -10   8   6 1067.33 496.456   1
   8 -10   6 260.772 307.615   1
  10  -8  -6 890.432 790.299   1
   2 -10   6 679.715 655.679   2
  10  -2  -6 618.722 649.993   1
   8 -10   6 1110.44 1014.23   2
  -8  10  -5-339.812 594.947   1
 -10   8   5-154.087 310.817   1
   8 -10   5 557.053 380.479   1
  10  -8  -5-251.522 356.336   1
   2 -10   5 418.559 644.421   2
  10  -2  -5-386.703 486.242   1
 -10   2   5 674.628 861.344   1
   8 -10   5-571.309 297.502   2
 -10   8   4 191337. 9849.23   1
   8 -10   4 232241. 10842.2   1
  10  -8  -4 178228. 9711.01   1
 -10   2   4 175186. 9588.96   1
  10  -2  -4 170706. 9279.23   1
  -8  10  -4 235799. 10960.6   1
   2 -10   4 196150. 10239.4   2
   8 -10   4 169070. 10102.8   2
  -8  10  -3 3232.45 1348.45   1
   8 -10   3 4408.55 1362.91   1
 -10   2   3 4646.94 1666.09   1
  10  -8  -3 2655.87 1087.09   1
  10  -2  -3 3965.21 1245.13   1
   2 -10   3 3496.11 1494.91   2
   8 -10   3 2719.79 1356.38   2
  10  -8  -3 15.6719 622.607   2
 -10   8   3 3894.79 1502.59   1
  -8  10  -2 10809.7 2166.53   1
 -10   2   2 13527.5 2370.19   1
   8 -10   2 12184.3 2283.21   1
  10  -8  -2 8836.48 1977.82   1
  10  -2  -2 10828.3 2159.82   1
 -10   8   2 13012.6 2416.19   1
   8 -10   2 11020.5 2569.11   2
  10  -8  -2 4370.35 1707.68   2
 -10   2   1 606.923 396.583   1
  -8  10  -1 554.917 279.547   1
   8 -10   1 672.202 620.972   1
  10  -8  -1 1063.83 716.941   1
  10  -2  -1 425.891 731.913   1
 -10   8   1 1012.12 726.476   1
   8 -10   1 570.780 943.648   2
  10  -8  -1 1222.85 1423.02   2
 -10   2   0 121331. 7581.37   1
   8 -10   0 129324. 7709.12   1
  10  -8   0 135705. 8159.45   1
  10  -2   0 130563. 7968.86   1
  -2  -8   0 110325. 7607.87   2
  -8  10   0 154175. 8579.40   1
 -10   8   0 137646. 8097.90   1
 -10   2  -1 761.264 714.246   1
  -8  10   1 636.151 686.160   1
   8 -10  -1 1270.78 835.002   1
  10  -8   1 1028.37 569.600   1
 -10   8  -1 1059.22 895.705   1
  10  -2   1 473.239 326.300   1
  -2  -8   1 782.947 706.591   2
  10  -8   1-315.380 897.516   2
  -8  10   2 11915.3 2328.55   1
   8   2  -2 15725.7 2673.28   1
  10  -2   2 15337.3 2675.21   1
  10  -8   2 15393.5 2693.24   1
  -2  -8   2 14515.6 2667.20   2
 -10   8  -2 15098.2 2643.49   1
 -10   2  -2 14177.3 2439.94   1
  10  -8   2 11831.3 2499.59   2
  -8  -2   3-387.432 509.552   1
 -10   8  -3 783.754 640.690   1
  10  -8   3 258.551 374.730   1
  10  -2   3 190.371 758.803   1
  -2  -8   3 1411.56 881.865   2
   8   2  -3 390.343 330.191   1
 -10   2  -3-349.343 551.499   1
  10  -8   3 1195.50 905.848   2
  10  -8   4 125900. 7882.47   1
  10  -2   4 162844. 9202.41   1
   8   2  -4 129784. 8346.35   1
  -2  -8   4 118227. 8069.69   2
  -8  -2   4 167788. 9393.68   1
 -10   8  -4 137312. 8237.33   1
  10  -8   4 95241.3 7036.05   2
 -10   2  -4 106220. 7501.25   1
 -10   8  -5 4867.31 1471.15   1
  -8  -2   5 5843.34 1753.59   1
  10  -8   5 4073.15 1355.75   1
  10  -2   5 5214.02 1554.65   1
 -10   2  -5 2827.43 1261.67   1
  -2  -8   5 5157.87 1624.90   2
   8   2  -5 5743.02 1709.74   1
  10  -8   5 2845.73 1246.45   2
 -10   8  -6 494.980 769.292   1
  10  -8   6 305.628 565.548   1
 -10   2  -6-22.4995 593.235   1
  -8  -2   6-338.083 497.804   1
  10  -2   6 141.916 528.791   1
  -2  -8   6 820.575 783.697   2
   8   2  -6 902.808 797.839   1
  10  -8   6 424.446 839.022   2
 -10   8  -7 2549.05 1094.16   1
 -10   2  -7 3169.13 1147.99   1
  10  -8   7 3798.30 1373.70   1
  10  -2   7 3216.27 1132.17   1
  -8  -2   7 1754.31 971.179   1
  -2  -8   7 1312.75 457.568   2
   8   2  -7 3176.20 1186.82   1
  10  -8   7 4524.45 1324.73   2
  10  -8   8 138178. 8430.25   1
  10  -2   8 126275. 8219.59   1
  -2  -8   8 112785. 7987.71   2
 -10   8  -8 136301. 8377.31   1
   8   2  -8 119870. 8176.10   1
 -10   2  -8 160560. 8956.52   1
  10  -8   8 128283. 7862.32   2
  -8  -2   8 104718. 7674.91   1
 -10   8  -9 1211.46 642.367   1
 -10   2  -9 3081.20 1219.62   1
  10  -8   9 3029.49 1409.81   1
  10  -2   9 1621.65 852.035   1
  -2  -8   9 1123.26 482.580   2
  -8  -2   9 1496.97 1301.69   1
   8   2  -9 1906.42 977.206   1
  10  -8   9 2546.80 1312.14   2
 -10   8 -10 784.704 691.983   1
  10  -8  10 1471.74 978.206   1
  10  -2  10 1103.13 417.153   1
  -2  -8  10 440.125 794.219   2
  -8  -2  10 24.0057 607.203   1
  10  -8  10-471.203 521.580   2
   8   2 -10 2153.79 1205.03   1
  -8  -2  11-1470.87 912.404   1
 -10   8 -11 663.564 520.442   1
  10  -8  11 380.733 393.356   1
  -8  -2  11 136.987 509.822   2
  -2  -8  11 1304.55 785.858   2
  10  -8  11 700.591 803.754   2
   8   2 -11 154.542 546.925   1
  10  -2  11 2.42144 531.786   2
  -8  -2  12 67252.1 6068.57   1
  10  -8  12 69001.7 6037.81   1
 -10   8 -12 78304.2 6361.94   1
  -8  -2  12 50193.8 5507.81   2
  -2  -8  12 64151.9 5983.49   2
   8   2 -12 67029.0 6081.48   1
  10  -2  13-296.400 759.125   2
   9 -10  11 23479.2 3444.61   1
  -9  10 -11 22283.5 3442.53   1
  10  -1 -11 20964.7 3359.63   1
   1 -10  11 19861.4 3216.95   2
   9 -10  11 17074.2 3295.91   2
 -10   1  11 23682.1 3957.65   1
   9 -10  10 54880.5 5433.23   1
 -10   9  10 43036.2 4883.56   1
  -9  10 -10 55475.9 5324.73   1
  10  -1 -10 54448.0 5398.80   1
   1 -10  10 45834.2 4849.20   2
   9 -10  10 46853.7 5154.26   2
   9 -10   9 36407.0 4343.89   1
 -10   9   9 19726.1 3266.45   1
  -9  10  -9 35486.9 4324.48   1
  10  -9  -9 28069.9 3857.33   1
  10  -1  -9 33833.2 4097.32   1
   1 -10   9 30452.0 3684.68   2
 -10   1   9 33442.7 4062.18   1
   9 -10   9 26771.1 3853.30   2
  -9  10  -8 18999.4 3035.53   1
 -10   9   8 15259.5 2614.85   1
 -10   1   8 9643.37 2526.06   1
   9 -10   8 16755.0 2759.60   1
  10  -9  -8 8639.81 2115.53   1
   1 -10   8 10458.3 2292.78   2
   9 -10   8 16182.8 2967.48   2
  10  -1  -8 15108.5 2764.22   1
  -9  10  -7 3348.28 1252.31   1
 -10   9   7 2781.26 1104.12   1
 -10   1   7 3025.50 1338.04   1
   9 -10   7 3134.27 1265.77   1
  10  -9  -7 3507.69 1227.40   1
   1 -10   7 4080.38 1532.86   2
  10  -1  -7 2572.96 1223.56   1
   9 -10   7 2618.84 1435.43   2
 -10   9   6 17474.1 2794.52   1
 -10   1   6 16101.3 2911.86   1
   9 -10   6 16614.6 2874.49   1
  10  -1  -6 22172.6 3297.39   1
  -9  10  -6 18845.1 3082.33   1
  10  -9  -6 16027.7 2769.68   1
   1 -10   6 16813.8 2932.97   2
   9 -10   6 18435.7 3225.46   2
  -9  10  -5 9219.09 2009.92   1
   9 -10   5 11917.6 2408.70   1
  10  -9  -5 7187.34 1849.79   1
   1 -10   5 7070.61 1955.11   2
  10  -1  -5 10449.2 2241.34   1
   9 -10   5 10938.8 2461.11   2
 -10   1   5 9346.05 2229.93   1
 -10   9   5 9453.15 1976.53   1
  -9  10  -4-101.909 460.608   1
   9 -10   4 942.372 752.338   1
  10  -9  -4 1183.81 823.457   1
   1 -10   4 773.009 905.791   2
 -10   1   4 297.227 514.710   1
  10  -1  -4 1435.73 842.515   1
 -10   9   4 1897.93 1081.93   1
   9 -10   4 1468.31 906.197   2
 -10   9   3 19228.2 2961.12   1
   9 -10   3 18886.5 3066.78   1
 -10   1   3 23530.8 3365.62   1
  10  -9  -3 23325.3 3315.02   1
  10  -1  -3 21000.8 3076.95   1
   1 -10   3 19454.9 3109.81   2
  -9  10  -3 22536.0 3249.78   1
   9 -10   3 26384.7 3856.75   2
   9 -10   2 112615. 7669.25   1
 -10   1   2 108165. 7374.93   1
  10  -9  -2 134797. 8069.32   1
  10  -1  -2 121555. 7779.43   1
  -9  10  -2 107838. 7370.45   1
   9 -10   2 135492. 9234.39   2
 -10   9   2 132940. 8186.44   1
 -10   1   1 27857.1 3495.22   1
   9 -10   1 21216.7 3096.59   1
  10  -9  -1 20987.7 3212.61   1
  10  -1  -1 25455.3 3500.11   1
  -9  10  -1 27326.2 3467.00   1
   9 -10   1 36688.1 4891.72   2
  10  -9  -1 28275.0 4152.05   2
 -10   9   1 24323.4 3250.94   1
 -10   1   0 21737.0 3072.05   1
  10  -9   0 22917.4 3381.88   1
   9   1   0 20961.4 3221.03   1
   9 -10   0 14309.3 2537.53   1
 -10   9   0 16934.2 2648.45   1
  10  -1   0 15298.4 2737.87   1
  -9  10   0 19832.4 2996.51   1
  10  -9   0 15173.9 2925.05   2
 -10   1  -1 37290.0 4156.51   1
  -9  -1   1 48963.2 4659.55   1
   9 -10  -1 39156.6 4230.09   1
  10  -9   1 38662.8 4363.26   1
  10  -1   1 58050.6 5400.49   1
   9   1  -1 47275.3 4765.47   1
  -9  10   1 43184.7 4540.34   1
  10  -9   1 44904.1 4917.88   2
 -10   9  -1 44167.6 4516.43   1
 -10   1  -2 89306.3 6623.41   1
  10  -9   2 104076. 7195.34   1
   9 -10  -2 101625. 7094.74   1
  -9  -1   2 114173. 7540.95   1
  10  -1   2 123821. 8005.46   1
   9   1  -2 116620. 7735.84   1
  -1  -9   2 101272. 7496.79   2
 -10   9  -2 105584. 7251.12   1
  10  -9   2 96642.6 7265.72   2
  -9  10   2 119063. 7600.56   1
 -10   9  -3 14484.3 2604.96   1
  10  -9   3 11236.9 2309.66   1
   9 -10  -3 11130.7 2230.09   1
  10  -1   3 9827.51 2192.52   1
  -9  10   3 13856.0 2424.91   1
  -1  -9   3 10452.4 2312.02   2
   9   1  -3 12198.9 2476.64   1
  -9  -1   3 12521.8 2460.45   1
 -10   1  -3 8983.77 2102.79   1
  10  -9   3 12350.3 2563.92   2
  10  -9   4 19029.4 3028.03   1
 -10   9  -4 13531.2 2462.91   1
  10  -1   4 19194.3 3102.78   1
  -1  -9   4 13806.6 2717.25   2
   9   1  -4 12970.1 2523.04   1
  10  -9   4 12383.2 2446.54   2
  -9  10   4 16198.6 2795.30   1
 -10   1  -4 15547.9 2764.28   1
  -9  -1   4 14331.6 2629.07   1
  -9  -1   5 2916.58 1375.58   1
 -10   9  -5 1547.88 785.326   1
  10  -9   5 3959.51 1490.60   1
  10  -1   5 2248.79 1085.98   1
 -10   1  -5 1294.37 856.071   1
  -1  -9   5 2528.53 1194.76   2
   9   1  -5 3751.40 1290.54   1
  10  -9   5 1579.15 1065.06   2
  10  -9   6 23309.4 3225.49   1
  10  -1   6 20962.6 3150.83   1
   9   1  -6 23251.0 3456.37   1
  -1  -9   6 18945.9 3248.64   2
 -10   9  -6 24952.5 3324.00   1
  -9  -1   6 16430.2 2975.11   1
  10  -9   6 20064.1 3112.67   2
  10  -9   7 39937.1 4334.40   1
   9   1  -7 32155.0 4101.85   1
  -1  -9   7 32010.7 4157.81   2
 -10   9  -7 43017.8 4650.77   1
  -9  -1   7 28370.8 4067.18   1
  10  -9   7 33139.4 4023.76   2
 -10   9  -8 2362.64 1286.68   1
  10  -9   8 2473.77 1333.14   1
  -9  -1   8 1036.61 918.704   1
  -1  -9   8 1599.62 896.703   2
   9   1  -8 1517.68 932.538   1
  10  -9   8 1592.89 846.165   2
 -10   9  -9 11266.8 2414.18   1
  10  -9   9 10464.5 2310.35   1
  -9  -1   9 10741.9 2493.93   1
  -1  -9   9 10921.5 2228.59   2
   9   1  -9 12739.3 2626.34   1
  10  -9   9 12401.1 2466.60   2
  10  -9  10 68297.6 6040.47   1
 -10   9 -10 71733.9 6116.28   1
  -1  -9  10 50642.8 5372.94   2
   9   1 -10 63923.2 5854.45   1
  10  -9  10 62194.9 5573.62   2
  -9  -1  10 46710.8 5282.57   1
  -1  -9  11 1743.73 978.661   2
  -9  -1  11 1226.05 923.042   1
   9   1 -11 831.735 822.758   1
  10  -1  12 1833.95 1783.24   2
 -10   0   0 24955.5 3479.04   1
  10 -10   0 25685.4 3475.10   1
  10   0   0 22906.5 3470.99   1
 -10  10   0 27847.2 3612.60   1
 -10   0  -1 34449.2 4117.74   1
 -10   0   1 32793.8 4006.76   1
  10 -10   1 33235.3 3921.60   1
  10 -10  -1 23655.3 3496.78   1
  10   0   1 39609.6 4416.01   1
  10   0  -1 35996.7 4304.85   1
 -10  10  -1 37928.9 4305.36   1
  10 -10   1 48335.4 5588.06   2
 -10  10   1 33921.3 4006.93   1
  10 -10   2 96435.1 7006.50   1
 -10   0   2 96902.9 7001.50   1
  10 -10  -2 89019.1 6758.46   1
  10   0  -2 96488.6 7145.66   1
 -10  10  -2 96103.7 6963.67   1
  10 -10   2 105379. 8294.67   2
 -10  10   2 101719. 7019.25   1
 -10  10  -3 9951.80 2186.31   1
  10 -10   3 10741.4 2279.61   1
  10 -10  -3 8740.52 2165.91   1
 -10   0   3 12835.6 2419.62   1
 -10  10   3 10909.8 2367.97   1
  10   0  -3 11071.8 2343.06   1
  10 -10   3 9283.78 2372.15   2
 -10  10  -4 3199.59 1158.40   1
  10 -10   4 2358.80 1209.67   1
  10 -10  -4 2383.37 1068.88   1
   0 -10   4 2824.33 1279.42   2
 -10  10   4 3055.35 1313.38   1
 -10   0   4 2631.22 1220.09   1
  10   0  -4 2683.24 1168.46   1
  10 -10   4 1641.20 1180.82   2
 -10  10  -5 8452.48 1875.66   1
  10 -10   5 8574.46 2080.40   1
  10 -10  -5 9456.99 2141.51   1
   0 -10   5 5957.09 1844.84   2
  10   0  -5 9007.63 2163.48   1
 -10  10   5 8169.97 1931.91   1
 -10   0   5 7386.00 2160.39   1
  10 -10   5 8632.79 2096.70   2
 -10   0   6 7338.20 1916.95   1
 -10  10  -6 10532.7 2294.55   1
  10 -10   6 8156.79 2057.64   1
   0 -10   6 6458.38 1903.70   2
  10   0  -6 8379.66 2118.10   1
 -10  10   6 7508.29 1985.14   1
  10 -10   6 5128.82 1813.53   2
 -10   0   7 11630.4 2539.23   1
  10 -10   7 15819.7 2900.25   1
 -10  10  -7 17023.7 2968.19   1
   0 -10   7 11263.8 2462.70   2
  10 -10   7 17893.9 3071.79   2
  10   0  -7 13206.3 2616.09   1
 -10  10  -8 5159.12 1693.06   1
 -10   0   8 1568.07 820.413   1
  10 -10   8 2709.24 1182.71   1
   0 -10   8 2965.21 1324.06   2
  10   0  -8 3810.82 1533.71   1
  10 -10   8 4522.32 1849.42   2
  10 -10   9 15843.5 2820.35   1
 -10   0   9 13088.7 2719.72   1
 -10  10  -9 19580.7 3189.81   1
   0 -10   9 13965.1 2709.85   2
  10   0  -9 16069.7 2790.10   1
  10 -10   9 15078.0 2927.91   2
  10   0 -10 48551.5 5187.24   1
 -10   0  10 51769.1 5429.82   1
   6 -11  12 3910.31 1507.64   1
  -6  11 -12 3595.44 1420.72   1
  -6  11 -11 16104.6 2914.53   1
   6 -11  11 17623.1 3157.84   1
  11  -6 -11 17758.6 3064.49   1
   6 -11  11 17088.2 3078.41   2
   5 -11  11 18648.7 3045.53   2
 -11   6  11 20073.1 3221.51   1
   6 -11  10 63514.3 6133.46   1
  -6  11 -10 71128.0 6222.32   1
 -11   6  10 86077.3 6882.27   1
  11  -6 -10 93363.0 6928.78   1
  11  -5 -10 85685.5 6689.75   1
 -11   5  10 101984. 7248.39   1
   5 -11  10 70955.9 6220.46   2
   6 -11  10 80021.6 6573.05   2
  -6  11  -9 20067.8 3265.87   1
 -11   6   9 25170.9 3658.79   1
 -11   5   9 33234.2 4139.35   1
  11  -6  -9 24760.1 3402.06   1
  11  -5  -9 25900.7 3547.89   1
   5 -11   9 24014.1 3491.62   2
   6 -11   9 19603.7 3243.62   2
 -11   6   8 5369.59 1731.99   1
  11  -6  -8 4036.46 1181.02   1
  11  -5  -8 4484.44 1459.28   1
 -11   5   8 5687.68 1737.68   1
   5 -11   8 5216.04 1673.03   2
   6 -11   8 3515.87 1418.62   2
 -11   6   7 9220.53 2105.28   1
 -11   5   7 10932.8 2225.19   1
  11  -6  -7 8373.06 2003.94   1
  11  -5  -7 7943.84 1837.23   1
   5 -11   7 5703.37 1800.16   2
   6 -11   7 7471.13 1956.15   2
 -11   6   6 26529.5 3529.79   1
 -11   5   6 33450.3 3893.91   1
  11  -6  -6 26927.4 3616.58   1
  11  -5  -6 26358.5 3378.59   1
   5 -11   6 24145.2 3710.13   2
   6 -11   6 25645.2 3733.53   2
 -11   6   5 22458.4 3216.52   1
 -11   5   5 24304.7 3243.17   1
  11  -6  -5 21091.5 3145.74   1
  11  -5  -5 25085.2 3421.51   1
   5 -11   5 18984.5 3248.75   2
   6 -11   5 21263.3 3570.16   2
 -11   6   4 12655.1 2349.11   1
 -11   5   4 8862.02 2005.03   1
  11  -6  -4 5497.29 1520.88   1
  11  -5  -4 5360.30 1555.09   1
   5 -11   4 6945.68 2044.26   2
   6 -11   4 7533.46 2183.93   2
 -11   6   3 22631.2 3235.57   1
 -11   5   3 22470.2 3133.63   1
  11  -6  -3 24944.2 3490.88   1
  11  -5  -3 18639.4 3019.79   1
   6 -11   3 17426.5 3288.29   2
 -11   6   2 83977.6 6241.65   1
 -11   5   2 90996.8 6590.07   1
  11  -6  -2 88380.7 6587.83   1
  11  -5  -2 75697.8 6211.86   1
 -11   5   1 792.979 558.996   1
  11  -6  -1 1403.99 778.543   1
  11  -5  -1-64.5368 382.305   1
 -11   6   1 656.179 439.974   1
 -11   6   0 15292.0 2619.59   1
  11  -6   0 15342.9 2647.46   1
  11  -5   0 13778.9 2507.01   1
 -11   5   0 14704.1 2430.77   1
  11  -6   1 11989.5 2378.55   1
  -5  -6   1 10543.4 2237.79   2
  11  -5   1 15775.0 2629.43   1
 -11   6  -1 14825.5 2536.11   1
 -11   5  -1 14897.0 2523.28   1
 -11   5  -2 127056. 7748.13   1
  11  -6   2 117926. 7717.08   1
  11  -5   2 115515. 7504.30   1
 -11   6  -2 113447. 7334.73   1
  11  -6   3 45049.4 4687.24   1
  11  -5   3 48199.3 4839.37   1
  -6  -5   3 28574.7 3781.49   2
  -5  -6   3 27453.3 3892.96   2
 -11   6  -3 45103.4 4517.91   1
 -11   5  -3 36636.1 4157.81   1
  11  -6   4 14405.8 2689.52   1
  11  -5   4 11663.3 2453.11   1
 -11   6  -4 9831.29 2091.20   1
 -11   5  -4 11390.6 2241.65   1
  -6  -5   4 5233.01 1612.56   2
  -5  -6   4 8658.21 2046.16   2
  11  -6   5 19139.5 3021.81   1
  11  -5   5 21297.1 3215.43   1
 -11   5  -5 17904.2 2786.39   1
  -6  -5   5 14148.2 2664.28   2
  -5  -6   5 14086.5 2605.81   2
 -11   6  -5 19156.8 2989.22   1
  11  -6   6 43800.5 4679.04   1
  11  -5   6 39302.8 4268.18   1
  -6  -5   6 40717.7 4508.00   2
  -5  -6   6 37894.3 4496.74   2
 -11   6  -6 48172.0 4605.33   1
 -11   5  -6 43410.4 4593.31   1
  11  -6   6 31174.4 3918.96   2
  11  -6   7 23891.7 3436.39   1
  11  -5   7 20691.1 3196.17   1
  -6  -5   7 21132.2 3243.32   2
  -5  -6   7 21442.9 3223.15   2
 -11   6  -7 23173.4 3194.24   1
 -11   5  -7 21603.3 3249.02   1
  11  -6   7 17818.9 2861.90   2
 -11   6  -8-97.0336 383.782   1
 -11   5  -8-211.546 421.103   1
  11  -6   8-29.0326 608.808   1
  11  -5   8-340.194 634.636   1
  -6  -5   8-90.8247 581.351   2
  -5  -6   8-1312.87 894.911   2
  11  -6   8-252.351 1246.01   2
  11  -5   8 256.140 897.721   2
  11  -6   9 16112.3 2964.61   1
  11  -5   9 14631.6 2708.73   1
  -6  -5   9 13133.2 2564.30   2
 -11   6  -9 16880.4 2892.28   1
 -11   5  -9 16544.8 2889.00   1
  -5  -6   9 16228.4 2934.74   2
  11  -6   9 11381.2 2264.00   2
  11  -5   9 6773.19 1735.12   2
  11  -6  10 44106.7 4886.99   1
  11  -5  10 48998.4 5077.76   1
  -6  -5  10 40169.4 4735.38   2
  -5  -6  10 37472.8 4490.03   2
 -11   6 -10 49539.4 5055.33   1
 -11   5 -10 54000.1 5290.21   1
  11  -6  10 46769.7 4772.67   2
  11  -5  10 34059.7 4254.82   2
 -11   6 -11 2375.35 1115.98   1
 -11   5 -11 2901.50 1347.27   1
  11  -6  11 1940.46 951.874   1
  11  -5  11 917.160 908.641   1
  11  -5  11 1107.40 958.683   2
   7 -11  11 2057.11 967.005   1
  -7  11 -11 2617.08 1207.80   1
 -11   7  11 2756.39 1154.30   1
  11  -7 -11 2704.91 1222.53   1
   4 -11  11 4740.61 1656.60   2
 -11   4  10 16212.9 2936.38   1
   7 -11  10 10624.7 2429.62   1
 -11   7  10 16712.7 2990.49   1
  11  -7 -10 12314.7 2517.87   1
  -7  11 -10 10816.7 2364.41   1
   4 -11  10 11628.4 2381.29   2
  11  -4 -10 11493.2 2379.80   1
   7 -11  10 12491.2 2678.27   2
   7 -11   9 1066.53 802.886   1
 -11   7   9 1567.67 780.582   1
  11  -7  -9 1380.34 1171.47   1
  -7  11  -9 167.644 533.953   1
  11  -4  -9 1250.66 381.059   1
   4 -11   9 1226.40 801.002   2
   7 -11   9 1705.97 1184.26   2
 -11   4   9 1635.18 878.811   1
   7 -11   8 113282. 8033.76   1
  -7  11  -8 103230. 7535.13   1
 -11   7   8 158994. 9163.82   1
  11  -7  -8 122378. 8111.40   1
 -11   4   8 162553. 9323.09   1
  11  -4  -8 139907. 8558.31   1
   4 -11   8 137781. 8701.67   2
   7 -11   8 141565. 9182.21   2
   7 -11   7 7859.79 2007.24   1
 -11   7   7 8957.01 2056.82   1
  11  -7  -7 7503.96 1995.70   1
  11  -4  -7 7218.19 1941.29   1
 -11   4   7 8274.49 2008.42   1
   4 -11   7 8463.86 2096.47   2
  -7  11  -7 9480.63 2117.17   1
   7 -11   7 7156.50 2177.92   2
 -11   7   6 2214.39 1063.01   1
 -11   4   6 4621.28 1619.81   1
  11  -7  -6 1887.28 1102.13   1
  11  -4  -6 2822.08 1242.60   1
   4 -11   6 3548.63 1456.81   2
   7 -11   6 1281.87 848.770   2
  -7  11  -6 1525.14 1070.24   1
 -11   7   5 563.515 536.298   1
 -11   4   5-134.732 479.966   1
  11  -7  -5 253.868 823.920   1
  11  -4  -5-319.417 623.851   1
   4 -11   5-72.3535 361.887   2
   7 -11   5-96.0849 677.315   2
 -11   7   4 89569.8 6462.85   1
 -11   4   4 95882.2 6689.91   1
  11  -7  -4 77199.9 6269.99   1
  11  -4  -4 72796.2 6015.05   1
   4 -11   4 71838.4 6179.20   2
   7 -11   4 84080.7 7546.17   2
 -11   7   3 3583.87 1256.26   1
 -11   4   3 1067.20 770.273   1
  11  -7  -3 1084.91 859.909   1
  11  -4  -3 2951.46 1328.85   1
   7 -11   3 1077.40 1200.00   2
 -11   4   2 6131.43 1768.70   1
  11  -7  -2 7963.44 2021.65   1
  11  -4  -2 5574.13 1713.40   1
 -11   7   2 5375.64 1526.33   1
 -11   4   1 385.070 688.325   1
  11  -7  -1 440.325 557.310   1
  11  -4  -1 1419.03 951.858   1
 -11   7   1 1149.95 641.414   1
 -11   7   0 181131. 9339.90   1
 -11   4   0 159405. 8803.71   1
  11  -7   0 154252. 8956.99   1
  11  -4   0 155160. 9036.17   1
  -4  -7   0 130122. 8709.73   2
  11  -7   1 2158.15 1333.81   1
  -4  -7   1 1484.54 963.987   2
  11  -4   1 4112.49 1434.08   1
 -11   7  -1 1936.05 1103.57   1
 -11   4  -1 2670.11 1010.06   1
  11  -7   2 16804.9 2763.17   1
  11  -4   2 14912.8 2713.03   1
  -4  -7   2 11330.9 2437.02   2
 -11   7  -2 15296.5 2538.60   1
 -11   4  -2 15602.5 2591.21   1
  11  -7   3 330.878 900.252   1
 -11   7  -3-546.272 767.521   1
  11  -4   3-881.748 874.312   1
  -4  -7   3-799.203 947.929   2
 -11   4  -3-196.381 699.976   1
  11  -7   3 584.218 607.125   2
  11  -7   4 95534.8 6747.80   1
  11  -4   4 88582.8 6686.89   1
  -4  -7   4 67931.1 6058.78   2
 -11   7  -4 99468.3 6769.87   1
 -11   4  -4 74708.0 6003.03   1
 -11   7  -5 9960.58 2147.84   1
  11  -7   5 12332.5 2260.74   1
  11  -4   5 13434.0 2696.99   1
 -11   4  -5 10561.3 2204.82   1
  -4  -7   5 9462.80 2268.60   2
  11  -7   5 9404.83 2305.30   2
 -11   7  -6 2435.57 1127.89   1
 -11   4  -6 953.014 766.327   1
  11  -7   6 1636.37 837.074   1
  11  -4   6 1031.03 567.312   1
  -7  -4   6 1218.89 647.912   2
  -4  -7   6 943.108 654.037   2
  11  -7   6 782.022 673.026   2
 -11   7  -7 2734.85 1559.94   1
 -11   4  -7 1217.25 915.196   1
  11  -7   7 1788.48 1460.93   1
  11  -4   7 134.411 503.785   1
  -7  -4   7 795.865 1155.47   2
  -4  -7   7 175.440 473.810   2
  11  -7   7 280.860 693.899   2
  11  -7   8 158911. 9310.15   1
  11  -4   8 163986. 9434.50   1
  -7  -4   8 106708. 7920.51   2
  -4  -7   8 127217. 8729.98   2
 -11   7  -8 163879. 9314.50   1
 -11   4  -8 117952. 8115.28   1
  11  -7   8 160697. 9096.77   2
 -11   7  -9 4489.89 1464.80   1
 -11   4  -9 2872.91 1343.23   1
  11  -7   9 2383.13 1070.47   1
  11  -4   9 3658.63 1339.50   1
  -7  -4   9 4439.53 1591.61   2
  -4  -7   9 1642.25 910.084   2
  11  -7   9 2356.87 1389.51   2
  11  -4   9 742.628 602.891   2
 -11   7 -10 204.496 465.068   1
 -11   4 -10-8.53757 306.513   1
  11  -7  10-878.205 780.041   1
  11  -4  10 577.294 714.318   1
  -7  -4  10-126.196 344.668   2
  -4  -7  10 576.427 652.278   2
  11  -7  10-1092.09 555.542   2
   7   4 -10 945.848 926.090   1
  11  -4  10 124.505 811.312   2
 -11   4 -11 2340.01 1095.71   1
  11  -4  11 1393.91 1038.32   1
  11  -4  11 155.774 691.077   2
   7   4 -11 2466.69 1355.37   1
  11  -4  12 23700.2 3619.98   1
 -11   4 -12 19035.6 3330.19   1
   8 -11  11 78.5712 441.435   1
 -11   8  11 1032.69 756.419   1
  11  -8 -11-128.954 486.124   1
  -8  11 -11 1544.44 1068.13   1
   8 -11  10 40728.5 4639.18   1
  -8  11 -10 33987.5 4202.08   1
 -11   8  10 41146.7 4592.89   1
  11  -8 -10 32350.9 4148.29   1
   3 -11  10 40867.1 4536.56   2
   8 -11  10 35495.1 4811.30   2
 -11   3   9 4533.37 1612.27   1
   8 -11   9 1903.17 1111.37   1
 -11   8   9 2187.33 1004.26   1
  11  -8  -9 3260.48 1304.78   1
   3 -11   9 4583.21 1469.40   2
  11  -3  -9 2883.29 1245.23   1
  -8  11  -9 2982.15 1206.24   1
   8 -11   9 2902.13 1574.98   2
   8 -11   8 23442.0 3564.37   1
 -11   8   8 31458.1 3938.39   1
  -8  11  -8 33317.3 4108.52   1
  11  -8  -8 29543.9 3885.99   1
  11  -3  -8 34952.3 4154.75   1
 -11   3   8 37597.3 4298.48   1
   3 -11   8 28303.5 3727.55   2
   8 -11   8 26630.3 4073.15   2
 -11   8   7 16229.4 2744.74   1
   8 -11   7 11084.1 2405.55   1
  -8  11  -7 19192.7 3083.68   1
  11  -8  -7 20135.4 3172.10   1
   3 -11   7 15570.2 2832.22   2
  11  -3  -7 15427.3 2564.27   1
 -11   3   7 17313.9 2838.56   1
   8 -11   7 16481.3 3167.44   2
   8 -11   6 73392.5 6118.73   1
 -11   8   6 101598. 7093.57   1
  11  -8  -6 80272.8 6475.22   1
 -11   3   6 88991.9 6724.64   1
  -8  11  -6 86292.7 6668.93   1
  11  -3  -6 64463.1 5627.17   1
   3 -11   6 64496.3 5891.16   2
   8 -11   6 76861.0 6981.45   2
 -11   8   5 48136.7 4687.98   1
   8 -11   5 31946.4 4016.74   1
 -11   3   5 40474.2 4384.57   1
  11  -8  -5 45313.4 4787.58   1
  -8  11  -5 40572.6 4569.87   1
  11  -3  -5 37201.9 4198.32   1
   3 -11   5 35599.9 4319.10   2
   8 -11   5 37264.2 5037.30   2
  -8  11  -4 481.669 553.226   1
 -11   8   4 1035.93 458.435   1
   8 -11   4 320.525 457.217   1
 -11   3   4 1103.31 773.936   1
  11  -8  -4 656.053 545.075   1
  11  -3  -4 692.606 607.562   1
   8 -11   4 979.596 1183.76   2
 -11   8   3 39464.0 4259.15   1
 -11   3   3 40205.0 4173.69   1
  11  -8  -3 39651.2 4269.96   1
  11  -3  -3 42492.6 4442.19   1
  -8  11  -3 45263.2 4774.92   1
   8 -11   3 56596.5 6423.54   2
 -11   8   2 42466.1 4416.51   1
 -11   3   2 36068.5 4095.34   1
  11  -8  -2 37006.0 4238.02   1
  11  -3  -2 40722.8 4514.56   1
 -11   3   1 11532.4 2282.69   1
  11  -8  -1 10851.0 2131.48   1
  11  -3  -1 9760.78 2108.43   1
 -11   8   1 9978.61 2105.17   1
 -11   3   0 4590.20 1541.41   1
  11  -8   0 4991.04 1509.15   1
  11  -3   0 4898.48 1565.78   1
 -11   8   0 6458.26 1748.56   1
  11  -8   0-435.002 461.838   2
  11  -8   1 1858.61 1103.54   1
  -3  -8   1 2666.27 1325.48   2
  11  -3   1 1375.50 757.444   1
 -11   8  -1 1662.78 461.191   1
 -11   3  -1 823.491 462.196   1
  11  -8   1-98.9930 469.601   2
 -11   3  -2 54889.1 5089.14   1
  11  -8   2 67499.2 5793.45   1
  11  -3   2 70081.0 5838.26   1
  -3  -8   2 47189.9 5005.08   2
 -11   8  -2 73903.2 5864.34   1
 -11   8  -3 5592.96 1721.00   1
  11  -8   3 6020.87 1626.01   1
  11  -3   3 4498.76 1452.44   1
  -3  -8   3 2336.41 1016.93   2
 -11   3  -3 5454.36 1662.63   1
  11  -8   3 1915.56 1038.40   2
  11  -8   4 39773.6 4386.31   1
  11  -3   4 34545.3 4218.16   1
  -3  -8   4 27851.3 3769.60   2
 -11   8  -4 42292.8 4587.19   1
  11  -8   4 28654.5 3796.15   2
 -11   3  -4 29990.0 3687.22   1
  11  -8   5 16788.1 2853.73   1
 -11   8  -5 13888.5 2642.55   1
  11  -3   5 15124.5 2834.74   1
 -11   3  -5 10903.2 2276.16   1
  -3  -8   5 9674.70 2316.64   2
  11  -8   5 10395.0 2099.85   2
  11  -8   6 87259.4 6824.51   1
  11  -3   6 84139.7 6664.14   1
  -3  -8   6 65135.5 6086.45   2
 -11   8  -6 104298. 7249.02   1
 -11   3  -6 87295.7 6631.68   1
  11  -8   6 67338.6 5826.27   2
  11  -8   7 44865.4 4757.73   1
  11  -3   7 34521.2 4104.63   1
  -3  -8   7 33101.9 4294.27   2
 -11   8  -7 42431.0 4635.40   1
  11  -8   7 36864.2 4160.99   2
 -11   8  -8 1049.06 479.918   1
 -11   3  -8 1271.09 878.878   1
  11  -8   8 1233.78 510.782   1
  11  -3   8 955.290 460.534   1
  -3  -8   8 1754.94 1009.98   2
   8   3  -8 138.485 750.987   1
  11  -8   8 138.370 587.297   2
  11  -8   9 27151.1 3698.73   1
  11  -3   9 25099.3 3732.93   1
  -3  -8   9 25178.7 3865.46   2
 -11   8  -9 30408.4 3917.04   1
   8   3  -9 25298.8 3777.49   1
 -11   3  -9 21507.2 3313.90   1
  11  -8   9 19659.2 3065.28   2
  -8  -3   9 16792.6 3150.12   1
  -8  -3  10 21282.2 3418.80   1
  11  -3  10 19011.2 3199.39   1
  -3  -8  10 21989.2 3459.76   2
 -11   3 -10 15795.0 2948.28   1
   8   3 -10 19438.6 3346.87   1
  -8  -3  11 6172.93 2033.47   1
   8   3 -11 4982.77 1647.72   1
 -11   9  10 28968.6 3949.30   1
 -11   9   9 2188.35 1152.18   1
   9 -11   9 2217.09 1030.95   1
  11  -9  -9 671.427 407.795   1
   2 -11   9 1991.84 1153.90   2
   9 -11   9 612.438 934.959   2
  -9  11  -9 2440.32 1133.97   1
 -11   2   8 4411.74 1588.32   1
 -11   9   8 3915.56 1353.57   1
   9 -11   8 3711.66 1406.34   1
  11  -9  -8 2921.42 1344.05   1
   2 -11   8 4107.25 1444.38   2
  11  -2  -8 4610.08 1498.70   1
   9 -11   8 3214.00 1405.76   2
  -9  11  -8 3072.81 955.617   1
 -11   9   7 8336.22 2097.02   1
   9 -11   7 8765.72 2060.22   1
  11  -9  -7 7040.12 1944.62   1
   2 -11   7 7586.27 2038.89   2
  11  -2  -7 8782.68 1970.26   1
   9 -11   7 10003.3 2407.91   2
 -11   2   7 10282.1 2312.30   1
  -9  11  -7 8621.14 2054.41   1
 -11   9   6 57872.5 5404.27   1
   9 -11   6 40423.1 4675.07   1
  11  -9  -6 51478.8 5187.39   1
 -11   2   6 78542.2 6311.41   1
  -9  11  -6 60574.2 5696.29   1
  11  -2  -6 65647.8 5652.42   1
   2 -11   6 44567.7 4976.67   2
   9 -11   6 64313.3 6324.38   2
 -11   9   5 17677.2 2988.72   1
   9 -11   5 22720.7 3399.21   1
  11  -9  -5 20572.4 3200.97   1
 -11   2   5 17975.2 3045.60   1
  11  -2  -5 21074.9 3275.59   1
  -9  11  -5 24087.0 3469.43   1
   2 -11   5 16965.9 3023.10   2
   9 -11   5 24157.0 3935.68   2
  -9  11  -4 4718.26 1523.42   1
   9 -11   4 6617.57 1808.67   1
 -11   2   4 5965.12 1748.99   1
  11  -9  -4 5894.89 1768.91   1
  11  -2  -4 3807.28 1407.74   1
   9 -11   4 8530.89 2176.86   2
 -11   9   4 5995.93 1674.84   1
 -11   9   3 27723.2 3719.79   1
   9 -11   3 25506.1 3600.11   1
 -11   2   3 31013.8 3829.12   1
  11  -9  -3 29259.6 3745.52   1
  11  -2  -3 29868.5 3836.47   1
  -9  11  -3 29216.9 3792.41   1
   9 -11   3 38178.2 5147.83   2
   9 -11   2 26677.6 3472.66   1
 -11   2   2 21379.8 3203.87   1
  11  -9  -2 18413.1 3043.74   1
  11  -2  -2 21799.9 3397.30   1
  -9  11  -2 22798.9 3388.44   1
 -11   9   2 23122.9 3230.58   1
 -11   2   1 17262.0 2815.66   1
  11  -2  -1 21756.7 3145.76   1
  11  -9  -1 19366.9 3005.22   1
  -9  11  -1 20767.7 3133.17   1
 -11   9   1 19831.3 3093.33   1
 -11   2   0 4048.88 1590.35   1
  11  -9   0 6162.30 1792.11   1
 -11   9   0 3344.64 1397.23   1
  11  -2   0 3745.68 1205.17   1
  11  -9   0 756.078 1078.50   2
  11  -9   1 614.448 714.928   1
 -11   9  -1 86.5134 448.338   1
  11  -2   1-457.994 481.496   1
  11  -9   1 111.351 676.791   2
 -11   2  -1 155.266 296.128   1
 -11   2  -2 94804.0 6841.15   1
  11  -9   2 85159.4 6537.49   1
  11  -2   2 88210.8 6811.32   1
 -11   9  -2 90215.1 6765.79   1
  11  -9   3 18325.6 2911.94   1
 -11   9  -3 18096.5 2900.15   1
  11  -2   3 13616.0 2550.83   1
  -2  -9   3 11697.6 2563.64   2
 -11   2  -3 11705.4 2460.34   1
  11  -9   3 8539.47 2068.18   2
  11  -9   4 23962.1 3342.79   1
  11  -2   4 24833.0 3672.42   1
  -2  -9   4 18505.0 3082.14   2
 -11   9  -4 28918.5 3635.67   1
 -11   2  -4 18667.9 2922.43   1
  11  -9   4 16308.4 2823.66   2
  11  -9   5 82103.4 6425.57   1
  11  -2   5 53181.8 5437.75   1
  -2  -9   5 41056.0 4834.31   2
 -11   9  -5 73908.3 6111.25   1
  11  -9   5 65570.9 5702.38   2
 -11   2  -5 57726.8 5449.19   1
  11  -9   6 70451.6 6098.96   1
  11  -2   6 63294.0 5836.43   1
   9   2  -6 58954.2 5823.09   1
  -2  -9   6 51012.5 5458.81   2
 -11   9  -6 83244.3 6539.73   1
 -11   2  -6 63912.2 5717.46   1
  11  -9   6 73864.3 5933.21   2
 -11   9  -7 4368.73 1414.00   1
  -9  -2   7 2018.71 1092.87   1
  11  -9   7 4778.85 1434.02   1
  11  -2   7 2590.20 1194.73   1
  -2  -9   7 3568.35 1574.78   2
   9   2  -7 3049.55 1242.49   1
  11  -9   7 2230.82 859.709   2
 -11   9  -8-1275.76 938.913   1
  11  -9   8 29.7826 467.295   1
  -9  -2   8 200.553 371.171   1
  -2  -9   8 667.106 595.113   2
   9   2  -8 243.409 315.365   1
  11  -9   8 924.176 954.060   2
  -9  -2   9 4535.26 1671.27   1
  -2  -9   9 3672.92 1493.73   2
   9   2  -9 4503.53 1617.69   1
  -9  -2  10 9502.71 2331.50   1
   9   2 -10 11704.5 2557.75   1
  10 -11   8 51271.7 5236.98   1
 -10  11  -8 53237.4 5401.78   1
   1 -11   8 42852.4 4958.90   2
 -10  11  -7 2510.62 1202.65   1
  10 -11   7 3566.45 1324.34   1
   1 -11   7 2268.42 1127.99   2
  11  -1  -7 3679.48 1482.63   1
  10 -11   7 2188.37 1024.35   2
 -11   1   7 1674.12 1008.11   1
 -11  10   7 1648.35 457.004   1
 -10  11  -6 166.116 406.721   1
  10 -11   6 17.3364 268.530   1
  11 -10  -6 153.397 517.171   1
   1 -11   6 368.946 638.797   2
  11  -1  -6 572.614 569.894   1
 -11   1   6 259.600 334.836   1
 -11  10   6 17.4557 285.195   1
  10 -11   6-211.377 534.979   2
 -10  11  -5 1938.93 1126.92   1
  10 -11   5 661.315 305.238   1
  11 -10  -5 693.613 536.960   1
 -11   1   5 1794.76 1046.92   1
  11  -1  -5 1689.33 1062.35   1
 -11  10   5 731.427 824.136   1
  10 -11   5 1082.89 430.054   2
  10 -11   4 39839.3 4544.07   1
 -11   1   4 34190.9 4280.15   1
  11 -10  -4 30827.1 4013.02   1
  11  -1  -4 48074.2 5019.06   1
 -10  11  -4 47155.9 4810.80   1
  10 -11   4 41557.9 5313.36   2
 -11  10   4 38477.5 4462.02   1
 -10  11  -3 1762.97 1113.60   1
 -11   1   3 923.862 362.858   1
  10 -11   3 1957.95 969.938   1
  11 -10  -3 1024.55 500.491   1
 -11  10   3 1468.14 866.189   1
  11  -1  -3 2835.47 1176.32   1
  10 -11   3 2123.76 1482.24   2
 -10  11  -2 3009.75 1412.14   1
 -11   1   2 2190.48 1051.62   1
  10 -11   2 1603.63 920.721   1
  11 -10  -2 1938.80 975.523   1
 -11  10   2 2184.74 1164.00   1
  11  -1  -2 2538.27 1176.86   1
 -11   1   1 1268.90 1043.08   1
 -10  11  -1 803.043 679.640   1
  10 -11   1 785.167 514.210   1
  11 -10  -1 1238.39 754.897   1
 -11  10   1 139.359 801.492   1
  11  -1  -1 1472.41 919.745   1
 -11   1   0 79788.0 6505.55   1
  10 -11   0 83967.6 6646.72   1
  11 -10   0 98187.3 7102.86   1
  11  -1   0 109091. 7702.48   1
 -10  11   0 91337.5 6976.00   1
 -11  10   0 84754.6 6725.37   1
 -10  11   1 1061.70 801.147   1
 -11  10  -1 534.195 531.116   1
  11 -10   1 1109.48 663.938   1
  11  -1   1 447.023 490.693   1
  11 -10   1-1052.90 1056.53   2
 -11   1  -1 897.482 663.278   1
 -11  10  -2-37.3219 235.424   1
  11 -10   2 519.560 751.139   1
  11  -1   2 1253.19 1031.89   1
 -11   1  -2 756.915 442.904   1
  11 -10   2-235.318 825.872   2
 -11  10  -3-254.198 357.291   1
  11 -10   3 1119.29 922.600   1
  11  -1   3-62.7242 661.001   1
  11 -10   3-537.799 626.615   2
  11 -10   4 112845. 7528.31   1
  10   1  -4 96345.4 7259.45   1
 -11  10  -4 109994. 7626.90   1
 -11  10  -5 1753.15 972.967   1
  11 -10   5 2393.06 998.236   1
  -1 -10   5 1585.33 1049.48   2
  10   1  -5 2489.10 1151.87   1
 -10  -1   5 962.342 745.024   1
  11 -10   5 606.494 412.400   2
 -11  10  -6 2291.17 987.871   1
  11 -10   6 2734.89 1221.37   1
  -1 -10   6 2334.56 1207.50   2
  10   1  -6 1576.43 887.117   1
  11 -10   6 1002.56 849.761   2
 -10  -1   6 1865.45 1119.88   1
 -10  -1   7 2341.72 1223.75   1
 -11  10  -7 5523.53 1760.03   1
  11 -10   7 2171.58 1259.76   1
  -1 -10   7 2339.64 1288.67   2
  10   1  -7 2601.81 1290.72   1
  11 -10   7 2913.68 1249.93   2
  10   1  -8 26853.0 3923.77   1
  -1 -10   8 29073.5 4100.77   2
 -10  -1   8 35113.0 4488.47   1
 -11  11   0 7793.63 2008.29   1
  11 -11   0 8913.91 2079.62   1
 -11  11  -1 1451.80 810.097   1
 -11  11   1 1431.72 892.262   1
  11 -11   1 2388.72 1216.23   1
  11 -11  -1 739.204 601.200   1
  11 -11   2 35880.7 4349.79   1
  11 -11  -2 24598.6 3592.44   1
  11   0  -2 38791.8 4646.80   1
 -11  11  -2 25782.4 3742.57   1
 -11  11   2 28824.8 3865.49   1
  11 -11   3 17462.4 3024.60   1
 -11  11  -3 17495.4 3021.60   1
  11   0  -3 14598.8 2785.05   1
 -11  11   3 16857.3 3011.97   1
  11 -11   3 18674.2 3490.86   2
 -11  11  -4 4309.62 1476.29   1
  11 -11   4 6453.21 1689.41   1
 -11   0   4 5020.41 1808.25   1
  11   0  -4 3748.41 1384.98   1
  11 -11   4 5736.51 1923.53   2
  11 -11   5 18018.1 3099.83   1
 -11   0   5 17005.2 3135.84   1
  11   0  -5 20131.0 3221.62   1
 -11  11  -5 23060.0 3555.08   1
  11 -11   5 18214.3 3289.26   2
 -11   0   6 32324.5 4367.09   1
  11   0  -6 30897.0 4072.27   1
   6 -12   8 101998. 8002.38   2
 -12   6   7 702.968 852.133   1
  12  -6  -7 827.151 1140.57   1
   6 -12   7-443.869 823.583   2
 -12   6   6 7863.47 2081.43   1
  12  -6  -6 5079.86 1501.25   1
   6 -12   6 5808.23 1803.02   2
 -12   6   5-150.380 388.772   1
  12  -6  -5 543.806 559.016   1
 -12   6   4 101248. 7003.24   1
  12  -6  -4 86349.7 6711.24   1
 -12   6   3 605.336 418.425   1
  12  -6  -3 202.462 551.602   1
 -12   6   2 525.909 525.177   1
  12  -6  -2 917.956 731.771   1
  12  -6  -1-27.6692 846.023   1
 -12   6   1-1184.88 641.067   1
 -12   6   0 63748.2 5465.42   1
  12  -6   0 58176.0 5332.28   1
  12  -6   1 409.593 606.607   1
 -12   6  -1 244.377 705.493   1
  12  -6   2 8.27581 491.391   1
 -12   6  -2 938.420 704.334   1
  12  -6   3 68.5844 731.375   1
 -12   6  -3 764.978 420.633   1
  12  -6   4 185944. 10083.4   1
 -12   6  -4 207811. 10402.0   1
 -12   6  -5-283.693 604.133   1
  12  -6   5-197.932 395.968   1
  -6  -6   5-457.419 874.586   2
 -12   6  -6 13834.3 2720.27   1
  12  -6   6 12077.8 2418.98   1
  -6  -6   6 6917.38 1772.45   2
  12  -6   6 6407.48 1776.34   2
 -12   6  -7-112.785 656.121   1
  12  -6   7 676.560 952.178   1
  -6  -6   7 680.110 769.844   2
  12  -6   7-210.146 370.696   2
   5 -12   8 10887.3 2475.62   2
   7 -12   8 10232.4 2538.45   2
 -12   7   7 22486.5 3380.45   1
 -12   5   7 20584.7 3209.90   1
  12  -7  -7 21900.3 3286.11   1
  12  -5  -7 21062.2 3240.23   1
   7 -12   7 21759.7 3778.65   2
   5 -12   7 18373.2 3219.26   2
 -12   7   6 107429. 7590.07   1
 -12   5   6 108233. 7323.97   1
  12  -7  -6 104541. 7559.04   1
  12  -5  -6 114040. 7669.84   1
   5 -12   6 98693.5 7876.78   2
   7 -12   6 85370.8 7780.68   2
 -12   7   5 4191.75 1505.79   1
 -12   5   5 3565.25 1241.74   1
  12  -7  -5 3337.30 1224.95   1
  12  -5  -5 2287.27 995.127   1
 -12   7   4 2232.38 1175.98   1
 -12   5   4 2917.33 1041.54   1
  12  -7  -4 4057.80 1463.61   1
  12  -5  -4 2868.71 1021.07   1
 -12   7   3 2106.05 854.306   1
 -12   5   3 2692.75 1237.72   1
  12  -7  -3 1239.90 634.147   1
  12  -5  -3 486.536 477.362   1
 -12   7   2 26107.4 3475.18   1
 -12   5   2 23298.4 3332.09   1
  12  -7  -2 24153.2 3424.29   1
  12  -5  -2 25617.8 3437.17   1
 -12   7   1 38017.3 4310.67   1
 -12   5   1 34063.7 3969.69   1
  12  -7  -1 34618.5 4309.26   1
  12  -5  -1 37665.6 4298.34   1
  12  -7   0 8253.30 2156.55   1
  12  -5   0 8525.61 1894.04   1
 -12   7   0 11270.4 2212.14   1
 -12   5   0 11921.9 2401.95   1
  12  -7   1 12695.7 2671.08   1
  12  -5   1 14810.9 2716.61   1
 -12   7  -1 11648.0 2450.62   1
 -12   5  -1 7000.01 1914.73   1
  12  -7   2 62632.8 5701.66   1
  12  -5   2 59588.9 5510.93   1
 -12   7  -2 56788.6 5222.80   1
 -12   5  -2 56697.8 5264.35   1
  12  -7   3 1314.60 999.502   1
  12  -5   3 627.406 488.165   1
 -12   7  -3 1368.88 1018.98   1
  -5  -7   3 401.289 530.014   2
 -12   5  -3 410.691 512.488   1
 -12   7  -4 1713.77 867.391   1
  12  -7   4 3237.64 1451.68   1
  12  -5   4 2108.53 898.119   1
 -12   5  -4 2293.26 979.204   1
  -5  -7   4 2314.96 879.590   2
  12  -7   4 948.504 729.887   2
  12  -7   5 42665.6 4613.30   1
  12  -5   5 37962.2 4462.50   1
  -5  -7   5 29148.1 4071.62   2
 -12   7  -5 48827.8 5039.75   1
 -12   5  -5 39535.9 4343.44   1
  12  -7   6 66828.0 5883.56   1
  12  -5   6 67078.7 5784.22   1
  -5  -7   6 58345.6 5552.62   2
 -12   7  -6 78182.1 6157.87   1
 -12   5  -6 64239.0 5664.87   1
  12  -7   7 21419.5 3374.16   1
  12  -5   7 23273.0 3404.48   1
  -7  -5   7 15140.9 2808.63   2
  -5  -7   7 18325.8 3258.33   2
 -12   7  -7 22028.4 3273.09   1
 -12   5  -7 22204.8 3365.42   1
  12  -7   7 21844.0 3259.28   2
 -12   5  -8 6302.79 1799.93   1
  12  -5   8 8174.93 1912.35   1
   4 -12   8 22169.7 3499.34   2
   8 -12   8 16258.2 3506.47   2
 -12   8   7 11942.1 2425.77   1
  12  -8  -7 9343.27 2137.63   1
   4 -12   7 9550.82 2357.90   2
   8 -12   7 9775.82 2550.90   2
 -12   8   6 46410.8 4907.39   1
 -12   4   6 43760.7 4581.05   1
  12  -8  -6 37845.6 4517.67   1
  12  -4  -6 38191.6 4372.77   1
   8 -12   6 44925.0 5458.74   2
 -12   8   5 24197.4 3500.41   1
 -12   4   5 25757.6 3547.33   1
  12  -8  -5 25416.7 3658.49   1
  12  -4  -5 27777.7 3694.69   1
   8 -12   5 25262.6 4279.56   2
 -12   8   4 1600.42 684.844   1
 -12   4   4 2653.30 990.864   1
  12  -8  -4 2125.34 1051.76   1
  12  -4  -4 2138.21 984.322   1
 -12   8   3 17199.9 2950.28   1
 -12   4   3 17996.0 2955.67   1
  12  -8  -3 13888.4 2563.46   1
  12  -4  -3 17046.3 2700.26   1
 -12   8   2 41890.8 4587.92   1
 -12   4   2 43092.0 4592.41   1
  12  -8  -2 37554.6 4275.58   1
  12  -4  -2 32135.9 4063.23   1
 -12   4   1 2489.12 1000.11   1
  12  -8  -1 2925.22 1293.82   1
  12  -4  -1 2372.51 1030.16   1
 -12   8   1 4744.46 1581.00   1
  12  -8   0 72.8761 559.654   1
  12  -4   0 883.556 1027.09   1
 -12   8   0 830.786 910.441   1
 -12   4   0 383.160 699.103   1
  12  -8   0 969.078 671.281   2
  12  -8   1 16854.3 3025.92   1
  12  -4   1 20017.4 3183.75   1
 -12   8  -1 15304.4 2653.37   1
 -12   4  -1 17743.5 2815.95   1
 -12   4  -2 34864.6 4084.86   1
  12  -8   2 46776.6 4813.52   1
  12  -4   2 48225.2 4977.65   1
  -4  -8   2 11776.6 2646.04   2
 -12   8  -2 47818.7 4800.63   1
  12  -8   3 24587.0 3519.89   1
  12  -4   3 20953.3 3281.17   1
  -4  -8   3 10090.4 2445.39   2
 -12   8  -3 25944.6 3654.55   1
 -12   4  -3 26681.6 3530.95   1
  12  -8   3 4881.67 1648.72   2
  12  -8   4 19266.0 3121.53   1
  12  -4   4 17798.4 3058.60   1
  -4  -8   4 5977.49 1878.98   2
 -12   8  -4 18429.6 3125.43   1
 -12   4  -4 18435.2 3027.30   1
  12  -8   4 6878.90 1722.90   2
 -12   8  -5 1480.08 912.363   1
  12  -8   5 2032.58 1338.02   1
 -12   4  -5 2339.84 1016.86   1
  12  -4   5 1360.54 347.744   1
  -4  -8   5 362.598 312.126   2
  12  -8   5 1054.22 640.059   2
  12  -8   6 69375.6 6139.91   1
  12  -4   6 78524.3 6350.39   1
  -4  -8   6 58258.2 5827.54   2
 -12   8  -6 83914.9 6606.04   1
 -12   4  -6 70122.0 6192.20   1
  12  -8   6 57606.5 5354.09   2
 -12   4  -7 8810.09 2089.75   1
  12  -4   7 10089.3 2334.67   1
  -4  -8   7 9047.25 2301.65   2
 -12   4  -8 7327.32 1917.89   1
  12  -4   8 5410.15 1795.08   1
   9 -12   7 358.803 458.398   2
 -12   9   6 207.701 805.621   1
  12  -9  -6 726.910 754.547   1
   9 -12   6 755.812 707.827   2
 -12   3   5 1242.27 839.156   1
  12  -9  -5 618.855 449.288   1
  12  -3  -5 1544.16 981.729   1
   9 -12   5 816.769 1210.23   2
 -12   9   5 1826.60 1126.79   1
 -12   9   4 71190.3 6052.48   1
 -12   3   4 74434.2 5991.52   1
  12  -9  -4 70042.2 6104.72   1
  12  -3  -4 70524.0 6031.99   1
 -12   3   3 227.458 224.139   1
  12  -9  -3 360.595 517.243   1
  12  -3  -3-744.800 1080.39   1
 -12   9   3-696.745 574.624   1
 -12   3   2 1771.73 945.187   1
  12  -9  -2 1740.32 979.940   1
  12  -3  -2 729.688 483.525   1
 -12   9   2 986.565 517.161   1
 -12   3   1 949.735 956.957   1
  12  -9  -1-118.220 744.753   1
  12  -3  -1 311.433 435.788   1
 -12   9   1-637.792 908.885   1
  12  -9  -1-453.207 741.954   2
 -12   3   0 50293.8 4959.22   1
  12  -9   0 46491.2 4958.38   1
  12  -3   0 44624.6 4651.41   1
 -12   9   0 52969.5 4942.35   1
  12  -9   1 1219.77 1045.50   1
 -12   9  -1 100.419 254.411   1
  12  -3   1 1311.70 857.165   1
 -12   3  -1 1293.33 720.459   1
 -12   9  -2-39.4892 556.397   1
  12  -9   2-70.3813 622.596   1
  12  -3   2-1564.85 1175.28   1
 -12   3  -2 457.335 406.916   1
  12  -9   2-293.234 621.635   2
 -12   9  -3 2848.24 1221.48   1
  12  -9   3 4185.40 1566.46   1
  12  -3   3 3250.89 1419.39   1
 -12   3  -3 1694.03 1042.42   1
  12  -9   3 252.835 803.331   2
  12  -9   4 133583. 8456.96   1
  12  -3   4 114682. 8156.01   1
  -3  -9   4 62595.8 6262.17   2
 -12   9  -4 135043. 8504.34   1
  12  -9   4 81894.2 6788.17   2
 -12   3  -4 109293. 7708.41   1
 -12   3  -5 1824.38 1116.79   1
  12  -3   5 1250.42 808.971   1
  -3  -9   5 528.113 662.737   2
  12  -9   5 1003.81 602.453   2
 -12   3  -6 2550.06 1251.65   1
  12  -3   6 3284.04 1390.88   1
  -3  -9   6 3301.39 1516.02   2
  12  -3   7 1073.41 838.220   1
 -12  10   5 11800.4 2393.93   1
  12 -10  -4 9998.49 2286.23   1
  12  -2  -4 9533.97 2189.80   1
 -12  10   4 7330.45 1925.71   1
 -12   2   3 3636.77 1289.15   1
  12 -10  -3 3478.96 1330.66   1
  12  -2  -3 5246.89 1689.84   1
 -12  10   3 3978.32 1393.81   1
 -12   2   2 24902.8 3517.14   1
  12 -10  -2 26833.4 3738.42   1
  12  -2  -2 24618.2 3674.69   1
 -12  10   2 23007.5 3467.25   1
 -12   2   1 572.916 456.955   1
  12 -10  -1 245.908 771.858   1
 -12  10   1 847.221 677.434   1
  12  -2  -1 481.319 778.514   1
  12 -10   0 5657.11 1616.60   1
 -12  10   0 5271.12 1516.03   1
  12  -2   0 3348.72 1298.63   1
 -12   2   0 4182.10 1368.99   1
 -12  10  -1 14921.3 2841.98   1
  12 -10   1 12743.3 2487.04   1
  12  -2   1 10201.2 2387.22   1
 -12   2  -1 12107.7 2509.64   1
 -12   2  -2 47925.0 5113.01   1
  12 -10   2 45042.6 4604.93   1
  12  -2   2 44441.9 4836.07   1
 -12  10  -2 48325.4 4959.32   1
  12  -2   3 30351.3 4208.45   1
 -12   2  -3 28147.3 3900.69   1
  12  -2   4 1177.82 1298.71   1
  12 -10   4 3966.81 1300.18   2
   0   0   0    0.00    0.00   0

;
_shelx_hkl_checksum              69174
loop_
_space_group_symop_operation_xyz
'x, y, z'
'-y, x-y, z'
'-x+y, -x, z'
'-y, -x, -z+1/2'
'-x+y, y, -z+1/2'
'x, x-y, -z+1/2'
'-x, -y, -z'
'y, -x+y, -z'
'x-y, x, -z'
'y, x, z-1/2'
'x-y, -y, z-1/2'
'-x, -x+y, z-1/2'
loop_
_atom_site_label
_atom_site_type_symbol
_atom_site_fract_x
_atom_site_fract_y
_atom_site_fract_z
_atom_site_U_iso_or_equiv
_atom_site_adp_type
_atom_site_occupancy
_atom_site_site_symmetry_order
_atom_site_calc_flag
_atom_site_refinement_flags_posn
_atom_site_refinement_flags_adp
_atom_site_refinement_flags_occupancy
Mn2 Mn 0.6667 0.3333 0.2500 0.02173(18) Uani 1 6 d S T P
Fe1 Fe 1.0000 0.0000 0.0000 0.02174(18) Uani 1 6 d S T P
O1 O 0.8890(2) 0.3419(2) 0.16619(12) 0.0400(4) Uani 1 1 d . . .
O2 O 1.0156(2) 0.2084(2) 0.08198(11) 0.0329(3) Uani 1 1 d . . .
C1 C 0.8792(3) 0.2114(3) 0.11898(14) 0.0320(4) Uani 1 1 d . . .
H1 H 0.7617 0.1072 0.1102 0.064(11) Uiso 1 1 calc R . .
C2 C 1.3333 0.6667 0.162(2) 0.37(3) Uani 1 3 d S T P
N1 N 1.2808(8) 0.5616(16) 0.2500 0.200(16) Uani 0.3333 2 d S T P
loop_
_atom_site_aniso_label
_atom_site_aniso_U_11
_atom_site_aniso_U_22
_atom_site_aniso_U_33
_atom_site_aniso_U_23
_atom_site_aniso_U_13
_atom_site_aniso_U_12
Mn2 0.0199(2) 0.0199(2) 0.0255(3) 0.000 0.000 0.00993(10)
Fe1 0.0195(2) 0.0195(2) 0.0263(3) 0.000 0.000 0.00973(10)
O1 0.0329(7) 0.0329(7) 0.0529(9) -0.0100(6) 0.0101(6) 0.0155(6)
O2 0.0297(6) 0.0296(6) 0.0413(7) -0.0049(5) 0.0031(5) 0.0162(5)
C1 0.0284(8) 0.0312(8) 0.0378(8) -0.0063(7) 0.0008(6) 0.0160(7)
C2 0.041(2) 0.041(2) 1.03(10) 0.000 0.000 0.0206(11)
N1 0.050(6) 0.023(5) 0.52(5) 0.000 -0.110(15) 0.011(2)
loop_
_atom_type_symbol
_atom_type_description
_atom_type_scat_dispersion_real
_atom_type_scat_dispersion_imag
_atom_type_scat_source
C C 0.0030 0.0010 'International Tables Vol C Tables 4.2.6.8 and 6.1.1.4'
H H 0.0000 0.0000 'International Tables Vol C Tables 4.2.6.8 and 6.1.1.4'
N N 0.0050 0.0030 'International Tables Vol C Tables 4.2.6.8 and 6.1.1.4'
O O 0.0090 0.0050 'International Tables Vol C Tables 4.2.6.8 and 6.1.1.4'
Fe Fe 0.3380 0.7620 'International Tables Vol C Tables 4.2.6.8 and 6.1.1.4'
Mn Mn 0.3240 0.6570 'International Tables Vol C Tables 4.2.6.8 and 6.1.1.4'
loop_
_geom_angle_atom_site_label_1
_geom_angle_atom_site_label_2
_geom_angle_atom_site_label_3
_geom_angle
_geom_angle_site_symmetry_1
_geom_angle_site_symmetry_3
O1 Mn2 O1 89.00(9) . 4_665
O1 Mn2 O1 84.25(9) . 6
O1 Mn2 O1 93.42(7) 4_665 6
O1 Mn2 O1 93.42(7) . 3_665
O1 Mn2 O1 84.25(9) 4_665 3_665
O1 Mn2 O1 176.74(8) 6 3_665
O1 Mn2 O1 93.42(7) . 2_655
O1 Mn2 O1 176.74(8) 4_665 2_655
O1 Mn2 O1 89.00(9) 6 2_655
O1 Mn2 O1 93.42(7) 3_665 2_655
O1 Mn2 O1 176.74(8) . 5_655
O1 Mn2 O1 93.42(7) 4_665 5_655
O1 Mn2 O1 93.42(7) 6 5_655
O1 Mn2 O1 89.00(9) 3_665 5_655
O1 Mn2 O1 84.25(9) 2_655 5_655
O2 Fe1 O2 180.0 . 7_755
O2 Fe1 O2 88.77(6) . 9_545
O2 Fe1 O2 91.23(6) 7_755 9_545
O2 Fe1 O2 91.23(6) . 3_765
O2 Fe1 O2 88.77(6) 7_755 3_765
O2 Fe1 O2 180.00(11) 9_545 3_765
O2 Fe1 O2 91.23(6) . 2_645
O2 Fe1 O2 88.77(6) 7_755 2_645
O2 Fe1 O2 88.77(6) 9_545 2_645
O2 Fe1 O2 91.23(6) 3_765 2_645
O2 Fe1 O2 88.77(6) . 8_665
O2 Fe1 O2 91.23(6) 7_755 8_665
O2 Fe1 O2 91.23(6) 9_545 8_665
O2 Fe1 O2 88.77(6) 3_765 8_665
O2 Fe1 O2 180.00(11) 2_645 8_665
C1 O1 Mn2 125.47(14) . .
C1 O2 Fe1 125.18(13) . .
O1 C1 O2 124.9(2) . .
N1 C2 N1 54.2(14) 3_775 2_755
N1 C2 N1 54.2(14) 3_775 .
N1 C2 N1 54.2(14) 2_755 .
N1 N1 N1 60.000(1) 3_775 2_755
N1 N1 C2 62.9(7) 3_775 .
N1 N1 C2 62.9(7) 2_755 .
N1 N1 C2 62.9(7) 3_775 4_775
N1 N1 C2 62.9(7) 2_755 4_775
C2 N1 C2 116.5(17) . 4_775
loop_
_geom_bond_atom_site_label_1
_geom_bond_atom_site_label_2
_geom_bond_distance
_geom_bond_site_symmetry_2
Mn2 O1 2.1478(15) .
Mn2 O1 2.1479(15) 4_665
Mn2 O1 2.1479(15) 6
Mn2 O1 2.1479(15) 3_665
Mn2 O1 2.1479(15) 2_655
Mn2 O1 2.1479(15) 5_655
Fe1 O2 2.0155(14) .
Fe1 O2 2.0155(14) 7_755
Fe1 O2 2.0155(14) 9_545
Fe1 O2 2.0155(14) 3_765
Fe1 O2 2.0155(14) 2_645
Fe1 O2 2.0155(14) 8_665
O1 C1 1.230(2) .
O2 C1 1.251(2) .
C2 N1 1.43(3) 3_775
C2 N1 1.43(3) 2_755
C2 N1 1.43(3) .
N1 N1 1.30(2) 3_775
N1 N1 1.30(2) 2_755
N1 C2 1.43(3) 4_775
