#------------------------------------------------------------------------------
#$Date: 2017-03-04 15:17:13 +0200 (Sat, 04 Mar 2017) $
#$Revision: 193442 $
#$URL: file:///home/coder/svn-repositories/cod/cif/4/34/50/4345019.cif $
#------------------------------------------------------------------------------
#
# This file is available in the Crystallography Open Database (COD),
# http://www.crystallography.net/
#
# All data on this site have been placed in the public domain by the
# contributors.
#
data_4345019
loop_
_publ_author_name
'Dembowski, Mateusz'
'Bernales, Varinia'
'Qiu, Jie'
'Hickam, Sarah'
'Gaspar, Gabriel'
'Gagliardi, Laura'
'Burns, Peter C.'
_publ_section_title
;
 Computationally-Guided Assignment of Unexpected Signals in the Raman
 Spectra of Uranyl Triperoxide Complexes.
;
_journal_issue                   3
_journal_name_full               'Inorganic chemistry'
_journal_page_first              1574
_journal_page_last               1580
_journal_paper_doi               10.1021/acs.inorgchem.6b02666
_journal_volume                  56
_journal_year                    2017
_chemical_formula_moiety         'O8 U, 4(O), 4(K)'
_chemical_formula_sum            'K4 O12 U'
_chemical_formula_weight         586.43
_space_group_crystal_system      monoclinic
_space_group_IT_number           14
_space_group_name_Hall           '-P 2ybc'
_space_group_name_H-M_alt        'P 1 21/c 1'
_symmetry_space_group_name_Hall  '-P 2ybc'
_symmetry_space_group_name_H-M   'P 1 21/c 1'
_audit_creation_method           SHELXL-2014/7
_cell_angle_alpha                90
_cell_angle_beta                 107.5360(8)
_cell_angle_gamma                90
_cell_formula_units_Z            4
_cell_length_a                   10.7051(10)
_cell_length_b                   7.7545(7)
_cell_length_c                   15.3186(15)
_cell_measurement_reflns_used    14352
_cell_measurement_temperature    100(2)
_cell_measurement_theta_max      27.878
_cell_measurement_theta_min      1.995
_cell_volume                     1212.5(2)
_computing_structure_refinement  'SHELXL-2014/7 (Sheldrick, 2014)'
_diffrn_ambient_temperature      100(2)
_diffrn_measured_fraction_theta_full 1.000
_diffrn_measured_fraction_theta_max 1.000
_diffrn_measurement_device_type  'Bruker APEX II CCD'
_diffrn_measurement_method       '\f and \w scans'
_diffrn_radiation_type           MoK\a
_diffrn_radiation_wavelength     0.71073
_diffrn_reflns_av_R_equivalents  0.0376
_diffrn_reflns_av_unetI/netI     0.0261
_diffrn_reflns_Laue_measured_fraction_full 1.000
_diffrn_reflns_Laue_measured_fraction_max 1.000
_diffrn_reflns_limit_h_max       13
_diffrn_reflns_limit_h_min       -14
_diffrn_reflns_limit_k_max       10
_diffrn_reflns_limit_k_min       -10
_diffrn_reflns_limit_l_max       20
_diffrn_reflns_limit_l_min       -19
_diffrn_reflns_number            14352
_diffrn_reflns_point_group_measured_fraction_full 1.000
_diffrn_reflns_point_group_measured_fraction_max 1.000
_diffrn_reflns_theta_full        25.242
_diffrn_reflns_theta_max         27.878
_diffrn_reflns_theta_min         1.995
_exptl_absorpt_coefficient_mu    14.809
_exptl_absorpt_correction_T_max  0.7456
_exptl_absorpt_correction_T_min  0.4842
_exptl_absorpt_correction_type   multi-scan
_exptl_absorpt_process_details   'SADABS (Krause 2015)'
_exptl_crystal_colour            yellow
_exptl_crystal_density_diffrn    3.212
_exptl_crystal_description       icosahedral
_exptl_crystal_F_000             1056
_exptl_crystal_size_max          0.1
_exptl_crystal_size_mid          0.1
_exptl_crystal_size_min          0.1
_refine_diff_density_max         0.973
_refine_diff_density_min         -1.478
_refine_diff_density_rms         0.180
_refine_ls_extinction_method     none
_refine_ls_goodness_of_fit_ref   1.060
_refine_ls_hydrogen_treatment    undef
_refine_ls_matrix_type           full
_refine_ls_number_parameters     154
_refine_ls_number_reflns         2892
_refine_ls_number_restraints     0
_refine_ls_restrained_S_all      1.060
_refine_ls_R_factor_all          0.0189
_refine_ls_R_factor_gt           0.0184
_refine_ls_shift/su_max          0.002
_refine_ls_shift/su_mean         0.000
_refine_ls_structure_factor_coef Fsqd
_refine_ls_weighting_details
'w=1/[\s^2^(Fo^2^)+(0.0255P)^2^+2.3053P] where P=(Fo^2^+2Fc^2^)/3'
_refine_ls_weighting_scheme      calc
_refine_ls_wR_factor_gt          0.0487
_refine_ls_wR_factor_ref         0.0490
_reflns_Friedel_coverage         0.000
_reflns_number_gt                2831
_reflns_number_total             2892
_reflns_threshold_expression     'I > 2\s(I)'
_cod_data_source_file            ic6b02666_si_002.cif
_cod_data_source_block           KUO8
_cod_depositor_comments
'Adding full bibliography for 4345018--4345021.cif.'
_cod_database_code               4345019
_shelx_shelxl_version_number     2014/7
_shelx_space_group_comment
;
The symmetry employed for this shelxl refinement is uniquely defined
by the following loop, which should always be used as a source of
symmetry information in preference to the above space-group names.
They are only intended as comments.
;
_shelx_res_file
;

    KUO8.res created by SHELXL-2014/7


TITL test in P2(1)/c
CELL 0.71073  10.70510   7.75450  15.31860  90.0000 107.5360  90.0000
ZERR   4.00   0.00100   0.00070   0.00150   0.0000   0.0008   0.0000
LATT  1
SYMM -X, 0.5+Y, 0.5-Z
SFAC O K U
UNIT 48 16 4
TEMP 0.000

L.S. 10
BOND
FMAP 2
PLAN 20
ACTA
WGHT    0.025500    2.305300
FVAR       0.08099
U1    3    0.748020    0.400846    0.149765    11.00000    0.00478    0.00584 =
         0.00684    0.00058    0.00251    0.00056
K1    2    0.351848    0.607551    0.130558    11.00000    0.00865    0.01150 =
         0.01937   -0.00268    0.00442   -0.00076
K2    2    1.054074    0.279604    0.051661    11.00000    0.01099    0.00947 =
         0.01076   -0.00082    0.00510   -0.00106
K3    2    0.600166    0.785474   -0.005991    11.00000    0.00845    0.01432 =
         0.01619    0.00300    0.00253    0.00250
K4    2    0.900982   -0.050030    0.187454    11.00000    0.01108    0.00775 =
         0.01129   -0.00082    0.00035    0.00119
O1    1    0.911469    0.296850    0.175368    11.00000    0.00761    0.00859 =
         0.00988    0.00144    0.00285    0.00114
O5    1    0.760811    0.379591    0.303821    11.00000    0.01473    0.01188 =
         0.01266    0.00338    0.00685    0.00121
O6    1    0.831059    0.539310    0.289628    11.00000    0.01258    0.01102 =
         0.01209   -0.00218    0.00479   -0.00243
O3    1    0.785547    0.527587    0.024811    11.00000    0.01303    0.01190 =
         0.00698   -0.00325    0.00305   -0.00343
O4    1    0.829357    0.648000    0.104528    11.00000    0.01352    0.00546 =
         0.01040   -0.00277    0.00287   -0.00209
O2    1    0.584689    0.503386    0.122199    11.00000    0.00730    0.01280 =
         0.01367    0.00294    0.00374    0.00336
O7    1    0.659157    0.180703    0.046028    11.00000    0.01278    0.01959 =
         0.02363   -0.00985    0.00652   -0.00146
O8    1    0.660612    0.126187    0.140242    11.00000    0.01438    0.01209 =
         0.03784    0.00592    0.01035   -0.00118
O1W   1    1.085436    0.601045    0.135293    11.00000    0.01064    0.01032 =
         0.01593   -0.00356    0.00612   -0.00060
O2W   1    0.842316    0.029199   -0.008190    11.00000    0.01706    0.01323 =
         0.01070    0.00045    0.00459    0.00414
O3W   1    0.494186    0.909484    0.174764    11.00000    0.01518    0.01227 =
         0.03561    0.00427    0.01239    0.00121
O4W   1    0.336427    0.255840    0.172236    11.00000    0.01968    0.01713 =
         0.01650    0.00508    0.00519   -0.00214

HKLF 4

REM  test in P2(1)/c
REM R1 =  0.0184 for    2831 Fo > 4sig(Fo)  and  0.0189 for all    2892 data
REM    154 parameters refined using      0 restraints

END

WGHT      0.0224      2.2595

REM Highest difference peak  0.973,  deepest hole -1.478,  1-sigma level  0.180
Q1    1   0.7569  0.3292  0.1940  11.00000  0.05    0.97
Q2    1   0.8199  0.0392 -0.0666  11.00000  0.05    0.96
Q3    1   0.7186  0.3956  0.2094  11.00000  0.05    0.93
Q4    1   0.7410  0.3254  0.1078  11.00000  0.05    0.89
Q5    1   0.7465  0.4679  0.0978  11.00000  0.05    0.86
Q6    1   0.7559  0.4787  0.1959  11.00000  0.05    0.85
Q7    1   0.5382  1.0033  0.1575  11.00000  0.05    0.84
Q8    1   1.1221  0.7077  0.1617  11.00000  0.05    0.84
Q9    1   0.7725  0.4051  0.0912  11.00000  0.05    0.83
Q10   1   0.2911  0.1876  0.1946  11.00000  0.05    0.75
Q11   1   0.9953  0.6177  0.1152  11.00000  0.05    0.74
Q12   1   0.3852  0.3007  0.2180  11.00000  0.05    0.74
Q13   1   0.4274  0.9567  0.1885  11.00000  0.05    0.71
Q14   1   0.7771  0.0772  0.0041  11.00000  0.05    0.65
Q15   1   0.7546  0.3301  0.2502  11.00000  0.05    0.51
Q16   1   0.9274  0.6398  0.0950  11.00000  0.05    0.51
Q17   1   1.0408  0.0826  0.0802  11.00000  0.05    0.49
Q18   1   0.3184  0.2813  0.1499  11.00000  0.05    0.49
Q19   1   0.8610  0.3218  0.2098  11.00000  0.05    0.46
Q20   1   0.7707  0.5828  0.2321  11.00000  0.05    0.46
;
_shelx_res_checksum              87707
_shelx_hkl_file
;
  -1   0   0    2.83    0.18
   1   0   0    2.47    0.18
  -1   0   0    2.75    0.21
   2   0   0  589.79   26.14
   2   0   0  594.32   26.12
  -2   0   0  565.11   26.04
  -2   0   0  489.10   26.12
  -3   0   0   16.12    0.81
  -3   0   0   15.88    0.92
   3   0   0   16.41    0.83
   4   0   0   61.95    2.99
  -4   0   0   61.83    3.11
  -4   0   0   64.66    2.96
   4   0   0   61.61    3.00
   5   0   0    3.20    0.28
  -5   0   0    3.32    0.39
   5   0   0    3.79    0.27
  -5   0   0    3.38    0.23
   6   0   0  420.36   19.40
  -6   0   0  398.12   19.59
  -6   0   0  425.30   19.38
   6   0   0  418.60   19.39
   7   0   0   57.00    2.75
   7   0   0   55.28    2.75
  -7   0   0   56.33    2.99
  -8   0   0  234.41   11.48
   8   0   0  231.88   11.18
   8   0   0  246.49   11.18
  -9   0   0    5.84    0.70
   9   0   0    5.98    0.46
   9   0   0    4.98    0.46
  10   0   0  204.71    9.99
  10   0   0  214.53    9.99
 -10   0   0  213.36   10.43
 -11   0   0    1.45    0.54
  11   0   0    2.56    0.39
  12   0   0  265.77   13.16
 -12   0   0  290.95   13.77
  13   0   0   12.93    0.95
 -13   0   0   12.40    1.40
   0  -1   0    0.05    0.03
   0   1   0    0.19    0.05
   0   1   0   -0.03    0.03
   0   1   0   -0.06    0.02
   1  -1   0  205.13    9.48
   1  -1   0  190.26    9.50
  -1  -1   0  190.04    9.44
   1   1   0  193.25    9.43
   1   1   0  199.44    9.46
  -1   1   0  214.12    9.49
   1   1   0  234.16    9.52
  -1   1   0  193.97    9.45
   2  -1   0    7.33    0.41
   2  -1   0    8.03    0.40
  -2  -1   0    8.08    0.47
  -2   1   0    8.16    0.48
   2   1   0    7.85    0.39
   2   1   0    7.82    0.43
  -2   1   0    8.52    0.44
  -3  -1   0  340.40   17.70
   3  -1   0  402.76   17.80
   3  -1   0  382.32   17.70
   3   1   0  374.11   17.73
   3   1   0  404.02   17.86
  -3   1   0  371.16   17.72
  -3   1   0  381.06   17.79
   4  -1   0   14.85    0.76
   4  -1   0   15.18    0.78
  -4  -1   0   16.03    0.90
  -4   1   0   15.27    0.91
  -4   1   0   14.78    0.79
   4   1   0   15.35    0.79
   4   1   0   14.30    0.79
  -5  -1   0   60.66    2.98
   5  -1   0   56.67    2.80
   5  -1   0   56.64    2.82
  -5   1   0   61.84    2.82
  -5   1   0   55.26    2.97
   5   1   0   59.93    2.84
   5   1   0   59.65    2.83
   6  -1   0   17.06    0.94
   6  -1   0   17.87    0.92
  -6  -1   0   19.03    1.13
   6   1   0   17.48    0.95
  -6   1   0   17.16    0.92
  -6   1   0   19.10    1.15
   6   1   0   16.06    0.94
   7  -1   0  106.14    5.07
  -7  -1   0  108.45    5.34
   7  -1   0  108.09    5.11
   7   1   0  104.69    5.11
  -7   1   0  104.60    5.36
   7   1   0  110.99    5.12
  -7   1   0  105.17    5.06
  -8  -1   0   40.94    2.30
   8  -1   0   40.34    1.99
   8  -1   0   37.27    2.01
   8   1   0   39.92    2.03
   8   1   0   40.01    2.02
  -8   1   0   39.76    2.31
   9  -1   0  136.93    6.83
  -9  -1   0  144.18    7.17
   9  -1   0  145.38    6.80
  -9   1   0  147.63    7.22
   9   1   0  141.69    6.84
   9   1   0  143.00    6.84
 -10  -1   0    0.25    0.34
  10  -1   0    0.24    0.20
  10   1   0    0.42    0.22
  10   1   0    0.43    0.20
 -10   1   0    0.77    0.43
 -11  -1   0   92.62    4.91
  11  -1   0   83.29    4.42
  11   1   0   88.62    4.44
 -11   1   0   95.92    4.98
  11   1   0   91.46    4.44
 -12  -1   0   26.18    1.94
  12  -1   0   25.05    1.46
  12   1   0   22.44    1.45
 -12   1   0   26.71    1.96
  13  -1   0   33.56    1.95
 -13  -1   0   37.74    2.52
 -13   1   0   37.27    2.56
  13   1   0   33.00    1.96
   0  -2   0   57.41    2.92
   0   2   0   63.50    2.95
   0   2   0   64.08    2.96
   1  -2   0    3.54    0.26
  -1  -2   0    3.82    0.27
   1  -2   0    3.83    0.27
  -1  -2   0    4.04    0.27
   1   2   0    4.19    0.28
  -1   2   0    3.70    0.30
   1   2   0    4.05    0.28
  -1   2   0    3.79    0.30
  -2  -2   0  132.30    6.30
   2  -2   0  129.73    6.26
   2  -2   0  127.66    6.25
  -2   2   0  133.58    6.31
   2   2   0  132.46    6.28
   2   2   0  134.71    6.28
  -2   2   0  136.80    6.34
   2   2   0  139.75    6.25
   3  -2   0  134.14    5.95
   3  -2   0  118.29    5.98
  -3  -2   0  127.87    6.05
  -3   2   0  120.01    6.08
   3   2   0  120.18    6.00
   3   2   0  128.10    5.94
  -3   2   0  135.97    6.04
   3   2   0  134.11    6.01
   4  -2   0   48.75    2.53
   4  -2   0   54.36    2.50
  -4  -2   0   54.12    2.64
  -4   2   0   50.94    2.57
   4   2   0   52.77    2.56
  -4   2   0   52.99    2.68
   5  -2   0    3.35    0.25
   5  -2   0    3.23    0.28
  -5  -2   0    3.55    0.39
   5   2   0    3.67    0.30
   5   2   0    3.18    0.30
  -5   2   0    3.31    0.41
  -6  -2   0   17.19    1.12
   6  -2   0   17.73    0.97
   6  -2   0   18.59    0.93
  -6   2   0   19.32    1.20
  -6   2   0   18.07    1.00
   6   2   0   18.19    1.00
   6   2   0   16.78    0.99
  -7  -2   0    4.09    0.53
   7  -2   0    3.64    0.34
   7  -2   0    4.20    0.30
  -7   2   0    2.96    0.48
   7   2   0    3.79    0.35
  -7   2   0    3.47    0.34
   7   2   0    3.62    0.35
   8  -2   0   52.68    2.57
  -8  -2   0   48.89    2.80
   8   2   0   50.40    2.58
  -8   2   0   54.72    2.91
   8   2   0   49.96    2.58
  -8   2   0   51.55    2.57
   9  -2   0   12.10    0.77
  -9  -2   0   12.14    1.04
   9   2   0   10.68    0.77
   9   2   0   12.54    0.80
  -9   2   0   12.08    1.08
 -10  -2   0    7.28    0.81
  10  -2   0    6.58    0.55
  10   2   0    7.08    0.59
 -10   2   0    7.78    0.89
  10   2   0    6.17    0.58
  11  -2   0   16.32    1.03
 -11  -2   0   15.48    1.37
  11   2   0   16.63    1.05
 -11   2   0   15.90    1.41
  11   2   0   15.58    1.04
  12  -2   0   21.41    1.37
 -12  -2   0   22.64    1.80
  12   2   0   23.21    1.41
 -12   2   0   25.47    1.90
  12   2   0   23.91    1.42
  13  -2   0    0.54    0.30
 -13  -2   0    0.50    0.50
 -13   2   0    0.92    0.68
  13   2   0    0.56    0.30
   0   3   0   -0.31    0.08
   0   3   0   -0.01    0.11
   0   3   0   -0.03    0.11
   1  -3   0  726.85   31.61
  -1  -3   0  624.48   31.66
   1  -3   0  625.61   31.55
   1   3   0  623.40   31.56
   1   3   0  761.54   31.55
  -1   3   0  689.73   31.45
  -2  -3   0  116.09    5.59
  -2  -3   0  121.18    5.59
   2  -3   0  110.36    5.56
   2  -3   0  110.91    5.57
  -2   3   0  126.61    5.65
   2   3   0  112.84    5.59
   2   3   0  119.55    5.58
  -2   3   0  127.00    5.67
  -3  -3   0  237.49   10.88
   3  -3   0  225.95   10.80
   3  -3   0  224.75   10.83
   3   3   0  229.86   10.86
  -3   3   0  239.42   10.91
   3   3   0  241.44   10.82
  -3   3   0  231.06   10.95
   3   3   0  221.01   10.85
   4  -3   0   23.11    1.19
  -4  -3   0   24.49    1.32
   4  -3   0   22.64    1.24
  -4   3   0   24.08    1.31
   4   3   0   26.39    1.28
  -4   3   0   23.90    1.38
   4   3   0   23.74    1.26
   4   3   0   24.26    1.19
  -5  -3   0  278.74   13.77
   5  -3   0  305.52   13.61
   5  -3   0  281.46   13.66
  -5   3   0  302.46   13.74
   5   3   0  305.81   13.70
   5   3   0  293.69   13.69
  -5   3   0  275.10   13.84
   6  -3   0   26.08    1.40
  -6  -3   0   27.60    1.55
   6  -3   0   29.83    1.35
  -6   3   0   27.96    1.62
   6   3   0   25.86    1.43
  -6   3   0   25.78    1.46
   6   3   0   25.84    1.43
  -7  -3   0  183.35    8.66
   7  -3   0  173.25    8.45
   7   3   0  181.09    8.49
  -7   3   0  178.23    8.72
  -7   3   0  186.99    8.52
   7   3   0  169.43    8.47
  -8  -3   0    6.91    0.69
   8  -3   0    5.91    0.48
   8   3   0    6.42    0.53
  -8   3   0    6.11    0.72
   8   3   0    6.32    0.52
  -9  -3   0  257.33   12.93
   9  -3   0  264.17   12.66
   9   3   0  274.69   12.70
   9   3   0  261.24   12.69
  -9   3   0  285.57   13.07
 -10  -3   0    2.61    0.57
  10  -3   0    2.83    0.39
  10   3   0    2.32    0.39
 -10   3   0    2.58    0.63
  10   3   0    1.91    0.36
 -11  -3   0  211.31   10.66
  11  -3   0  220.48   10.29
  11   3   0  214.71   10.30
 -11   3   0  219.99   10.79
  11   3   0  211.02   10.30
 -12  -3   0    1.47    0.55
  12  -3   0    1.75    0.38
  12   3   0    1.36    0.37
 -12   3   0    1.25    0.61
  12   3   0    1.33    0.35
   0  -4   0  168.82    8.13
   0   4   0  160.14    8.17
   0   4   0  166.98    8.16
   0   4   0  195.26    8.18
   1  -4   0   11.90    0.73
  -1  -4   0   12.89    0.75
   1  -4   0   12.42    0.73
   1   4   0   14.76    0.79
  -1   4   0   13.80    0.81
   1   4   0   12.19    0.76
  -1   4   0   14.96    0.82
  -1   4   0   12.31    0.76
   1   4   0   14.27    0.77
  -2  -4   0  327.45   16.58
   2  -4   0  345.10   16.57
  -2  -4   0  350.74   16.57
   2  -4   0  339.93   16.56
   2   4   0  336.82   16.59
  -2   4   0  351.49   16.66
   2   4   0  402.81   16.61
  -2   4   0  385.10   16.67
   3  -4   0    6.18    0.37
  -3  -4   0    5.12    0.40
  -3  -4   0    5.51    0.40
   3  -4   0    4.80    0.37
  -3   4   0    5.19    0.46
  -3   4   0    5.05    0.47
   3   4   0    5.36    0.38
   3   4   0    5.13    0.41
   4  -4   0  232.66   11.48
   4  -4   0  260.82   11.44
  -4  -4   0  229.94   11.53
  -4  -4   0  231.33   11.51
   4   4   0  245.56   11.52
  -4   4   0  250.86   11.67
   4   4   0  262.42   11.47
   5  -4   0   12.86    0.75
  -5  -4   0   11.94    0.82
  -5  -4   0   13.60    0.79
   5  -4   0   11.55    0.74
  -5   4   0   12.58    0.91
   5   4   0   12.11    0.78
   5   4   0   13.65    0.79
  -5   4   0   13.60    0.86
   6  -4   0   59.03    2.96
  -6  -4   0   62.54    3.09
  -6   4   0   60.91    3.06
  -6   4   0   60.06    3.18
   6   4   0   57.08    2.99
   6   4   0   60.68    3.00
   7  -4   0    3.06    0.33
  -7  -4   0    2.72    0.44
  -7   4   0    2.46    0.38
   7   4   0    3.00    0.38
   7   4   0    2.80    0.37
  -7   4   0    3.55    0.56
  -8  -4   0  212.31   10.11
   8  -4   0  207.45    9.89
  -8   4   0  202.65   10.20
  -8   4   0  209.18    9.99
   8   4   0  204.92    9.92
   8   4   0  215.21    9.94
  -9  -4   0    2.92    0.54
   9  -4   0    3.70    0.43
  -9   4   0    3.55    0.66
   9   4   0    1.98    0.36
  -9   4   0    2.60    0.43
   9   4   0    3.51    0.46
  10  -4   0  162.03    7.71
 -10  -4   0  158.60    7.75
 -10  -4   0  161.75    8.01
  10   4   0  158.65    7.73
  10   4   0  158.05    7.74
 -10   4   0  162.03    8.14
 -11  -4   0   20.34    1.29
 -11  -4   0   19.26    1.51
  11  -4   0   19.69    1.21
  11   4   0   19.10    1.26
 -11   4   0   18.38    1.59
 -12  -4   0   93.72    4.97
 -12  -4   0   90.50    4.60
  12  -4   0   87.90    4.53
  12   4   0   87.20    4.57
 -12   4   0   94.02    5.10
   0  -5   0   -0.21    0.09
   0   5   0   -0.06    0.13
   0   5   0   -0.09    0.13
   0   5   0   -0.16    0.15
  -1  -5   0   34.63    1.94
   1  -5   0   35.07    1.94
   1  -5   0   36.89    1.95
   1   5   0   40.84    2.02
   1   5   0   36.06    1.98
  -1   5   0   39.20    2.05
  -1   5   0   43.78    2.03
   1   5   0   42.31    1.97
  -2  -5   0    0.67    0.18
   2  -5   0    0.27    0.14
   2  -5   0    0.40    0.15
  -2  -5   0    0.41    0.13
   2   5   0    0.33    0.15
  -2   5   0    0.44    0.20
  -2   5   0    0.38    0.19
   2   5   0    0.20    0.14
  -3  -5   0   26.70    1.45
   3  -5   0   27.22    1.41
   3  -5   0   25.92    1.42
  -3  -5   0   27.88    1.42
  -3   5   0   30.77    1.58
   3   5   0   27.56    1.44
   3   5   0   24.95    1.45
  -3   5   0   25.45    1.53
  -4  -5   0   18.37    1.15
  -4  -5   0   21.90    1.18
   4  -5   0   20.92    1.15
   4   5   0   19.65    1.17
  -4   5   0   21.15    1.27
   4   5   0   22.59    1.15
  -4   5   0   21.27    1.30
  -5  -5   0    0.20    0.17
  -5  -5   0    0.46    0.19
   5  -5   0    0.38    0.17
  -5   5   0    1.14    0.32
  -5   5   0    0.47    0.24
   5   5   0    0.28    0.18
  -6  -5   0    3.49    0.41
   6  -5   0    3.63    0.39
  -6  -5   0    3.71    0.48
  -6   5   0    4.06    0.53
   6   5   0    3.77    0.40
  -6   5   0    3.11    0.53
  -7  -5   0    1.89    0.35
  -7  -5   0    2.39    0.41
   7  -5   0    1.67    0.28
  -7   5   0    1.75    0.45
  -7   5   0    1.88    0.39
   7   5   0    1.93    0.33
   8  -5   0    9.01    0.68
  -8  -5   0    9.05    0.73
  -8  -5   0    9.79    0.83
  -8   5   0    8.93    0.79
  -8   5   0    8.64    0.92
   8   5   0    9.20    0.72
   9  -5   0    2.18    0.37
  -9  -5   0    2.46    0.40
  -9  -5   0    1.82    0.46
  -9   5   0    2.58    0.59
   9   5   0    2.13    0.40
  -9   5   0    1.59    0.40
 -10  -5   0    0.67    0.41
 -10  -5   0    1.06    0.34
  10  -5   0    0.82    0.29
  10   5   0    0.98    0.34
 -10   5   0    1.01    0.46
  11  -5   0    0.23    0.26
 -11  -5   0    0.15    0.29
  11   5   0    0.18    0.28
 -11   5   0    0.04    0.41
   0  -6   0  276.27   13.28
   0   6   0  276.99   13.33
   0   6   0  293.79   13.39
   1  -6   0    0.30    0.15
   1  -6   0    0.08    0.15
  -1  -6   0    0.31    0.16
   1   6   0   -0.03    0.13
  -1   6   0   -0.01    0.17
   1   6   0    0.44    0.20
   2  -6   0  115.56    5.57
   2  -6   0  112.32    5.57
  -2  -6   0  115.59    5.59
   2   6   0  118.01    5.63
  -2   6   0  119.02    5.71
   2   6   0  114.84    5.62
  -3  -6   0    6.93    0.59
   3  -6   0    9.12    0.61
  -3   6   0    7.92    0.70
   3   6   0    8.01    0.63
   3   6   0    9.12    0.64
  -4  -6   0  122.97    6.24
   4  -6   0  128.69    6.21
   4   6   0  133.50    6.26
  -4   6   0  132.35    6.38
   5  -6   0   11.46    0.74
  -5  -6   0   10.77    0.76
   5   6   0   10.33    0.75
  -5   6   0   10.38    0.87
  -6  -6   0  125.72    6.60
   6  -6   0  144.58    6.59
  -6   6   0  140.12    6.77
   6   6   0  136.29    6.62
   7  -6   0    5.99    0.54
  -7  -6   0    6.55    0.60
  -7   6   0    4.66    0.65
   7   6   0    5.80    0.57
   8  -6   0  127.30    5.98
  -8  -6   0  118.76    6.01
   8   6   0  122.31    6.00
  -8   6   0  121.67    6.15
  -9  -6   0    0.97    0.32
   9  -6   0    0.85    0.30
   9   6   0    0.90    0.33
  -9   6   0    2.12    0.49
 -10  -6   0   92.05    4.62
  10  -6   0   92.40    4.56
  10   6   0   88.08    4.59
  -1  -7   0  279.35   13.67
   1  -7   0  302.67   13.68
   1  -7   0  281.89   13.66
  -1   7   0  284.58   13.80
   1   7   0  294.69   13.73
   1   7   0  295.01   13.77
   2  -7   0    0.33    0.21
  -2  -7   0    0.85    0.25
  -2   7   0    0.15    0.23
   2   7   0    0.13    0.22
   2   7   0    0.18    0.22
  -3  -7   0  146.23    7.13
   3  -7   0  149.54    7.11
   3   7   0  143.41    7.15
  -3   7   0  145.04    7.27
   3   7   0  154.36    7.17
  -4  -7   0    2.21    0.38
   4  -7   0    2.21    0.35
  -4   7   0    1.53    0.40
   4   7   0    1.54    0.34
   5  -7   0  122.95    6.21
  -5  -7   0  136.56    6.30
   5   7   0  131.05    6.29
  -5   7   0  123.55    6.43
  -6  -7   0    0.29    0.27
   6  -7   0    0.18    0.24
  -6   7   0    0.50    0.32
   6   7   0    0.90    0.30
   7  -7   0  173.41    8.36
  -7  -7   0  179.98    8.43
   7   7   0  174.96    8.41
  -7   7   0  166.64    8.58
  -8  -7   0    5.49    0.66
   8  -7   0    5.87    0.61
  -8   7   0    5.05    0.77
   8   7   0    7.54    0.69
  -9  -7   0  107.36    5.37
   9  -7   0  114.79    5.33
  -9   7   0  100.96    5.51
   9   7   0  103.97    5.34
   0  -8   0   19.71    1.22
   0   8   0   19.31    1.33
  -1  -8   0    6.44    0.62
   1  -8   0    7.24    0.63
   1   8   0    7.05    0.68
  -1   8   0    6.79    0.74
   1   8   0    6.88    0.71
   2  -8   0   26.30    1.50
  -2  -8   0   25.18    1.50
  -2   8   0   24.84    1.65
   2   8   0   23.51    1.52
   2   8   0   28.44    1.62
  -3  -8   0    5.28    0.56
   3  -8   0    3.92    0.49
  -3   8   0    4.56    0.69
   3   8   0    3.91    0.53
  -4  -8   0   16.48    1.11
   4  -8   0   16.75    1.09
   4   8   0   16.60    1.13
   5  -8   0    2.20    0.40
  -5  -8   0    2.91    0.47
   5   8   0    2.13    0.43
  -5   8   0    2.00    0.54
   6  -8   0    1.42    0.37
  -6  -8   0    1.41    0.39
  -6   8   0    0.78    0.42
   6   8   0    1.69    0.42
   7  -8   0   -0.17    0.26
  -7  -8   0    0.39    0.30
   7   8   0    0.29    0.31
  -7   8   0    0.28    0.37
  -8  -8   0    4.59    0.63
   8  -8   0    4.31    0.64
  -8   8   0    4.85    0.80
   8   8   0    5.75    0.70
   0  -9   0    0.35    0.29
   0   9   0    0.01    0.31
   1  -9   0   80.48    3.91
   1   9   0   76.08    4.03
   1   9   0   73.51    3.94
  -1   9   0   74.88    4.06
   2  -9   0    2.67    0.45
  -2  -9   0    1.82    0.42
  -2   9   0    2.02    0.53
   2   9   0    2.08    0.44
   2   9   0    2.47    0.51
   3  -9   0   50.01    2.45
  -3  -9   0   44.45    2.45
   3   9   0   43.20    2.47
  -3   9   0   39.64    2.59
   4  -9   0    1.20    0.34
  -4  -9   0    1.18    0.35
   4   9   0    0.78    0.36
  -4   9   0    1.15    0.48
   5  -9   0   40.60    2.18
  -5  -9   0   38.68    2.23
  -5   9   0   36.25    2.41
   5   9   0   39.29    2.24
  -6  -9   0    0.41    0.33
   6   9   0    0.37    0.35
  -6   9   0    0.31    0.46
   0 -10   0  156.70    7.20
   0  10   0  134.56    7.31
   1 -10   0    9.10    0.83
  -1 -10   0    8.31    0.82
   1  10   0    8.48    0.94
  -1  10   0    6.71    0.94
   2  10   0   79.55    4.61
  -2  10   0   76.87    4.28
 -13   0   1    0.04    0.41
  13   0  -1    0.24    0.28
 -12   0   1    0.39    0.42
  12   0  -1    0.59    0.26
 -11   0   1    0.09    0.38
  11   0  -1    0.22    0.22
  10   0  -1    0.18    0.19
  10   0  -1   -0.06    0.15
 -10   0   1    0.33    0.33
  -9   0   1    0.21    0.30
   9   0  -1    0.16    0.15
   9   0  -1    0.08    0.14
  -8   0   1   -0.04    0.20
   8   0  -1    0.41    0.16
   8   0  -1    0.63    0.16
   7   0  -1    0.22    0.11
   7   0  -1    0.22    0.12
  -7   0   1    0.50    0.25
  -7   0   1    0.12    0.08
  -6   0   1    0.17    0.08
  -6   0   1   -0.10    0.14
   6   0  -1    0.12    0.10
   6   0  -1    0.08    0.11
   5   0  -1    0.13    0.07
   5   0  -1    0.11    0.09
  -5   0   1    0.03    0.05
  -5   0   1    0.09    0.13
   4   0  -1    0.00    0.06
   4   0  -1    0.12    0.07
  -4   0   1    0.02    0.05
  -4   0   1    0.12    0.12
   3   0  -1    0.61    0.10
   3   0  -1    0.61    0.09
  -3   0   1    0.28    0.13
  -2   0   1    0.09    0.03
  -2   0   1    0.10    0.07
   2   0  -1    0.04    0.03
   2   0  -1    0.17    0.04
  -1   0   1    0.13    0.03
   1   0  -1    0.19    0.03
  -1   0   1    0.26    0.06
   0   0   1    0.49    0.06
  -1   0  -1   -0.05    0.04
  -1   0  -1   -0.09    0.04
   1   0   1    0.00    0.03
   1   0   1   -0.01    0.04
   2   0   1    0.05    0.05
  -2   0  -1    0.34    0.10
  -3   0  -1    0.74    0.15
   3   0   1    0.10    0.05
  -3   0  -1    0.34    0.06
   3   0   1    0.10    0.06
  -4   0  -1    0.02    0.11
   4   0   1    0.32    0.09
   4   0   1    0.19    0.08
  -4   0  -1    0.27    0.06
   5   0   1    0.17    0.09
  -5   0  -1    0.57    0.20
  -5   0  -1    0.02    0.05
   5   0   1    0.00    0.07
   6   0   1    0.58    0.14
   6   0   1    0.29    0.12
  -6   0  -1    0.60    0.09
  -6   0  -1    0.25    0.19
   7   0   1    0.30    0.13
   7   0   1    0.05    0.10
  -7   0  -1    0.68    0.28
  -8   0  -1    0.02    0.26
   8   0   1    0.06    0.14
   8   0   1    0.06    0.12
  -9   0  -1    0.58    0.35
   9   0   1    0.29    0.18
   9   0   1    0.06    0.15
  10   0   1    0.06    0.19
 -10   0  -1    0.13    0.35
  10   0   1   -0.05    0.17
 -11   0  -1   -0.22    0.35
  11   0   1    0.03    0.20
  12   0   1   -0.16    0.23
 -12   0  -1    0.22    0.47
  13   0   1    0.08    0.28
 -13   0  -1    0.32    0.80
  13  -1  -1   79.78    4.10
 -13  -1   1   80.53    4.66
 -13   1   1   84.91    4.74
  13   1  -1   80.74    4.12
  12  -1  -1   43.84    2.40
 -12  -1   1   44.41    2.88
 -12   1   1   48.50    2.96
  12   1  -1   46.20    2.43
 -11  -1   1  101.93    5.45
  11  -1  -1   98.14    5.00
 -11   1   1  106.44    5.52
  11   1  -1  105.98    5.02
  11   1  -1  100.52    5.02
 -10  -1   1   44.38    2.70
  10  -1  -1   44.76    2.35
  10   1  -1   46.28    2.36
 -10   1   1   48.54    2.79
  10   1  -1   45.97    2.37
   9  -1  -1  104.77    5.03
  -9  -1   1  104.35    5.35
  -9   1   1  100.28    5.37
   9   1  -1  105.15    5.03
   9   1  -1  105.15    5.04
   8  -1  -1    2.12    0.24
  -8  -1   1    1.70    0.40
   8  -1  -1    1.47    0.24
  -8   1   1    1.56    0.39
   8   1  -1    1.38    0.24
   7  -1  -1   67.02    3.22
   7  -1  -1   63.97    3.25
  -7  -1   1   66.75    3.47
  -7   1   1   65.44    3.22
   7   1  -1   69.29    3.27
  -7   1   1   70.27    3.53
   7   1  -1   67.29    3.26
   6  -1  -1  107.37    4.99
  -6  -1   1  106.87    5.21
   6  -1  -1  107.54    5.03
  -6   1   1  105.46    5.01
   6   1  -1  100.53    5.03
   6   1  -1  109.79    5.04
  -6   1   1  103.14    5.23
   5  -1  -1  196.15    9.48
  -5  -1   1  197.22    9.62
   5  -1  -1  208.04    9.45
   5   1  -1  205.85    9.49
  -5   1   1  201.34    9.47
   5   1  -1  198.93    9.49
  -5   1   1  209.69    9.67
   4  -1  -1  381.67   18.60
   4  -1  -1  432.50   18.65
  -4  -1   1  372.07   18.70
  -4   1   1  405.43   18.76
   4   1  -1  394.89   18.61
   4   1  -1  419.81   18.69
  -4   1   1  393.52   18.71
   3  -1  -1  630.15   26.38
   3  -1  -1  553.58   26.44
  -3   1   1  587.43   26.47
   3   1  -1  489.83   26.31
   3   1  -1  516.76   26.30
   3   1  -1  622.50   26.54
  -3   1   1  561.57   26.37
   2  -1  -1  144.88    6.82
   2  -1  -1  152.46    6.81
  -2  -1   1  143.06    6.84
  -2   1   1  150.40    6.84
   2   1  -1  137.19    6.81
  -2   1   1  154.35    6.91
   2   1  -1  143.79    6.83
   2   1  -1  144.91    6.84
   1  -1  -1  231.26   10.57
  -1  -1   1  209.66   10.53
   1  -1  -1  258.08   10.51
  -1  -1   1  215.97   10.47
  -1   1   1  225.06   10.54
   1   1  -1  234.01   10.59
   1   1  -1  204.47   10.49
   0  -1   1  161.09    7.49
   0   1   1  160.79    7.53
   0   1   1  169.01    7.53
   0   1   1  148.65    7.47
   0   1  -1  158.92    7.47
   0   1   1  165.21    7.47
   0   1  -1  158.66    7.49
   1  -1   1  221.75   10.21
   1  -1   1  192.22   10.07
  -1  -1  -1  201.72   10.11
  -1   1  -1  223.96   10.11
   1   1   1  235.13   10.21
   1   1   1  235.65   10.15
   1   1   1  219.03   10.11
  -1   1  -1  205.59   10.10
  -2  -1  -1  128.76    6.41
   2  -1   1  133.75    6.43
  -2  -1  -1  135.18    6.50
  -2   1  -1  140.41    6.50
   2   1   1  136.91    6.45
  -2   1  -1  148.96    6.48
   2   1   1  141.37    6.44
   3  -1   1  292.85   14.44
   3  -1   1  325.33   14.52
  -3  -1  -1  305.75   14.54
   3   1   1  311.78   14.45
  -3   1  -1  321.94   14.48
   3   1   1  314.19   14.46
  -3   1  -1  301.34   14.54
   4  -1   1    8.44    0.49
   4  -1   1    9.08    0.50
   4   1   1    8.50    0.51
   4   1   1    9.15    0.51
  -4   1  -1    9.13    0.62
  -4   1  -1    9.52    0.52
   5  -1   1  300.33   14.33
  -5  -1  -1  293.32   14.50
   5  -1   1  317.18   14.35
   5   1   1  308.67   14.36
   5   1   1  301.79   14.35
  -5   1  -1  308.04   14.52
  -5   1  -1  321.98   14.35
   6  -1   1  107.84    5.11
  -6  -1  -1  106.16    5.32
   6  -1   1  102.50    5.12
   6   1   1  109.30    5.14
   6   1   1  108.87    5.13
  -6   1  -1  108.62    5.11
  -6   1  -1  111.63    5.36
  -7  -1  -1  121.08    5.77
   7  -1   1  114.29    5.51
   7  -1   1  116.82    5.49
  -7   1  -1  115.03    5.48
   7   1   1  111.53    5.52
   7   1   1  108.56    5.51
  -7   1  -1  123.37    5.80
   8  -1   1  170.75    7.88
   8  -1   1  160.31    7.89
  -8  -1  -1  166.80    8.20
  -8   1  -1  170.96    8.22
   8   1   1  162.58    7.90
   8   1   1  168.07    7.91
   9  -1   1   90.15    4.52
  -9  -1  -1   95.56    4.89
   9  -1   1   93.80    4.50
  -9   1  -1   97.07    4.93
   9   1   1   92.53    4.54
   9   1   1   91.12    4.54
 -10  -1  -1   81.03    4.27
  10  -1   1   75.21    3.85
  10   1   1   78.11    3.87
 -10   1  -1   80.92    4.30
  10   1   1   76.57    3.87
  11  -1   1   55.86    2.92
 -11  -1  -1   58.31    3.38
 -11   1  -1   56.02    3.38
  11   1   1   57.39    2.94
  11   1   1   58.16    2.94
  12  -1   1   11.39    0.83
 -12  -1  -1    8.72    1.23
 -12   1  -1   10.62    1.26
  12   1   1   11.10    0.84
  13  -1   1   27.44    1.63
 -13  -1  -1   26.44    2.85
  13   1   1   27.70    1.64
  13  -2  -1   42.08    2.23
 -13  -2   1   40.39    2.73
  13   2  -1   40.90    2.25
 -13   2   1   37.69    2.73
 -12  -2   1  126.28    6.80
  12  -2  -1  126.68    6.33
 -12  -2   1  132.78    6.39
  12   2  -1  132.93    6.36
 -12   2   1  138.94    6.95
  12   2  -1  125.45    6.36
 -11  -2   1   36.28    2.38
  11  -2  -1   38.47    2.04
  11   2  -1   38.65    2.06
 -11   2   1   40.16    2.51
  11   2  -1   36.73    2.05
  10  -2  -1   77.58    4.22
 -10  -2   1   90.17    4.62
 -10   2   1   88.62    4.67
  10   2  -1   84.13    4.25
  10   2  -1   92.09    4.27
  -9  -2   1   37.26    2.23
   9  -2  -1   37.69    1.95
   9   2  -1   37.57    1.97
  -9   2   1   37.36    2.30
   9   2  -1   37.67    1.97
   8  -2  -1  167.96    8.37
  -8  -2   1  184.00    8.65
   8   2  -1  177.43    8.40
  -8   2   1  179.62    8.38
   8   2  -1  167.56    8.39
  -8   2   1  186.78    8.73
  -7  -2   1  143.53    7.06
   7  -2  -1  157.30    6.81
   7  -2  -1  141.33    6.85
  -7   2   1  150.44    7.15
   7   2  -1  129.49    6.86
  -7   2   1  146.35    6.87
   7   2  -1  144.28    6.88
  -6  -2   1  382.11   18.96
   6  -2  -1  427.65   18.75
   6  -2  -1  396.49   18.81
  -6   2   1  397.69   19.04
  -6   2   1  404.89   18.83
   6   2  -1  404.19   18.83
   6   2  -1  408.39   18.83
   5  -2  -1   32.92    1.72
   5  -2  -1   35.97    1.68
  -5  -2   1   34.28    1.85
  -5   2   1   34.45    1.91
   5   2  -1   33.65    1.74
  -5   2   1   36.22    1.76
   5   2  -1   36.54    1.76
   4  -2  -1  536.24   24.83
   4  -2  -1  530.81   24.69
  -4  -2   1  476.28   24.70
   4   2  -1  557.73   24.91
   4   2  -1  512.96   24.64
  -4   2   1  514.58   24.78
  -4   2   1  539.45   24.84
   4   2  -1  569.61   24.67
   3  -2  -1  140.27    6.78
   3  -2  -1  157.44    6.73
  -3  -2   1  135.49    6.80
  -3  -2   1  139.47    6.82
   3   2  -1  151.65    6.76
  -3   2   1  148.03    6.91
   3   2  -1  137.14    6.79
   3   2  -1  149.40    6.81
  -3   2   1  141.92    6.81
   2  -2  -1  267.91   13.23
  -2  -2   1  286.05   13.25
  -2  -2   1  266.88   13.24
   2  -2  -1  276.61   13.24
  -2   2   1  299.28   13.34
   2   2  -1  291.51   13.25
   2   2  -1  293.75   13.24
  -2   2   1  291.60   13.27
  -1  -2   1  204.91    9.76
   1  -2  -1  201.34    9.78
  -1  -2   1  203.49    9.81
   1  -2  -1  220.22    9.80
   1   2  -1  216.59    9.82
  -1   2   1  207.28    9.87
  -1   2   1  223.85    9.82
   1   2  -1  202.15    9.80
   0  -2   1  274.71   12.79
   0   2   1  274.12   12.78
   0   2  -1  276.64   12.81
   0   2   1  273.98   12.84
   0   2   1  300.80   12.85
   0   2   1  262.31   12.75
   0   2  -1  268.79   12.75
   0   2  -1  261.84   12.78
   1  -2   1   91.82    4.43
   1  -2   1   87.87    4.46
   1   2   1  103.30    4.52
   1   2   1   89.35    4.44
   1   2   1   94.67    4.44
  -1   2  -1   99.79    4.46
  -1   2  -1   95.94    4.49
   1   2   1   92.58    4.45
   2  -2   1  121.73    5.33
   2  -2   1  105.73    5.32
  -2  -2  -1  115.96    5.38
  -2   2  -1  107.41    5.38
   2   2   1  114.18    5.30
   2   2   1  112.61    5.34
  -2   2  -1  118.15    5.38
   2   2   1  110.98    5.34
   3  -2   1   11.45    0.61
   3  -2   1   10.47    0.61
  -3  -2  -1   11.64    0.70
   3   2   1   10.55    0.63
  -3   2  -1   11.72    0.71
  -3   2  -1   12.05    0.68
   3   2   1   12.86    0.58
   3   2   1   11.47    0.64
  -4  -2  -1  344.52   16.15
   4  -2   1  347.57   16.01
   4  -2   1  333.07   16.02
   4   2   1  346.85   16.05
  -4   2  -1  353.90   16.09
  -4   2  -1  336.74   16.17
   4   2   1  344.81   16.05
  -5  -2  -1  186.44    8.82
   5  -2   1  182.34    8.64
   5  -2   1  176.31    8.66
   5   2   1  179.07    8.68
  -5   2  -1  184.25    8.85
  -5   2  -1  198.38    8.72
   5   2   1  185.34    8.69
   6  -2   1  328.64   15.05
  -6  -2  -1  319.71   15.26
   6  -2   1  311.48   15.07
  -6   2  -1  333.84   15.32
  -6   2  -1  330.92   15.11
   6   2   1  308.22   15.09
   6   2   1  324.87   15.09
   7  -2   1  220.15   10.68
   7  -2   1  233.76   10.65
  -7  -2  -1  223.24   10.91
   7   2   1  230.52   10.71
  -7   2  -1  233.41   10.71
  -7   2  -1  230.02   10.96
   7   2   1  218.46   10.69
   8  -2   1  188.64    8.66
   8  -2   1  180.75    8.69
  -8  -2  -1  175.86    8.96
  -8   2  -1  190.89    9.04
   8   2   1  180.05    8.72
   8   2   1  185.76    8.72
  -9  -2  -1   76.62    4.11
   9  -2   1   79.07    3.80
   9   2   1   73.83    3.80
  -9   2  -1   79.69    4.18
   9   2   1   76.69    3.81
 -10  -2  -1   33.41    2.17
  10  -2   1   34.33    1.83
  10   2   1   32.57    1.83
 -10   2  -1   36.67    2.27
  10   2   1   33.11    1.83
 -11  -2  -1   35.90    2.38
  11  -2   1   37.60    2.00
  11   2   1   36.63    2.01
 -11   2  -1   38.36    2.48
  11   2   1   36.13    2.01
 -12  -2  -1   38.66    2.57
  12  -2   1   36.77    2.10
  12   2   1   37.68    2.12
 -12   2  -1   43.82    2.72
  12   2   1   38.89    2.14
 -13  -3   1   18.00    1.21
 -13  -3   1   17.16    1.55
 -13   3   1   16.49    2.45
  13   3  -1   15.17    1.23
 -12  -3   1    1.14    0.36
 -12  -3   1    1.08    0.52
  12  -3  -1    0.86    0.32
 -12   3   1    1.42    0.55
  12   3  -1    1.13    0.34
  11  -3  -1   14.69    0.98
 -11  -3   1   15.46    1.03
 -11  -3   1   13.98    1.28
  11   3  -1   13.94    0.99
 -11   3   1   15.82    1.37
 -10  -3   1   12.90    1.15
  10  -3  -1   14.98    0.92
 -10  -3   1   13.92    0.96
  10   3  -1   14.44    0.96
 -10   3   1   16.89    1.34
  10   3  -1   14.17    0.95
  -9  -3   1   13.46    1.13
   9  -3  -1   16.73    0.95
  -9   3   1   15.79    1.26
   9   3  -1   15.94    0.97
   9   3  -1   14.04    0.95
  -8  -3   1    3.45    0.53
   8  -3  -1    3.79    0.38
   8   3  -1    4.15    0.41
   8   3  -1    3.61    0.40
  -8   3   1    3.94    0.63
  -8   3   1    4.06    0.42
  -7  -3   1   41.83    2.26
   7  -3  -1   39.51    2.07
  -7   3   1   41.52    2.13
   7   3  -1   41.59    2.11
  -7   3   1   40.54    2.33
   7   3  -1   41.61    2.11
  -6  -3   1    2.75    0.39
   6  -3  -1    2.70    0.27
  -6   3   1    3.15    0.48
  -6   3   1    3.06    0.33
   6   3  -1    2.85    0.29
   6   3  -1    2.09    0.28
   5  -3  -1  127.31    5.56
  -5  -3   1  115.36    5.67
   5  -3  -1  111.84    5.63
  -5  -3   1  113.31    5.73
   5   3  -1  114.16    5.66
   5   3  -1  124.32    5.68
  -5   3   1  123.72    5.71
   5   3  -1  125.51    5.57
  -5   3   1  112.90    5.83
   4  -3  -1    4.87    0.28
   4  -3  -1    4.57    0.34
  -4  -3   1    4.77    0.39
  -4  -3   1    4.61    0.37
  -4   3   1    5.37    0.49
   4   3  -1    5.56    0.32
  -4   3   1    4.99    0.40
   4   3  -1    4.93    0.37
  -3  -3   1    6.70    0.44
  -3  -3   1    6.25    0.43
   3  -3  -1    6.23    0.37
  -3   3   1    7.55    0.55
  -3   3   1    7.48    0.48
   3   3  -1    6.87    0.44
   3   3  -1    7.38    0.42
  -2  -3   1   56.86    2.73
  -2  -3   1   54.34    2.76
   2  -3  -1   57.78    2.72
   2  -3  -1   51.32    2.72
   2   3  -1   60.80    2.76
  -2   3   1   57.39    2.86
  -2   3   1   60.92    2.80
   2   3  -1   56.71    2.76
  -1  -3   1   26.16    1.23
   1  -3  -1   24.82    1.27
  -1  -3   1   25.51    1.29
   1  -3  -1   26.70    1.26
  -1   3   1   24.07    1.36
   1   3  -1   24.57    1.30
   0  -3   1   20.73    1.09
   0  -3  -1   19.72    1.06
   0   3  -1   22.77    1.13
   0   3   1   22.21    1.16
   0   3   1   21.48    1.10
   0   3   1   19.90    1.09
   0   3  -1   21.41    1.06
   1  -3   1  162.21    7.93
   1  -3   1  173.65    7.97
  -1   3  -1  167.56    7.95
   1   3   1  170.42    7.95
   1   3   1  186.43    8.02
   1   3   1  169.54    7.96
   1   3   1  158.74    7.93
  -1   3  -1  165.54    8.00
   2  -3   1   13.65    0.79
   2  -3   1   14.77    0.78
  -2  -3  -1   14.97    0.83
   2   3   1   14.56    0.78
  -2   3  -1   15.87    0.87
   2   3   1   14.65    0.80
   2   3   1   14.51    0.79
  -2   3  -1   15.50    0.85
   3  -3   1   55.76    2.80
   3  -3   1   60.70    2.80
  -3  -3  -1   57.17    2.87
  -3   3  -1   55.13    2.89
  -3   3  -1   59.56    2.89
   3   3   1   63.50    2.78
   3   3   1   55.07    2.82
  -4  -3  -1   12.32    0.80
   4  -3   1   12.25    0.69
   4  -3   1   12.24    0.71
   4   3   1   12.79    0.74
   4   3   1   14.44    0.67
  -4   3  -1   11.81    0.83
  -4   3  -1   13.46    0.80
   5  -3   1    6.48    0.40
   5  -3   1    6.29    0.43
  -5  -3  -1    6.11    0.54
  -5   3  -1    6.55    0.58
   5   3   1    6.43    0.46
   5   3   1    6.92    0.47
   6  -3   1   14.64    0.75
   6  -3   1   12.76    0.78
  -6  -3  -1   13.70    0.95
   6   3   1   14.64    0.83
   6   3   1   13.43    0.82
  -6   3  -1   12.86    0.85
  -6   3  -1   13.78    0.99
  -7  -3  -1   46.36    2.63
   7  -3   1   46.85    2.45
  -7   3  -1   54.55    2.76
   7   3   1   46.77    2.47
   7   3   1   49.60    2.49
  -7   3  -1   51.64    2.53
   8  -3   1    0.19    0.16
  -8  -3  -1    1.06    0.37
  -8   3  -1    1.45    0.41
   8   3   1    0.57    0.22
   8   3   1    0.61    0.21
  -8   3  -1    1.23    0.27
  -9  -3  -1    0.65    0.36
   9  -3   1    0.74    0.24
  -9   3  -1    1.16    0.44
   9   3   1    0.37    0.21
   9   3   1    0.70    0.23
 -10  -3  -1   36.22    2.19
  10  -3   1   33.01    1.83
  10   3   1   32.99    1.86
 -10   3  -1   33.06    2.21
  10   3   1   34.76    1.87
  11  -3   1    1.81    0.36
 -11  -3  -1    2.03    0.60
 -11   3  -1    2.17    0.65
  11   3   1    2.23    0.40
  11   3   1    1.66    0.38
 -12  -3  -1    5.09    0.88
  12  -3   1    6.16    0.65
 -12   3  -1    6.82    1.09
  12   3   1    6.87    0.67
  12   3   1    5.75    0.67
  12  -4  -1   66.51    3.54
 -12  -4   1   70.92    3.62
 -12  -4   1   69.99    3.95
  12   4  -1   68.94    3.60
 -12   4   1   70.86    4.11
 -11  -4   1   31.48    2.00
  11  -4  -1   27.62    1.64
 -11  -4   1   27.63    1.70
 -11   4   1   31.53    2.13
  11   4  -1   28.55    1.69
  10  -4  -1   21.03    1.30
 -10  -4   1   23.43    1.36
 -10  -4   1   20.93    1.53
  10   4  -1   21.45    1.34
 -10   4   1   24.59    1.72
  -9  -4   1   44.67    2.34
  -9  -4   1   38.01    2.47
   9  -4  -1   46.09    2.31
   9   4  -1   46.00    2.35
  -9   4   1   45.61    2.38
  -9   4   1   44.93    2.66
   8  -4  -1   40.24    2.15
  -8  -4   1   40.76    2.33
  -8  -4   1   43.52    2.21
  -8   4   1   42.43    2.25
  -8   4   1   42.40    2.48
   8   4  -1   41.70    2.20
  -7  -4   1    2.71    0.36
   7  -4  -1    2.63    0.32
  -7  -4   1    2.68    0.42
  -7   4   1    1.63    0.43
  -7   4   1    2.23    0.35
   7   4  -1    1.95    0.30
  -6  -4   1   86.78    4.10
   6  -4  -1   78.97    3.98
  -6  -4   1   85.16    4.03
  -6   4   1   77.66    4.21
  -6   4   1   81.62    4.08
   6   4  -1   82.35    4.02
  -5  -4   1    8.72    0.64
  -5  -4   1   10.45    0.70
   5  -4  -1   10.38    0.64
   5   4  -1   10.10    0.67
  -5   4   1   11.71    0.85
  -5   4   1   11.61    0.74
   4  -4  -1  243.48   10.75
  -4  -4   1  206.56   10.84
  -4  -4   1  223.85   10.85
   4  -4  -1  225.81   10.81
  -4   4   1  231.38   10.91
   4   4  -1  224.76   10.85
   4   4  -1  252.54   10.81
  -4   4   1  233.95   11.02
   3  -4  -1   44.18    2.40
   3  -4  -1   48.21    2.44
  -3  -4   1   50.13    2.44
  -3  -4   1   51.65    2.48
   3   4  -1   51.46    2.46
   3   4  -1   52.38    2.49
  -3   4   1   51.67    2.53
  -3   4   1   49.77    2.60
   2  -4  -1   34.55    1.78
  -2  -4   1   36.34    1.81
   2  -4  -1   36.55    1.77
  -2  -4   1   36.46    1.75
  -2   4   1   34.22    1.90
  -2   4   1   34.01    1.84
   2   4  -1   37.84    1.82
   2   4  -1   35.16    1.81
  -1  -4   1   52.16    2.57
  -1  -4   1   54.24    2.50
   1  -4  -1   46.84    2.53
   1  -4  -1   54.31    2.53
  -1   4   1   54.28    2.66
  -1   4   1   54.60    2.62
   1   4  -1   50.23    2.57
   1   4  -1   53.56    2.60
  -1   4   1   50.19    2.57
   0  -4   1  106.16    4.98
   0  -4  -1   99.56    4.94
   0   4  -1  118.57    4.95
   0   4   1   95.82    4.98
   0   4  -1  101.83    5.02
   0   4   1   96.37    4.97
   0   4   1  110.67    5.04
   1  -4   1   67.49    3.38
  -1  -4  -1   71.56    3.36
   1  -4   1   64.34    3.34
   1   4   1   67.24    3.38
  -1   4  -1   74.99    3.38
   1   4   1   68.42    3.38
  -1   4  -1   65.65    3.42
   1   4   1   76.96    3.43
  -2  -4  -1  114.68    5.35
  -2  -4  -1  117.07    5.37
   2  -4   1  104.72    5.35
   2  -4   1  110.21    5.33
   2   4   1  113.48    5.37
  -2   4  -1  120.66    5.40
   2   4   1  105.39    5.33
   3  -4   1   12.13    0.68
  -3  -4  -1   10.86    0.72
   3  -4   1   11.76    0.69
   3   4   1   11.70    0.71
   3   4   1   11.64    0.67
  -3   4  -1   12.38    0.79
   3   4   1   12.03    0.71
  -3   4  -1   12.11    0.78
  -4  -4  -1    8.30    0.60
   4  -4   1    8.61    0.54
   4  -4   1    9.06    0.52
   4   4   1    7.73    0.56
  -4   4  -1    8.31    0.65
  -4   4  -1    8.05    0.63
   4   4   1    9.20    0.51
   4   4   1    8.24    0.57
   5  -4   1   83.36    3.71
  -5  -4  -1   75.57    3.86
   5  -4   1   74.39    3.76
  -5   4  -1   81.92    3.89
   5   4   1   77.05    3.79
   5   4   1   73.31    3.78
  -5   4  -1   77.55    3.94
  -6  -4  -1   77.43    3.84
   6  -4   1   75.91    3.69
  -6   4  -1   76.61    3.81
   6   4   1   71.08    3.71
  -6   4  -1   76.67    3.91
   6   4   1   76.99    3.73
   7  -4   1   11.15    0.75
  -7  -4  -1   12.31    0.91
   7   4   1   11.27    0.78
   7   4   1   12.74    0.80
  -7   4  -1   12.29    0.98
  -7   4  -1   12.05    0.85
  -8  -4  -1  111.76    5.72
   8  -4   1  111.58    5.50
  -8   4  -1  121.18    5.85
  -8   4  -1  112.70    5.60
   8   4   1  114.52    5.54
   8   4   1  112.52    5.54
   9  -4   1   26.72    1.52
  -9  -4  -1   30.00    1.80
  -9   4  -1   27.46    1.85
   9   4   1   25.76    1.55
   9   4   1   26.85    1.55
 -10  -4  -1    7.29    0.87
  10  -4   1    7.83    0.65
  10   4   1    7.04    0.66
 -10   4  -1    8.68    0.99
  10   4   1    7.09    0.67
  11  -4   1   47.80    2.68
 -11  -4  -1   50.73    3.05
 -11   4  -1   55.87    3.20
  11   4   1   49.40    2.73
  11   4   1   53.74    2.75
  12  -4   1    8.97    0.80
 -12  -4  -1    8.53    0.87
 -12  -4  -1    9.08    1.09
 -12   4  -1   10.26    1.22
  12   4   1    9.43    0.83
  12   4   1    8.87    0.82
 -11  -5   1  115.22    5.69
  11  -5  -1  111.63    5.63
  11   5  -1  112.25    5.67
 -11   5   1  118.47    6.16
 -10  -5   1   27.16    1.67
  10  -5  -1   29.02    1.64
 -10   5   1   29.17    2.04
  10   5  -1   28.97    1.68
  -9  -5   1  122.70    6.59
  -9  -5   1  136.09    6.26
   9  -5  -1  126.29    6.19
  -9   5   1  127.72    6.31
  -9   5   1  123.08    6.58
   9   5  -1  129.06    6.24
   8  -5  -1   55.83    2.88
  -8  -5   1   57.14    2.93
  -8  -5   1   59.05    3.05
  -8   5   1   55.78    3.21
  -8   5   1   57.67    3.02
   8   5  -1   55.75    2.92
  -7  -5   1  148.90    7.50
   7  -5  -1  157.62    7.41
  -7  -5   1  145.46    7.44
   7   5  -1  158.93    7.46
  -7   5   1  161.68    7.74
  -7   5   1  158.24    7.55
  -6  -5   1   35.58    1.98
   6  -5  -1   37.20    1.92
  -6  -5   1   35.04    1.95
  -6   5   1   37.76    2.18
  -6   5   1   37.19    2.05
   6   5  -1   39.12    1.97
  -5  -5   1  201.10    9.38
   5  -5  -1  199.92    9.33
  -5  -5   1  179.86    9.35
   5   5  -1  197.79    9.37
  -5   5   1  209.09    9.59
  -4  -5   1   25.43    1.37
  -4  -5   1   25.14    1.41
   4  -5  -1   26.13    1.38
   4   5  -1   27.10    1.39
   4   5  -1   25.94    1.42
  -4   5   1   25.13    1.48
  -4   5   1   26.43    1.57
  -3  -5   1  344.91   16.36
  -3  -5   1  344.00   16.29
   3  -5  -1  350.17   16.33
   3  -5  -1  341.63   16.29
  -3   5   1  356.38   16.51
   3   5  -1  350.94   16.36
  -3   5   1  366.68   16.45
   3   5  -1  336.19   16.36
   2  -5  -1  162.64    8.18
   2  -5  -1  166.76    8.17
  -2  -5   1  174.25    8.22
  -2  -5   1  169.03    8.13
  -2   5   1  195.28    8.38
   2   5  -1  162.82    8.22
  -2   5   1  179.89    8.30
   2   5  -1  177.68    8.25
   1  -5  -1  255.99   12.32
   1  -5  -1  255.05   12.33
  -1  -5   1  258.06   12.36
  -1  -5   1  263.46   12.27
  -1   5   1  270.08   12.42
   1   5  -1  259.83   12.41
  -1   5   1  291.34   12.47
   1   5  -1  249.43   12.37
   0  -5  -1  146.77    6.88
   0  -5   1  134.97    6.91
   0   5   1  166.17    6.99
   0   5   1  146.88    6.96
   0   5  -1  139.15    6.97
   0   5  -1  141.80    6.93
   0   5   1  141.75    6.93
   1  -5   1   57.86    2.86
   1  -5   1   57.37    2.88
  -1  -5  -1   53.90    2.85
   1   5   1   55.58    2.88
  -1   5  -1   55.57    2.95
   1   5   1   60.48    2.90
   1   5   1   65.59    2.93
  -2  -5  -1  116.44    5.55
   2  -5   1  104.33    5.55
   2  -5   1  116.47    5.54
  -2  -5  -1  120.67    5.56
   2   5   1  128.89    5.58
  -2   5  -1  119.92    5.61
   2   5   1  111.57    5.57
  -2   5  -1  108.84    5.64
   3  -5   1  200.86    9.57
  -3  -5  -1  195.47    9.59
  -3  -5  -1  206.51    9.60
   3  -5   1  187.10    9.56
   3   5   1  192.23    9.60
   3   5   1  212.62    9.59
  -3   5  -1  224.11    9.70
  -3   5  -1  205.46    9.72
   4  -5   1   17.18    1.00
   4  -5   1   17.57    0.97
  -4  -5  -1   17.06    1.03
  -4  -5  -1   17.11    1.05
   4   5   1   18.29    1.05
  -4   5  -1   17.81    1.13
  -4   5  -1   19.76    1.16
   5  -5   1  265.57   12.82
  -5  -5  -1  268.84   12.90
  -5  -5  -1  273.54   12.86
  -5   5  -1  266.64   12.97
   5   5   1  275.49   12.87
  -5   5  -1  284.54   13.03
   5   5   1  274.11   12.86
  -6  -5  -1   73.93    3.67
   6  -5   1   70.50    3.62
  -6  -5  -1   72.80    3.73
   6   5   1   72.92    3.66
  -6   5  -1   76.38    3.79
  -6   5  -1   75.37    3.85
   6   5   1   73.81    3.66
   7  -5   1   85.86    4.31
  -7  -5  -1   91.71    4.48
   7   5   1   89.17    4.36
  -7   5  -1   87.24    4.46
  -7   5  -1   91.84    4.60
   7   5   1   83.97    4.35
  -8  -5  -1  162.29    8.10
   8  -5   1  163.41    7.91
  -8  -5  -1  163.79    7.97
   8   5   1  168.56    7.96
  -8   5  -1  164.93    8.07
  -8   5  -1  165.37    8.23
   8   5   1  168.68    7.96
   9  -5   1   99.13    4.89
  -9  -5  -1  101.80    5.14
  -9  -5  -1  100.59    4.96
  -9   5  -1   96.07    5.02
  -9   5  -1  100.98    5.25
   9   5   1   97.26    4.92
   9   5   1  100.98    4.95
  10  -5   1   48.81    2.49
 -10  -5  -1   42.18    2.69
 -10  -5  -1   48.26    2.54
 -10   5  -1   45.87    2.83
  10   5   1   45.89    2.51
 -11  -5  -1   29.15    2.05
  11  -5   1   30.61    1.79
 -11  -5  -1   32.10    1.86
  11   5   1   30.28    1.83
 -11   5  -1   32.55    2.22
  11   6  -1   49.34    2.80
  10  -6  -1   33.55    1.92
 -10  -6   1   32.80    1.97
  10   6  -1   35.26    1.97
 -10   6   1   34.99    2.19
  -9  -6   1   13.19    0.98
   9  -6  -1   13.03    0.93
  -9   6   1   13.38    1.07
   9   6  -1   13.14    0.94
   8  -6  -1   26.40    1.50
  -8  -6   1   24.70    1.54
   8   6  -1   27.77    1.55
  -8   6   1   25.73    1.65
   7  -6  -1   10.80    0.78
  -7  -6   1   11.74    0.84
   7   6  -1   10.83    0.81
  -7   6   1   11.31    0.93
  -6  -6   1   12.47    0.91
   6  -6  -1   13.23    0.87
  -6   6   1   14.88    1.05
   6   6  -1   14.21    0.92
   5  -6  -1   76.67    3.71
  -5  -6   1   74.29    3.76
  -5   6   1   76.34    3.88
   5   6  -1   73.26    3.75
   4  -6  -1  197.88    9.73
  -4  -6   1  194.07    9.77
   4   6  -1  209.35    9.79
   4   6  -1  224.94    9.83
  -4   6   1  201.68    9.89
  -3  -6   1   67.96    3.38
   3  -6  -1   66.72    3.35
   3   6  -1   66.68    3.39
  -3   6   1   66.92    3.48
   3   6  -1   70.39    3.41
   2  -6  -1   55.65    2.77
   2  -6  -1   53.62    2.78
  -2  -6   1   51.73    2.80
   2   6  -1   57.14    2.84
  -2   6   1   58.16    2.91
   2   6  -1   58.48    2.87
   1  -6  -1    8.82    0.62
  -1  -6   1   10.70    0.68
   1  -6  -1    9.15    0.63
   1   6  -1    9.36    0.72
  -1   6   1   10.01    0.74
   1   6  -1    9.53    0.68
   0  -6  -1    6.47    0.48
   0  -6   1    6.49    0.51
   0   6  -1    5.51    0.50
   0   6   1    5.21    0.49
   0   6  -1    5.99    0.56
   0   6   1    6.24    0.55
  -1  -6  -1   66.40    3.17
   1  -6   1   57.75    3.18
   1  -6   1   62.33    3.16
  -1   6  -1   68.89    3.31
   1   6   1   65.04    3.22
   1   6   1   63.30    3.23
   2  -6   1  115.62    5.70
  -2  -6  -1  119.11    5.72
   2  -6   1  120.06    5.74
   2   6   1  124.30    5.76
  -2   6  -1  120.07    5.85
   2   6   1  112.51    5.74
   3  -6   1   16.50    1.01
  -3  -6  -1   16.82    1.03
   3   6   1   19.34    1.05
  -3   6  -1   16.46    1.14
   3   6   1   16.27    1.04
   4  -6   1   55.94    2.92
  -4  -6  -1   58.76    2.96
  -4   6  -1   59.28    3.11
   4   6   1   59.77    2.98
  -5  -6  -1    6.05    0.56
   5  -6   1    6.66    0.54
  -5   6  -1    6.09    0.66
   5   6   1    6.58    0.58
   6  -6   1   44.05    2.27
  -6  -6  -1   42.22    2.30
   6   6   1   43.93    2.31
  -6   6  -1   43.90    2.45
   7  -6   1   13.93    0.92
  -7  -6  -1   14.28    0.97
   7   6   1   13.62    0.95
  -7   6  -1   13.82    1.08
   8  -6   1   46.06    2.38
  -8  -6  -1   44.65    2.42
   8   6   1   45.91    2.43
  -8   6  -1   43.13    2.55
   9  -6   1   76.34    3.85
  -9  -6  -1   77.97    3.91
   9   6   1   75.01    3.88
  -9   6  -1   74.41    4.02
 -10  -6  -1   24.47    1.51
  10  -6   1   22.70    1.43
  10   6   1   22.44    1.46
   9  -7  -1   13.89    0.97
  -9  -7   1   13.59    1.06
   9   7  -1   14.72    1.04
  -9   7   1   12.86    1.14
  -8  -7   1    0.38    0.29
   8  -7  -1    0.43    0.27
  -8   7   1    0.71    0.37
   8   7  -1    0.39    0.28
  -7  -7   1    1.13    0.35
   7  -7  -1    1.40    0.34
   7   7  -1    1.52    0.36
  -7   7   1    1.00    0.39
  -6  -7   1    2.15    0.38
   6  -7  -1    2.13    0.37
  -6   7   1    3.09    0.57
   6   7  -1    2.40    0.41
   5  -7  -1   31.24    1.72
  -5  -7   1   31.19    1.78
  -5   7   1   31.68    1.93
   5   7  -1   32.12    1.79
  -4  -7   1   29.18    1.59
   4  -7  -1   27.40    1.54
   4   7  -1   26.37    1.58
  -4   7   1   27.38    1.71
  -3  -7   1   47.45    2.49
   3  -7  -1   46.92    2.44
  -3   7   1   45.46    2.59
   3   7  -1   48.18    2.51
   3   7  -1   48.11    2.50
   2  -7  -1    0.32    0.22
  -2  -7   1    0.73    0.24
  -2   7   1    0.24    0.26
   2   7  -1    0.29    0.22
   2   7  -1    0.53    0.26
   1  -7  -1    2.21    0.40
   1  -7  -1    2.88    0.38
  -1  -7   1    2.50    0.39
  -1   7   1    2.74    0.46
   1   7  -1    2.79    0.42
   1   7  -1    3.87    0.51
   0  -7  -1    3.42    0.39
   0  -7   1    3.57    0.45
   0   7  -1    3.38    0.45
   0   7  -1    4.10    0.56
   0   7   1    4.35    0.51
   0   7   1    3.90    0.52
   1  -7   1   44.03    2.20
   1  -7   1   42.80    2.17
  -1  -7  -1   39.28    2.15
   1   7   1   39.37    2.19
  -1   7  -1   39.17    2.28
   1   7   1   41.88    2.24
  -2  -7  -1   15.35    0.93
   2  -7   1   14.30    0.91
  -2   7  -1   13.76    1.05
   2   7   1   14.30    0.96
   2   7   1   13.57    0.97
  -3  -7  -1   13.00    0.89
   3  -7   1   14.03    0.88
   3   7   1   12.96    0.92
  -3   7  -1   12.61    1.02
   3   7   1   13.84    0.94
   4  -7   1   22.12    1.27
  -4  -7  -1   20.66    1.30
  -4   7  -1   20.49    1.43
   4   7   1   23.34    1.34
  -5  -7  -1    0.47    0.28
   5  -7   1    0.74    0.27
  -5   7  -1    0.98    0.39
   5   7   1    0.69    0.29
  -6  -7  -1    3.40    0.47
   6  -7   1    3.51    0.45
  -6   7  -1    3.48    0.60
   6   7   1    4.42    0.54
   7  -7   1   20.90    1.27
  -7  -7  -1   22.10    1.34
   7   7   1   20.10    1.30
  -7   7  -1   18.77    1.45
   8  -7   1    0.92    0.31
  -8  -7  -1    0.30    0.30
  -8   7  -1    0.42    0.37
   8   7   1    0.54    0.31
  -9  -7  -1   11.21    0.92
   9  -7   1   11.06    0.88
  -9   7  -1   10.01    1.03
   9   7   1   11.11    0.91
   8  -8  -1   64.89    3.33
  -8  -8   1   66.54    3.40
  -8   8   1   60.91    3.56
   8   8  -1   61.89    3.35
   7  -8  -1   48.49    2.52
  -7  -8   1   46.68    2.58
  -7   8   1   44.07    2.74
   7   8  -1   47.63    2.58
   6  -8  -1   66.03    3.32
  -6  -8   1   66.60    3.39
  -6   8   1   60.90    3.54
   6   8  -1   63.57    3.36
   5  -8  -1   16.80    1.05
  -5  -8   1   15.59    1.10
  -5   8   1   15.22    1.24
   5   8  -1   15.66    1.11
  -4  -8   1   79.00    3.98
   4  -8  -1   78.97    3.92
   4   8  -1   77.91    3.99
  -4   8   1   76.03    4.13
   3  -8  -1   65.14    3.27
  -3  -8   1   63.74    3.31
   3   8  -1   64.87    3.34
  -3   8   1   62.47    3.46
  -2  -8   1  175.02    8.25
   2  -8  -1  181.09    8.21
  -2   8   1  164.87    8.36
   2   8  -1  162.11    8.24
   2   8  -1  168.98    8.30
  -1  -8   1   99.64    4.89
   1  -8  -1  101.28    4.87
   1   8  -1   95.00    4.91
  -1   8   1   96.48    5.00
   1   8  -1   99.20    4.98
   0  -8  -1  103.36    5.13
   0  -8   1  108.36    5.15
   0  -8   1  104.78    5.15
   0   8   1  101.58    5.25
   0   8  -1  103.07    5.27
  -1  -8  -1   98.44    4.84
   1  -8   1  102.68    4.86
  -1   8  -1   96.95    5.00
   1   8   1   93.77    4.89
   1   8   1   98.15    4.95
   2  -8   1   45.55    2.35
  -2  -8  -1   42.68    2.34
  -2   8  -1   41.82    2.50
   2   8   1   46.90    2.44
   2   8   1   42.27    2.39
  -3  -8  -1   33.93    1.89
   3  -8   1   36.19    1.89
   3   8   1   33.34    1.93
  -3   8  -1   31.13    2.03
  -4  -8  -1  184.84    9.45
   4  -8   1  214.95    9.46
  -4   8  -1  180.40    9.63
   4   8   1  207.35    9.52
  -5  -8  -1   11.08    0.88
   5  -8   1   11.86    0.85
  -5   8  -1   10.01    1.02
   5   8   1   10.78    0.89
  -6  -8  -1   68.60    3.53
   6  -8   1   71.06    3.49
  -6   8  -1   60.98    3.69
   6   8   1   68.94    3.53
  -7  -8  -1   91.09    4.59
   7  -8   1   92.30    4.53
   7   8   1   91.08    4.58
  -7   8  -1   84.15    4.77
   8   8   1   42.14    2.26
  -8   8  -1   35.47    2.41
   6  -9  -1    4.44    0.62
  -6  -9   1    4.45    0.65
   6   9  -1    4.71    0.64
  -6   9   1    4.44    0.77
  -5  -9   1  119.45    5.97
   5  -9  -1  124.13    5.91
   5   9  -1  122.91    5.98
  -5   9   1  111.26    6.15
  -4  -9   1   20.50    1.41
   4  -9  -1   23.33    1.38
   4   9  -1   21.58    1.43
  -4   9   1   20.71    1.57
  -3  -9   1   68.46    3.63
   3  -9  -1   75.59    3.59
   3   9  -1   67.06    3.63
  -3   9   1   65.86    3.77
  -2  -9   1   34.22    2.03
   2  -9  -1   37.70    2.01
   2   9  -1   36.08    2.12
  -2   9   1   34.66    2.18
   2   9  -1   34.26    2.05
   1  -9  -1   20.10    1.29
  -1   9   1   19.75    1.43
   1   9  -1   20.25    1.43
   1   9  -1   19.90    1.34
   0  -9  -1   66.19    3.32
   0  -9   1   67.79    3.33
   0   9  -1   55.99    3.42
   0   9   1   64.39    3.46
   1  -9   1   99.91    4.78
   1   9   1   90.31    4.81
  -1   9  -1   93.99    4.95
   1   9   1   96.01    4.90
   2  -9   1    5.96    0.65
  -2  -9  -1    5.83    0.90
   2   9   1    7.32    0.74
  -2   9  -1    6.58    0.85
  -3  -9  -1   21.61    1.42
   3  -9   1   24.03    1.43
  -3   9  -1   21.58    1.62
   3   9   1   23.36    1.49
   4  -9   1   20.27    1.28
  -4  -9  -1   18.59    1.29
  -4   9  -1   17.20    1.46
   4   9   1   20.07    1.34
  -5  -9  -1   28.59    1.85
   5  -9   1   33.70    1.86
   5   9   1   33.96    1.93
  -5   9  -1   29.88    2.08
  -6  -9  -1   51.20    2.83
   6   9   1   51.67    2.87
   2 -10  -1    5.96    1.01
  -2  10   1    5.03    0.82
   1 -10  -1    0.61    0.31
  -1 -10   1    0.26    0.34
  -1  10   1    0.49    0.40
   1  10  -1    0.16    0.38
   0 -10   1    0.45    0.35
   0 -10  -1    0.69    0.35
   0  10   1    0.46    0.40
   0  10  -1    0.58    0.42
   1 -10   1    3.09    0.75
  -1 -10  -1    3.00    0.52
   1  10   1    2.26    0.56
  -1  10  -1    2.44    0.62
  -2  10  -1   11.59    1.26
 -13   0   2  168.34    8.62
  13   0  -2  164.10    8.02
  12   0  -2   72.47    3.70
 -12   0   2   74.69    4.22
  11   0  -2   27.56    1.58
 -11   0   2   30.19    2.02
 -10   0   2   12.78    1.16
  10   0  -2   13.84    0.85
   9   0  -2  212.52   10.27
  -9   0   2  212.78   10.62
   9   0  -2  226.85   10.26
   8   0  -2   93.01    4.57
   8   0  -2   97.70    4.55
  -8   0   2   93.95    4.85
   7   0  -2  456.98   20.09
   7   0  -2  401.15   20.01
  -7   0   2  425.10   20.34
   7   0  -2  439.94   20.10
  -6   0   2  133.08    6.48
   6   0  -2  134.90    6.26
   6   0  -2  130.31    6.22
   5   0  -2   96.77    4.74
   5   0  -2  103.57    4.78
   5   0  -2  103.30    4.79
  -5   0   2  100.48    4.95
   4   0  -2   21.32    1.11
   4   0  -2   23.09    1.13
   4   0  -2   24.35    1.15
  -4   0   2   22.28    1.26
  -3   0   2  604.48   26.54
  -3   0   2  557.78   26.41
   3   0  -2  585.08   26.47
   3   0  -2  518.97   26.52
  -2   0   2   30.05    1.52
  -2   0   2   31.20    1.45
   2   0  -2   29.83    1.45
   1   0  -2  508.37   21.62
  -1   0   2  479.15   21.63
   1   0  -2  423.78   21.45
  -1   0   2  430.65   21.52
   0   0   2   18.67    0.90
   0   0   2   17.27    0.95
   1   0   2  397.94   18.42
  -1   0  -2  371.11   18.30
   1   0   2  433.49   18.32
  -1   0  -2  369.88   18.34
  -2   0  -2  146.49    6.47
  -2   0  -2  130.94    6.40
   2   0   2  141.24    6.40
   2   0   2  126.41    6.37
  -3   0  -2  281.21   13.08
  -3   0  -2  269.04   12.97
   3   0   2  279.99   12.98
   3   0   2  283.04   12.97
   4   0   2   98.34    5.33
  -4   0  -2  119.79    5.49
  -4   0  -2  116.80    5.33
   4   0   2  118.28    5.35
  -5   0  -2  743.57   32.97
   5   0   2  680.32   32.98
   5   0   2  708.98   33.14
  -5   0  -2  692.05   33.01
   6   0   2    1.33    0.20
   6   0   2    1.71    0.22
  -6   0  -2    1.34    0.32
   7   0   2  326.75   16.05
   7   0   2  351.49   16.07
  -7   0  -2  351.85   16.34
   8   0   2   25.05    1.37
   8   0   2   25.60    1.38
  -8   0  -2   26.60    1.67
   9   0   2   37.38    1.89
  -9   0  -2   39.61    2.26
   9   0   2   32.04    1.86
  10   0   2    5.97    0.52
  10   0   2    5.41    0.52
 -10   0  -2    6.82    0.93
 -11   0  -2  217.20   10.80
  11   0   2  215.63   10.31
 -12   0  -2    7.82    1.12
  12   0   2    7.52    0.70
  13  -1  -2   10.07    0.78
 -13  -1   2    8.66    1.25
  13   1  -2    8.42    0.77
 -13   1   2   10.01    1.31
  12  -1  -2   89.03    4.45
 -12  -1   2   89.07    4.94
  12   1  -2   89.78    4.46
 -12   1   2   91.60    5.00
 -11  -1   2    0.60    0.41
  11  -1  -2    1.23    0.28
  11   1  -2    0.88    0.26
 -11   1   2    0.70    0.47
  11   1  -2    0.48    0.21
  10  -1  -2   58.47    2.98
 -10  -1   2   56.78    3.33
  10   1  -2   58.53    2.99
 -10   1   2   64.88    3.44
  10   1  -2   59.72    2.99
   9  -1  -2    9.98    0.70
  -9  -1   2   10.48    0.95
   9   1  -2   11.97    0.72
   9   1  -2   10.92    0.72
  -9   1   2   10.35    0.98
   8  -1  -2    6.72    0.49
  -8  -1   2    6.15    0.67
   8  -1  -2    7.42    0.45
   8   1  -2    6.65    0.49
   8   1  -2    5.85    0.48
  -8   1   2    6.73    0.72
   7  -1  -2   41.06    2.04
   7  -1  -2   43.55    2.01
  -7  -1   2   38.95    2.23
   7   1  -2   40.88    2.05
   7   1  -2   40.18    2.04
  -7   1   2   39.21    2.01
  -7   1   2   42.41    2.30
  -6  -1   2  259.59   12.45
   6  -1  -2  246.78   12.26
   6  -1  -2  272.65   12.23
   6   1  -2  264.80   12.28
   6   1  -2  250.40   12.19
  -6   1   2  268.87   12.26
  -6   1   2  261.46   12.50
   6   1  -2  273.70   12.28
  -5  -1   2  140.68    6.64
   5  -1  -2  139.33    6.46
   5  -1  -2  137.85    6.50
  -5   1   2  133.71    6.67
  -5   1   2  136.22    6.49
   5   1  -2  138.13    6.45
   5   1  -2  140.53    6.51
  -4  -1   2  144.84    7.37
   4  -1  -2  169.13    7.24
   4  -1  -2  155.20    7.27
  -4  -1   2  150.97    7.28
  -4   1   2  160.51    7.43
   4   1  -2  155.62    7.29
  -4   1   2  157.42    7.28
   4   1  -2  152.01    7.28
   4   1  -2  150.83    7.24
  -3  -1   2   15.18    0.84
   3  -1  -2   14.60    0.77
  -3  -1   2   15.73    0.80
   3   1  -2   15.37    0.77
  -3   1   2   15.67    0.79
  -3   1   2   16.29    0.90
   3   1  -2   15.14    0.78
   2  -1  -2  137.16    6.46
  -2  -1   2  134.84    6.51
  -2  -1   2  144.69    6.50
  -2   1   2  141.13    6.49
   2   1  -2  138.19    6.48
  -2   1   2  141.88    6.58
   2   1  -2  133.01    6.48
  -1  -1   2   47.03    2.17
  -1  -1   2   45.54    2.19
   1  -1  -2   46.02    2.15
  -1   1   2   49.31    2.18
   1   1  -2   42.72    2.18
   1   1  -2   44.91    2.16
  -1   1   2   44.61    2.13
  -1   1   2   45.24    2.26
   0  -1   2  196.12    9.58
   0  -1   2  209.98    9.56
   0   1   2  200.71    9.62
   0   1   2  231.34    9.66
   0   1  -2  209.66    9.58
   0   1  -2  196.89    9.58
   0   1   2  191.79    9.54
  -1  -1  -2   81.59    3.88
   1  -1   2   78.52    3.87
   1  -1   2   82.92    3.90
  -1   1  -2   77.58    3.92
   1   1   2   86.43    3.89
  -1   1  -2   88.05    3.92
   1   1   2   84.73    3.88
   2  -1   2  122.93    5.77
  -2  -1  -2  112.47    5.75
   2  -1   2  132.88    5.79
  -2  -1  -2  118.22    5.85
   2   1   2  119.14    5.79
  -2   1  -2  125.38    5.83
   2   1   2  130.01    5.78
  -2   1  -2  126.74    5.84
  -3  -1  -2   67.58    3.19
   3  -1   2   63.55    3.08
   3  -1   2   62.92    3.06
  -3  -1  -2   56.01    3.04
   3   1   2   66.15    3.07
  -3   1  -2   67.86    3.12
   3   1   2   65.89    3.09
  -3   1  -2   67.27    3.18
  -4  -1  -2  122.05    5.97
   4  -1   2  121.04    5.83
  -4  -1  -2  122.53    5.78
   4  -1   2  115.41    5.82
   4   1   2  125.24    5.85
  -4   1  -2  129.91    5.99
  -4   1  -2  128.46    5.87
   4   1   2  127.86    5.84
   5  -1   2   57.40    2.60
  -5  -1  -2   54.28    2.76
   5  -1   2   51.63    2.59
   5   1   2   52.78    2.61
  -5   1  -2   55.72    2.61
   5   1   2   49.84    2.59
  -5   1  -2   53.01    2.76
   6  -1   2   45.08    2.30
  -6  -1  -2   43.20    2.49
   6  -1   2   47.98    2.31
  -6   1  -2   51.35    2.56
  -6   1  -2   48.15    2.31
   6   1   2   48.00    2.32
   6   1   2   45.02    2.32
   7  -1   2   19.83    1.08
   7  -1   2   19.71    1.09
  -7  -1  -2   20.29    1.32
   7   1   2   20.46    1.10
  -7   1  -2   19.81    1.32
   7   1   2   19.73    1.10
   8  -1   2   96.67    4.52
   8  -1   2   96.71    4.54
  -8  -1  -2   92.17    4.82
   8   1   2   88.00    4.53
   8   1   2   88.61    4.54
  -8   1  -2  101.29    4.89
   9  -1   2    0.52    0.19
   9  -1   2    0.64    0.21
  -9  -1  -2    0.63    0.39
   9   1   2    1.06    0.25
   9   1   2    0.15    0.18
  -9   1  -2    0.70    0.37
 -10  -1  -2   90.52    4.74
  10  -1   2   83.73    4.31
  10   1   2   83.39    4.31
  10   1   2   89.22    4.34
 -10   1  -2   94.38    4.80
 -11  -1  -2    9.38    1.06
  11  -1   2    7.97    0.67
  11   1   2    8.71    0.71
  11   1   2    8.08    0.69
 -11   1  -2    8.93    1.15
  12  -1   2    8.38    0.73
 -12  -1  -2    8.38    1.17
  12   1   2    9.39    0.78
 -12   1  -2   10.00    1.28
 -13  -2   2    5.61    0.98
  13  -2  -2    6.36    0.64
 -13   2   2    7.64    1.20
  13   2  -2    4.81    0.59
 -12  -2   2    2.29    0.44
  12  -2  -2    1.97    0.36
 -12  -2   2    3.25    0.73
 -12   2   2    1.82    0.63
  12   2  -2    2.50    0.42
  11  -2  -2   21.65    1.33
 -11  -2   2   24.41    1.37
 -11  -2   2   24.09    1.71
 -11   2   2   22.76    1.73
  11   2  -2   22.07    1.35
 -10  -2   2    1.07    0.27
 -10  -2   2    1.50    0.46
  10  -2  -2    1.47    0.29
  10   2  -2    0.93    0.26
  10   2  -2    1.45    0.30
 -10   2   2    1.49    0.50
  -9  -2   2    1.27    0.39
   9  -2  -2    1.35    0.26
  -9   2   2    1.63    0.48
   9   2  -2    1.10    0.25
   9   2  -2    1.06    0.26
   8  -2  -2    4.20    0.38
  -8  -2   2    4.52    0.53
  -8   2   2    3.84    0.36
  -8   2   2    4.82    0.67
   8   2  -2    3.65    0.38
   8   2  -2    4.33    0.40
   7  -2  -2   48.64    2.47
   7  -2  -2   53.69    2.44
  -7  -2   2   48.85    2.65
   7   2  -2   49.52    2.50
  -7   2   2   48.84    2.48
   7   2  -2   46.75    2.48
  -7   2   2   54.91    2.78
   6  -2  -2   29.84    1.50
  -6  -2   2   28.78    1.64
  -6  -2   2   27.21    1.51
   6  -2  -2   30.89    1.43
   6   2  -2   27.96    1.51
   6   2  -2   30.73    1.53
  -6   2   2   28.88    1.52
  -6   2   2   31.46    1.74
  -5  -2   2  100.14    4.83
  -5  -2   2   96.14    4.73
   5  -2  -2  104.40    4.64
   5  -2  -2   94.92    4.71
  -5   2   2  101.83    4.74
   5   2  -2   93.49    4.72
   5   2  -2  102.34    4.66
  -5   2   2   99.62    4.92
   4  -2  -2    0.63    0.12
   4  -2  -2    0.32    0.05
  -4  -2   2    0.34    0.14
  -4  -2   2    0.27    0.11
   4   2  -2    0.18    0.08
  -4   2   2    0.43    0.19
  -4   2   2    0.20    0.11
   4   2  -2    0.58    0.13
  -3  -2   2    1.45    0.18
   3  -2  -2    2.00    0.16
  -3  -2   2    1.39    0.17
  -3   2   2    1.71    0.19
   3   2  -2    1.69    0.16
   3   2  -2    1.62    0.17
  -3   2   2    1.70    0.26
   2  -2  -2   14.46    0.77
  -2  -2   2   15.45    0.81
  -2  -2   2   15.23    0.78
   2  -2  -2   16.16    0.73
  -2   2   2   14.46    0.89
   2   2  -2   14.48    0.80
  -2   2   2   15.14    0.81
  -1  -2   2   85.97    3.84
   1  -2  -2   80.87    3.87
  -1  -2   2   83.97    3.92
   1   2  -2   82.43    3.90
  -1   2   2   82.58    3.91
  -1   2   2   81.46    4.01
   1   2  -2   72.70    3.92
  -1   2   2   87.50    3.86
   0  -2   2  114.92    5.38
   0   2  -2  116.93    5.29
   0   2   2  115.05    5.32
   0   2  -2  107.99    5.39
   0   2   2  119.08    5.35
   0   2   2  109.80    5.34
   0   2   2  113.11    5.45
   0   2  -2  107.49    5.34
   1  -2   2   77.10    3.80
   1  -2   2   74.40    3.76
   1   2   2   78.08    3.77
   1   2   2   78.56    3.77
   1   2   2   84.81    3.77
  -1   2  -2   81.23    3.84
  -1   2  -2   75.16    3.77
   1   2   2   86.37    3.89
   2  -2   2   24.00    1.25
   2  -2   2   24.63    1.27
  -2  -2  -2   24.76    1.33
   2   2   2   27.37    1.25
   2   2   2   25.69    1.27
   2   2   2   25.39    1.27
  -2   2  -2   25.41    1.33
  -2   2  -2   25.96    1.31
  -3  -2  -2   27.31    1.40
   3  -2   2   29.17    1.44
   3  -2   2   30.09    1.45
  -3  -2  -2   29.31    1.54
   3   2   2   29.96    1.46
  -3   2  -2   29.07    1.53
   3   2   2   27.88    1.46
  -3   2  -2   30.31    1.52
   4  -2   2   13.50    0.73
  -4  -2  -2   14.56    0.87
  -4  -2  -2   12.22    0.67
   4  -2   2   14.12    0.74
  -4   2  -2   13.80    0.86
   4   2   2   13.92    0.75
   4   2   2   13.72    0.76
   5  -2   2   72.84    3.56
   5  -2   2   73.79    3.56
  -5  -2  -2   79.15    3.75
   5   2   2   72.37    3.59
  -5   2  -2   72.82    3.74
  -5   2  -2   75.59    3.63
   5   2   2   73.97    3.58
  -6  -2  -2   36.03    1.92
   6  -2   2   33.07    1.70
   6  -2   2   34.49    1.70
   6   2   2   31.76    1.72
  -6   2  -2   34.78    1.92
   6   2   2   31.47    1.71
  -6   2  -2   35.40    1.76
  -7  -2  -2   29.73    1.69
   7  -2   2   24.69    1.42
   7  -2   2   27.19    1.42
  -7   2  -2   28.84    1.70
   7   2   2   26.46    1.46
  -7   2  -2   28.09    1.47
   7   2   2   28.29    1.46
   8  -2   2    0.23    0.15
  -8  -2  -2    0.24    0.28
   8  -2   2    0.75    0.18
   8   2   2    0.24    0.16
   8   2   2   -0.07    0.15
  -8   2  -2    0.49    0.33
  -9  -2  -2   39.90    2.30
   9  -2   2   35.66    1.95
   9   2   2   35.68    1.97
   9   2   2   37.17    1.97
  -9   2  -2   39.42    2.32
 -10  -2  -2    0.82    0.42
  10  -2   2    0.81    0.25
 -10   2  -2    1.06    0.45
  10   2   2    0.43    0.25
  10   2   2    0.94    0.28
 -11  -2  -2    5.86    0.92
  11  -2   2    5.06    0.54
 -11   2  -2    6.01    0.95
  11   2   2    4.73    0.56
  11   2   2    5.05    0.58
  12  -2   2    3.13    0.47
 -12  -2  -2    3.80    0.80
  12   2   2    3.19    0.48
 -12   2  -2    3.72    0.84
  12   2   2    2.49    0.44
 -13  -3   2    3.98    0.83
 -13  -3   2    5.27    0.67
  13  -3  -2    5.40    0.69
 -13   3   2    4.86    0.95
  13   3  -2    5.08    0.63
  12  -3  -2   53.57    2.93
 -12  -3   2   52.06    3.30
 -12  -3   2   57.44    2.99
  12   3  -2   58.67    2.98
 -12   3   2   61.75    3.51
 -11  -3   2   20.98    1.28
 -11  -3   2   20.26    1.55
  11  -3  -2   20.15    1.24
  11   3  -2   20.61    1.28
 -11   3   2   21.61    1.68
 -10  -3   2  158.68    7.50
  10  -3  -2  155.21    7.46
 -10  -3   2  156.64    7.78
 -10   3   2  151.09    7.88
  10   3  -2  156.29    7.50
  -9  -3   2   77.14    3.86
  -9  -3   2   73.76    4.06
   9  -3  -2   78.16    3.83
  -9   3   2   81.55    3.87
   9   3  -2   76.33    3.85
  -9   3   2   79.56    4.21
   8  -3  -2  260.23   12.00
  -8  -3   2  247.02   12.20
  -8  -3   2  241.57   12.02
  -8   3   2  255.07   12.04
   8   3  -2  264.43   12.03
  -8   3   2  260.61   12.35
  -7  -3   2  103.63    4.85
   7  -3  -2  105.55    4.81
  -7  -3   2   89.93    4.94
  -7   3   2  102.23    5.10
  -7   3   2   99.88    4.86
   7   3  -2   98.83    4.83
  -6  -3   2  165.87    8.39
  -6  -3   2  168.11    8.30
   6  -3  -2  181.37    8.28
   6   3  -2  182.52    8.31
  -6   3   2  181.56    8.34
  -6   3   2  173.12    8.54
   5  -3  -2    2.05    0.25
  -5  -3   2    1.96    0.29
  -5  -3   2    1.65    0.25
   5  -3  -2    2.23    0.14
  -5   3   2    3.09    0.31
   5   3  -2    2.14    0.20
   5   3  -2    1.93    0.26
  -5   3   2    2.35    0.40
   4  -3  -2  462.07   21.30
  -4  -3   2  417.48   21.33
   4  -3  -2  499.84   21.26
  -4  -3   2  449.23   21.34
   4   3  -2  448.89   21.33
  -4   3   2  465.85   21.51
  -4   3   2  446.44   21.35
   4   3  -2  467.84   21.29
  -3  -3   2  143.53    7.91
   3  -3  -2  164.81    7.91
  -3  -3   2  168.04    7.96
   3  -3  -2  173.87    7.86
  -3   3   2  179.42    8.12
   3   3  -2  173.38    7.94
  -3   3   2  178.35    7.98
   2  -3  -2  296.31   13.25
   2  -3  -2  277.35   13.28
  -2  -3   2  277.43   13.26
  -2  -3   2  275.88   13.32
  -2   3   2  295.99   13.35
   2   3  -2  289.09   13.33
   2   3  -2  277.23   13.31
  -2   3   2  288.86   13.46
  -1  -3   2   38.44    1.82
   1  -3  -2   34.81    1.76
   1  -3  -2   35.70    1.74
  -1   3   2   36.45    1.91
   1   3  -2   36.66    1.83
   1   3  -2   35.28    1.79
  -1   3   2   33.95    1.80
   0  -3   2   28.40    1.42
   0   3   2   27.71    1.36
   0   3   2   29.18    1.50
   0   3   2   26.70    1.39
   0   3   2   25.29    1.38
   0   3  -2   26.75    1.39
   0   3  -2   27.52    1.44
   1  -3   2    1.07    0.19
   1  -3   2    1.32    0.16
  -1   3  -2    1.71    0.17
   1   3   2    0.99    0.16
  -1   3  -2    1.31    0.23
   1   3   2    1.49    0.18
   2  -3   2  641.05   26.93
   2  -3   2  564.27   26.88
  -2  -3  -2  524.31   26.94
  -2   3  -2  563.98   26.93
   2   3   2  613.72   27.07
   2   3   2  566.17   26.90
  -2   3  -2  582.84   26.97
   2   3   2  568.42   27.04
   3  -3   2  238.27   11.49
  -3  -3  -2  233.04   11.58
   3  -3   2  221.79   11.49
   3   3   2  264.10   11.47
  -3   3  -2  254.44   11.60
   3   3   2  257.19   11.52
  -3   3  -2  255.57   11.59
   3   3   2  240.98   11.51
   4  -3   2  390.84   18.32
  -4  -3  -2  387.14   18.44
   4  -3   2  393.84   18.31
   4   3   2  397.80   18.35
  -4   3  -2  403.31   18.43
   4   3   2  381.85   18.35
  -4   3  -2  394.71   18.46
   5  -3   2   40.92    2.06
   5  -3   2   41.43    2.04
  -5  -3  -2   41.80    2.21
   5   3   2   42.81    2.10
   5   3   2   40.22    2.09
  -5   3  -2   43.27    2.17
  -5   3  -2   39.90    2.22
   6  -3   2  236.59   11.25
  -6  -3  -2  230.90   11.46
   6  -3   2  236.44   11.28
   6   3   2  239.71   11.32
  -6   3  -2  259.56   11.54
  -6   3  -2  240.55   11.38
   6   3   2  238.59   11.31
   7  -3   2   17.99    0.93
  -7  -3  -2   16.27    1.15
   7  -3   2   17.28    0.96
  -7   3  -2   16.64    1.03
   7   3   2   15.66    0.97
  -7   3  -2   17.01    1.18
   7   3   2   15.16    0.97
  -8  -3  -2  109.95    5.56
   8  -3   2  108.98    5.30
  -8   3  -2  114.10    5.37
   8   3   2  106.32    5.32
   8   3   2  108.54    5.34
  -8   3  -2  111.78    5.64
   9  -3   2   15.74    0.96
  -9  -3  -2   15.85    1.21
   9   3   2   15.25    0.99
  -9   3  -2   16.36    1.31
   9   3   2   15.21    0.99
 -10  -3  -2   96.58    5.23
  10  -3   2   94.23    4.88
  10   3   2  101.44    4.93
  10   3   2  103.21    4.93
 -10   3  -2  103.58    5.35
 -11  -3  -2   14.54    1.36
  11  -3   2   15.19    1.04
 -11   3  -2   17.03    1.45
  11   3   2   15.83    1.07
  11   3   2   15.84    1.07
  12  -3   2  108.84    5.30
 -12  -3  -2  100.50    5.71
  12   3   2  105.11    5.31
 -12   3  -2  115.28    5.92
  12   3   2  104.72    5.31
  12  -4  -2    3.03    0.47
 -12  -4   2    2.88    0.50
 -12  -4   2    1.59    0.55
 -12   4   2    3.54    0.81
  12   4  -2    2.55    0.45
 -11  -4   2  138.22    6.67
 -11  -4   2  133.69    6.93
  11  -4  -2  133.17    6.61
 -11   4   2  148.38    7.18
  11   4  -2  129.77    6.64
 -10  -4   2   22.17    1.59
  10  -4  -2   23.63    1.38
 -10  -4   2   23.71    1.42
  10   4  -2   24.04    1.42
 -10   4   2   25.00    1.77
  -9  -4   2   54.14    2.79
  -9  -4   2   55.66    2.97
   9  -4  -2   55.19    2.76
   9   4  -2   52.29    2.78
  -9   4   2   54.53    3.13
  -9   4   2   52.78    2.81
  -8  -4   2   57.61    3.14
  -8  -4   2   62.51    3.04
   8  -4  -2   55.61    2.97
  -8   4   2   63.50    3.09
   8   4  -2   59.38    3.02
  -8   4   2   60.26    3.34
   7  -4  -2   77.15    3.70
  -7  -4   2   78.55    3.75
  -7  -4   2   73.11    3.82
  -7   4   2   74.71    3.78
  -7   4   2   74.98    4.02
   7   4  -2   75.09    3.73
   6  -4  -2   49.95    2.50
  -6  -4   2   46.78    2.58
  -6  -4   2   51.96    2.56
  -6   4   2   50.42    2.78
   6   4  -2   50.06    2.54
  -6   4   2   52.79    2.61
   5  -4  -2  225.17   10.76
  -5  -4   2  211.98   10.80
  -5  -4   2  237.47   10.81
  -5   4   2  220.26   10.84
   5   4  -2  221.43   10.79
  -5   4   2  230.10   11.02
   5   4  -2  255.16   10.74
   4  -4  -2   42.17    2.01
   4  -4  -2   42.49    2.10
  -4  -4   2   41.98    2.15
  -4  -4   2   39.89    2.11
   4   4  -2   45.58    2.12
  -4   4   2   41.15    2.18
   4   4  -2   40.54    2.13
  -4   4   2   45.27    2.34
   3  -4  -2  235.67   11.14
   3  -4  -2  238.66   11.09
  -3  -4   2  228.94   11.18
  -3  -4   2  217.07   11.11
   3   4  -2  244.06   11.18
   3   4  -2  242.16   11.18
  -3   4   2  253.22   11.24
  -3   4   2  242.21   11.36
   2  -4  -2    5.10    0.36
  -2  -4   2    5.07    0.40
  -2  -4   2    5.13    0.31
   2  -4  -2    4.98    0.33
  -2   4   2    5.39    0.51
  -2   4   2    6.07    0.45
   2   4  -2    5.27    0.40
   2   4  -2    5.93    0.42
   1  -4  -2  164.58    7.80
   1  -4  -2  151.05    7.81
  -1  -4   2  169.00    7.87
  -1   4   2  183.75    8.01
   1   4  -2  165.14    7.89
  -1   4   2  168.87    7.88
   1   4  -2  162.32    7.86
   0  -4  -2  107.59    5.37
   0  -4   2  108.59    5.43
   0   4  -2  105.95    5.42
   0   4   2  120.78    5.53
   0   4  -2  130.48    5.33
   0   4  -2  105.68    5.46
   0   4   2  114.71    5.42
   0   4   2  114.60    5.44
   1  -4   2  185.37    9.09
   1  -4   2  193.73    9.15
   1   4   2  183.10    9.09
   1   4   2  215.51    9.23
  -1   4  -2  197.58    9.09
  -1   4  -2  195.76    9.20
   1   4   2  179.47    9.11
   1   4   2  198.39    9.12
   2  -4   2   25.52    1.42
  -2  -4  -2   30.22    1.51
   2  -4   2   27.31    1.47
   2   4   2   26.62    1.46
  -2   4  -2   30.22    1.48
   2   4   2   28.32    1.44
  -2   4  -2   27.97    1.55
   2   4   2   28.80    1.44
  -3  -4  -2  250.31   11.85
   3  -4   2  242.58   11.78
   3  -4   2  251.90   11.77
   3   4   2  256.14   11.79
  -3   4  -2  257.76   11.86
  -3   4  -2  240.39   11.88
   3   4   2  239.55   11.80
   3   4   2  269.77   11.76
  -4  -4  -2   20.59    1.19
   4  -4   2   19.61    1.09
   4  -4   2   20.56    1.08
  -4   4  -2   21.52    1.22
   4   4   2   20.06    1.12
  -4   4  -2   19.69    1.21
   4   4   2   20.89    1.05
   4   4   2   18.94    1.11
   5  -4   2   95.38    4.68
  -5  -4  -2   96.75    4.81
   5  -4   2   94.76    4.65
   5   4   2   98.31    4.72
   5   4   2   99.89    4.72
  -5   4  -2   98.76    4.85
  -5   4  -2   99.04    4.82
  -6  -4  -2   23.65    1.43
   6  -4   2   23.58    1.28
   6   4   2   23.01    1.31
   6   4   2   25.13    1.33
  -6   4  -2   24.78    1.49
  -6   4  -2   21.89    1.38
   7  -4   2   48.48    2.60
  -7  -4  -2   54.46    2.83
  -7   4  -2   56.41    2.76
   7   4   2   52.05    2.65
  -7   4  -2   52.21    2.87
   7   4   2   49.14    2.64
  -8  -4  -2    0.85    0.35
   8  -4   2    0.79    0.22
   8   4   2    0.67    0.24
  -8   4  -2    0.46    0.25
  -8   4  -2    1.55    0.45
   8   4   2    0.78    0.26
   9  -4   2  130.99    6.88
  -9  -4  -2  138.94    7.17
   9   4   2  141.67    6.94
   9   4   2  151.95    6.96
  -9   4  -2  154.73    7.31
 -10  -4  -2    5.02    0.78
  10  -4   2    4.12    0.49
  10   4   2    3.17    0.48
  10   4   2    4.05    0.52
 -10   4  -2    3.97    0.76
 -11  -4  -2   43.62    2.61
  11  -4   2   38.50    2.20
 -11   4  -2   41.24    2.66
  11   4   2   40.22    2.26
  11   4   2   41.06    2.26
 -12  -5   2    5.09    0.66
 -12   5   2    6.47    1.09
  11  -5  -2    1.63    0.38
 -11  -5   2    1.44    0.39
  11   5  -2    1.40    0.39
 -11   5   2    1.71    0.62
 -10  -5   2   12.35    0.93
  10  -5  -2   11.86    0.86
  10   5  -2   13.10    0.93
 -10   5   2   12.47    1.23
  -9  -5   2    4.30    0.52
   9  -5  -2    6.15    0.54
  -9   5   2    5.51    0.62
   9   5  -2    4.88    0.55
  -9   5   2    5.94    0.87
   8  -5  -2    5.86    0.52
  -8  -5   2    6.50    0.61
  -8   5   2    8.06    0.86
  -8   5   2    6.61    0.65
   8   5  -2    7.00    0.60
   7  -5  -2    0.45    0.20
  -7  -5   2    0.31    0.20
  -7   5   2    0.23    0.23
   7   5  -2    0.04    0.19
  -7   5   2    2.13    0.49
   6  -5  -2    2.40    0.31
  -6  -5   2    2.86    0.39
  -6   5   2    2.84    0.44
  -6   5   2    2.52    0.48
   6   5  -2    2.78    0.38
  -5  -5   2    0.12    0.17
   5  -5  -2    0.11    0.15
  -5   5   2    0.31    0.26
  -5   5   2    0.48    0.23
   5   5  -2    0.07    0.16
   4  -5  -2    1.97    0.25
  -4  -5   2    1.34    0.25
  -4   5   2    1.16    0.27
   4   5  -2    1.23    0.25
  -4   5   2    3.51    0.52
   4   5  -2    1.30    0.24
   3  -5  -2    0.66    0.14
  -3  -5   2    0.15    0.15
   3  -5  -2    0.15    0.13
   3   5  -2    0.14    0.13
  -3   5   2    0.46    0.22
  -3   5   2    0.18    0.18
   3   5  -2    0.34    0.16
   2  -5  -2    4.40    0.35
  -2  -5   2    4.69    0.41
   2  -5  -2    5.08    0.39
   2   5  -2    4.76    0.42
  -2   5   2    5.07    0.45
   2   5  -2    4.70    0.43
  -2   5   2    5.34    0.54
  -1  -5   2    2.91    0.33
   1  -5  -2    2.96    0.27
   1  -5  -2    2.86    0.28
  -1   5   2    2.85    0.35
   1   5  -2    2.99    0.32
  -1   5   2    3.22    0.43
   1   5  -2    2.92    0.35
   0  -5  -2    2.00    0.24
   0  -5   2    2.21    0.30
   0   5   2    1.47    0.26
   0   5   2    1.97    0.29
   0   5  -2    1.87    0.28
   0   5   2    2.05    0.33
   0   5  -2    2.99    0.34
   1  -5   2    2.75    0.33
  -1  -5  -2    2.72    0.28
   1  -5   2    2.45    0.30
   1   5   2    3.25    0.40
   1   5   2    2.23    0.30
  -1   5  -2    3.00    0.41
   1   5   2    2.29    0.31
  -2  -5  -2   26.11    1.34
   2  -5   2   26.71    1.38
  -2  -5  -2   26.01    1.38
   2  -5   2   25.16    1.33
   2   5   2   24.60    1.35
  -2   5  -2   22.27    1.43
   2   5   2   23.96    1.36
   3  -5   2    0.75    0.19
   3  -5   2    0.47    0.17
  -3  -5  -2    0.31    0.17
   3   5   2    0.40    0.17
   3   5   2    0.88    0.19
  -3   5  -2    0.44    0.23
   3   5   2    0.43    0.17
   4  -5   2    2.10    0.29
  -4  -5  -2    2.20    0.34
   4  -5   2    2.04    0.26
  -4   5  -2    1.57    0.34
   4   5   2    2.25    0.30
   4   5   2    1.83    0.28
   5  -5   2   27.74    1.48
  -5  -5  -2   27.61    1.57
  -5   5  -2   28.53    1.65
  -5   5  -2   27.35    1.63
   5   5   2   25.70    1.49
   5   5   2   28.43    1.52
  -6  -5  -2   17.73    1.21
   6  -5   2   19.25    1.11
   6   5   2   19.39    1.15
  -6   5  -2   20.22    1.30
   6   5   2   18.80    1.13
  -6   5  -2   20.21    1.28
   7  -5   2    0.18    0.19
  -7  -5  -2    0.12    0.23
  -7   5  -2    0.33    0.29
   7   5   2    0.24    0.20
   7   5   2    0.13    0.19
  -7   5  -2    0.35    0.26
   8  -5   2    0.66    0.24
  -8  -5  -2    0.62    0.33
   8   5   2    0.28    0.23
  -8   5  -2    0.59    0.30
  -8   5  -2    0.76    0.39
   8   5   2    0.52    0.26
  -9  -5  -2    4.75    0.71
   9  -5   2    3.18    0.45
   9   5   2    4.26    0.54
   9   5   2    4.37    0.54
  -9   5  -2    4.23    0.71
  10  -5   2    5.49    0.60
 -10  -5  -2    4.95    0.76
  10   5   2    4.15    0.58
  10   5   2    5.33    0.61
 -10   5  -2    5.29    0.93
  11  -5   2    0.48    0.31
 -11  -5  -2    0.83    0.39
 -11  -5  -2    0.66    0.43
  11   5   2    0.62    0.34
  11   5   2    0.38    0.31
 -11  -6   2   28.12    1.76
  11   6  -2   28.17    1.72
 -10  -6   2   10.85    0.88
  10  -6  -2   11.01    0.85
  10   6  -2   11.16    0.88
 -10   6   2   10.54    0.97
   9  -6  -2  105.15    5.06
  -9  -6   2  102.99    5.12
   9   6  -2  104.75    5.10
  -9   6   2   98.27    5.21
  -9   6   2  100.72    5.48
   8  -6  -2   33.19    1.90
  -8  -6   2   37.84    2.00
  -8   6   2   33.09    2.06
  -8   6   2   37.13    2.29
   8   6  -2   35.09    1.95
   7  -6  -2  153.16    7.34
  -7  -6   2  161.00    7.42
  -7   6   2  153.31    7.71
  -7   6   2  148.61    7.50
   7   6  -2  148.16    7.37
   6  -6  -2   20.37    1.20
  -6  -6   2   19.14    1.23
  -6   6   2   20.92    1.35
  -6   6   2   22.59    1.52
   6   6  -2   21.20    1.24
   5  -6  -2  125.31    6.09
  -5  -6   2  108.23    6.11
  -5   6   2  131.09    6.27
   5   6  -2  132.51    6.15
  -5   6   2  138.95    6.46
  -4  -6   2    9.46    0.69
   4  -6  -2    8.93    0.64
  -4   6   2    8.37    0.75
   4   6  -2   10.17    0.70
  -4   6   2    8.96    0.93
   4   6  -2    9.31    0.68
   3  -6  -2  215.83   10.38
  -3  -6   2  215.96   10.43
   3   6  -2  217.14   10.43
  -3   6   2  216.35   10.52
   3   6  -2  233.38   10.46
  -2  -6   2   12.78    0.82
   2  -6  -2   12.06    0.76
   2   6  -2   11.63    0.80
  -2   6   2   12.22    0.87
   2   6  -2   12.13    0.85
   1  -6  -2   67.33    3.36
  -1  -6   2   71.95    3.45
   1  -6  -2   64.61    3.37
  -1   6   2   69.33    3.49
   1   6  -2   69.35    3.50
   1   6  -2   70.53    3.45
   0  -6   2   29.30    1.70
   0  -6  -2   30.87    1.65
   0   6   2   33.89    1.77
   0   6  -2   32.85    1.73
   0   6  -2   32.23    1.80
   0   6   2   31.92    1.72
  -1  -6  -2   90.62    4.51
   1  -6   2   96.91    4.57
   1  -6   2   90.15    4.51
   1   6   2   94.28    4.57
  -1   6  -2   91.85    4.65
   1   6   2   94.14    4.57
  -2  -6  -2   49.29    2.52
   2  -6   2   50.05    2.55
   2  -6   2   49.59    2.51
  -2   6  -2   49.42    2.66
   2   6   2   48.66    2.55
   2   6   2   50.46    2.55
   3  -6   2  167.15    8.12
  -3  -6  -2  160.66    8.12
   3  -6   2  179.33    8.13
  -3   6  -2  161.91    8.27
   3   6   2  172.84    8.17
   3   6   2  180.70    8.14
  -4  -6  -2   15.22    0.93
   4  -6   2   14.63    0.90
   4   6   2   14.16    0.94
  -4   6  -2   14.00    1.05
   5  -6   2  176.15    8.22
  -5  -6  -2  173.84    8.25
   5   6   2  171.21    8.26
  -5   6  -2  167.29    8.41
  -6  -6  -2    1.01    0.29
   6  -6   2    1.44    0.30
  -6   6  -2    0.61    0.32
   6   6   2    1.47    0.31
  -7  -6  -2  121.15    5.66
   7  -6   2  111.17    5.58
   7   6   2  113.68    5.63
  -7   6  -2  112.89    5.79
   8  -6   2    4.60    0.53
  -8  -6  -2    4.38    0.57
   8   6   2    4.03    0.52
  -8   6  -2    3.02    0.57
   9  -6   2   56.85    2.93
  -9  -6  -2   56.79    2.99
   9   6   2   55.62    2.95
  -9   6  -2   54.08    3.09
 -10  -6  -2    2.95    0.52
  10  -6   2    2.57    0.45
  10   6   2    2.98    0.51
 -10   7   2   42.20    2.53
  -9  -7   2   18.24    1.25
   9  -7  -2   17.86    1.18
  -9   7   2   17.49    1.37
   9   7  -2   19.03    1.24
  -8  -7   2   85.63    4.30
   8  -7  -2   86.20    4.23
   8   7  -2   84.88    4.27
  -8   7   2   79.96    4.42
   7  -7  -2   41.22    2.22
  -7  -7   2   42.16    2.28
  -7   7   2   41.50    2.43
   7   7  -2   41.30    2.27
  -6  -7   2  139.05    6.85
   6  -7  -2  141.83    6.79
  -6   7   2  136.40    6.99
   6   7  -2  144.51    6.84
  -5  -7   2   19.07    1.22
   5  -7  -2   19.89    1.16
  -5   7   2   18.54    1.33
   5   7  -2   20.25    1.23
  -4  -7   2  127.88    6.41
   4  -7  -2  132.24    6.35
   4   7  -2  135.01    6.42
  -4   7   2  131.78    6.54
  -3  -7   2    2.53    0.39
   3  -7  -2    1.76    0.31
  -3   7   2    2.92    0.47
   3   7  -2    2.84    0.42
   3   7  -2    2.35    0.41
   2  -7  -2  187.69    8.93
  -2  -7   2  178.84    8.98
  -2   7   2  193.42    9.09
   2   7  -2  190.49    9.00
   2   7  -2  187.22    9.03
   1  -7  -2   19.51    1.16
  -1  -7   2   19.03    1.21
   1   7  -2   21.04    1.23
  -1   7   2   20.76    1.30
   1   7  -2   20.33    1.29
   0  -7  -2  127.12    6.35
   0  -7   2  133.21    6.43
   0   7  -2  135.08    6.44
   0   7  -2  122.31    6.49
   0   7   2  136.04    6.44
   0   7   2  140.67    6.50
   1  -7   2   65.75    3.19
  -1  -7  -2   61.59    3.11
   1  -7   2   60.57    3.13
   1   7   2   59.48    3.17
   1   7   2   63.11    3.20
  -1   7  -2   61.24    3.28
  -2  -7  -2   97.17    5.18
   2  -7   2  116.93    5.22
   2   7   2  116.51    5.27
   2   7   2  102.20    5.24
  -2   7  -2  100.14    5.35
  -3  -7  -2    8.48    0.66
   3  -7   2    8.03    0.62
   3   7   2    8.09    0.68
  -3   7  -2    7.17    0.74
   4  -7   2  175.00    8.27
  -4  -7  -2  186.36    8.32
   4   7   2  168.48    8.32
  -4   7  -2  159.85    8.45
  -5  -7  -2    3.35    0.45
   5  -7   2    3.70    0.46
  -5   7  -2    3.13    0.56
   5   7   2    4.36    0.53
  -6  -7  -2  183.57    8.80
   6  -7   2  185.52    8.76
   6   7   2  184.91    8.81
  -6   7  -2  175.82    8.98
  -7  -7  -2    1.27    0.34
   7  -7   2    1.02    0.32
  -7   7  -2    1.65    0.48
   7   7   2    0.95    0.34
   8  -7   2   87.18    4.27
  -8  -7  -2   85.03    4.32
   8   7   2   86.58    4.31
  -8   7  -2   79.19    4.47
  -9  -7  -2    4.54    0.79
   9  -7   2    4.25    0.56
  -9   7  -2    3.31    0.68
   9   7   2    4.36    0.61
  -8  -8   2   21.19    1.39
   8  -8  -2   20.69    1.32
  -8   8   2   18.13    1.51
   8   8  -2   21.36    1.37
  -7  -8   2    2.62    0.50
   7  -8  -2    2.39    0.41
  -7   8   2    2.90    0.62
   7   8  -2    2.71    0.49
  -6  -8   2    0.44    0.33
   6  -8  -2    0.38    0.27
  -6   8   2    0.59    0.37
   6   8  -2    0.56    0.30
   5  -8  -2   24.12    1.46
  -5  -8   2   24.75    1.53
  -5   8   2   23.88    1.66
   5   8  -2   26.85    1.55
  -4  -8   2    0.74    0.31
   4  -8  -2    0.56    0.26
   4   8  -2    0.67    0.31
  -4   8   2    0.56    0.37
   3  -8  -2    8.72    0.71
  -3  -8   2    8.08    0.74
   3   8  -2    8.30    0.73
  -3   8   2    8.46    0.85
   3   8  -2   10.12    0.81
  -2  -8   2    7.58    0.71
   2  -8  -2    7.67    0.66
   2   8  -2    8.35    0.77
  -2   8   2    8.65    0.82
   2   8  -2    7.24    0.70
  -1  -8   2    1.17    0.32
   1  -8  -2    0.67    0.25
   1   8  -2    1.25    0.31
  -1   8   2    0.97    0.37
   1   8  -2    0.64    0.34
   0  -8   2    0.45    0.27
   0  -8   2    1.27    0.34
   0  -8  -2    0.49    0.25
   0   8   2    0.10    0.26
   0   8  -2    0.38    0.29
  -1  -8  -2   13.57    0.92
   1  -8   2   12.80    0.92
   1   8   2   14.17    1.02
  -1   8  -2   13.10    1.08
   1   8   2   13.33    0.98
  -2  -8  -2    1.70    0.34
   2  -8   2    1.66    0.34
  -2   8  -2    1.22    0.41
   2   8   2    1.77    0.40
   2   8   2    1.81    0.39
   3  -8   2   37.53    2.00
  -3  -8  -2   36.61    2.01
   3   8   2   33.38    2.03
  -3   8  -2   37.12    2.21
  -4  -8  -2   13.66    1.00
   4  -8   2   16.12    1.00
  -4   8  -2   12.79    1.15
   4   8   2   14.87    1.05
   5  -8   2    6.57    0.61
  -5  -8  -2    4.50    0.60
   5   8   2    5.28    0.65
  -5   8  -2    4.09    0.70
   6  -8   2    0.58    0.31
  -6  -8  -2    0.66    0.32
  -6   8  -2    0.10    0.38
   6   8   2    0.86    0.34
   7  -8   2    3.79    0.55
  -7  -8  -2    3.59    0.58
   7   8   2    4.01    0.58
  -7   8  -2    3.50    0.71
   6  -9  -2   53.27    2.79
  -6  -9   2   51.50    2.85
   6   9  -2   54.57    2.86
  -6   9   2   46.71    3.03
   5  -9  -2    2.02    0.43
  -5  -9   2    2.22    0.49
  -5   9   2    1.99    0.57
   5   9  -2    2.56    0.50
   4  -9  -2   41.66    2.24
  -4  -9   2   36.91    2.28
  -4   9   2   39.85    2.45
   4   9  -2   43.47    2.32
  -3  -9   2    0.99    0.37
   3  -9  -2    0.31    0.29
  -3   9   2    0.88    0.42
   3   9  -2    0.56    0.33
   2  -9  -2   57.75    2.87
  -2  -9   2   54.19    2.92
   2   9  -2   52.98    2.91
  -2   9   2   50.23    3.01
   2   9  -2   54.94    3.00
   1  -9  -2    2.61    0.45
   1   9  -2    2.93    0.57
   1   9  -2    3.83    0.56
  -1   9   2    2.54    0.54
   0  -9  -2   53.67    2.80
   0  -9   2   58.28    2.84
   0   9  -2   48.19    2.93
   0   9   2   50.58    2.92
   1  -9   2   20.99    1.29
  -1  -9  -2   20.10    1.26
   1   9   2   19.03    1.32
   1   9   2   18.27    1.35
  -1   9  -2   18.10    1.41
   2  -9   2   46.19    2.34
  -2   9  -2   38.68    2.48
   2   9   2   41.10    2.37
  -3  -9  -2    0.89    0.33
   3  -9   2    0.43    0.32
  -3   9  -2    1.50    0.51
   3   9   2    0.96    0.38
   4  -9   2   50.96    2.50
  -4  -9  -2   42.64    2.47
   4   9   2   44.82    2.54
  -4   9  -2   41.73    2.69
   5  -9   2    2.36    0.45
  -5  -9  -2    2.75    0.52
   5   9   2    2.38    0.48
  -5   9  -2    2.64    0.66
   2 -10  -2   23.64    1.70
  -2  10   2   22.55    1.70
  -1 -10   2   67.04    3.71
   1 -10  -2   62.92    3.19
   1  10  -2   56.59    3.32
  -1  10   2   53.78    3.33
   0 -10   2    1.44    0.65
   0 -10  -2    1.37    0.41
   0  10   2    1.07    0.48
   0  10  -2    1.99    0.56
  -1 -10  -2   77.56    3.88
  -1  10  -2   70.84    4.06
  13   0  -3    0.06    0.26
 -13   0   3   -0.03    0.42
 -12   0   3    0.79    0.49
  12   0  -3    0.05    0.22
 -11   0   3    0.34    0.37
  11   0  -3   -0.09    0.16
  10   0  -3    0.20    0.17
 -10   0   3    0.63    0.39
   9   0  -3    0.33    0.16
   9   0  -3    1.46    0.23
  -9   0   3    0.16    0.25
  -9   0   3    1.31    0.22
  -8   0   3    0.99    0.33
   8   0  -3   -0.03    0.12
   8   0  -3    0.09    0.11
   7   0  -3   -0.17    0.07
  -7   0   3   -0.08    0.21
   7   0  -3    0.09    0.13
   6   0  -3    0.02    0.07
   6   0  -3    0.13    0.10
  -6   0   3    0.15    0.18
  -6   0   3   -0.06    0.08
   5   0  -3    0.08    0.06
  -5   0   3    0.19    0.16
   5   0  -3    0.11    0.09
  -5   0   3    0.13    0.08
   4   0  -3   -0.75    0.07
  -4   0   3   -0.54    0.09
  -4   0   3   -0.80    0.13
   4   0  -3   -0.84    0.08
  -3   0   3   -0.14    0.11
   3   0  -3    0.06    0.08
   3   0  -3   -0.29    0.05
  -3   0   3   -0.22    0.06
   2   0  -3   -0.01    0.04
   2   0  -3    0.07    0.04
  -2   0   3    0.01    0.08
  -1   0   3   -0.11    0.09
   1   0  -3   -0.17    0.03
   1   0  -3   -0.27    0.04
   0   0   3   -1.19    0.09
   0   0   3   -1.12    0.06
   1   0   3   -0.10    0.04
   1   0   3   -0.23    0.06
  -1   0  -3    0.17    0.11
   1   0   3    0.11    0.12
  -2   0  -3   -0.13    0.06
   2   0   3   -0.21    0.04
  -2   0  -3   -0.12    0.08
   2   0   3   -0.08    0.06
   3   0   3   -0.24    0.06
  -3   0  -3   -0.45    0.09
   3   0   3    0.07    0.10
   4   0   3    0.08    0.08
  -4   0  -3    0.06    0.08
   4   0   3    0.11    0.08
  -4   0  -3    0.05    0.13
   5   0   3    0.10    0.10
  -5   0  -3    0.20    0.09
  -5   0  -3    0.68    0.23
   5   0   3    0.02    0.08
   6   0   3    0.11    0.12
  -6   0  -3    0.22    0.09
   6   0   3    0.04    0.10
  -6   0  -3    0.06    0.18
   7   0   3    0.06    0.12
   7   0   3    0.52    0.17
  -7   0  -3    0.38    0.27
   8   0   3    0.30    0.16
   8   0   3    0.18    0.16
  -8   0  -3    0.01    0.27
   9   0   3   -0.03    0.16
   9   0   3    0.44    0.19
  -9   0  -3    0.48    0.37
 -10   0  -3   -0.08    0.30
  10   0   3    0.12    0.19
  10   0   3   -0.13    0.18
  11   0   3    0.16    0.24
 -11   0  -3    0.11    0.41
  11   0   3   -0.10    0.21
 -12   0  -3    0.03    0.47
  12   0   3   -0.03    0.25
  13  -1  -3    5.88    0.61
 -13  -1   3    5.18    0.92
  13   1  -3    6.20    0.62
 -13   1   3    5.91    1.02
  12  -1  -3  106.96    5.09
 -12  -1   3   98.84    5.54
  12   1  -3  101.46    5.09
 -12   1   3  106.74    5.63
  11  -1  -3    0.13    0.19
 -11  -1   3    0.63    0.41
  11   1  -3    0.46    0.23
 -11   1   3    0.76    0.41
 -10  -1   3  180.46    8.67
 -10  -1   3  182.54    9.05
  10  -1  -3  182.64    8.67
 -10   1   3  189.80    9.12
  10   1  -3  177.70    8.68
   9  -1  -3    2.26    0.30
  -9  -1   3    2.43    0.48
  -9  -1   3    2.79    0.33
   9   1  -3    2.82    0.34
  -9   1   3    3.46    0.60
  -8  -1   3  206.29   10.09
   8  -1  -3  209.26    9.83
   8  -1  -3  216.14    9.78
  -8  -1   3  202.38    9.82
   8   1  -3  208.23    9.84
  -8   1   3  210.62    9.80
  -8   1   3  205.36   10.13
   7  -1  -3   12.15    0.65
  -7  -1   3   10.47    0.68
  -7  -1   3   11.31    0.87
   7  -1  -3   14.41    0.72
   7   1  -3   11.34    0.70
  -7   1   3   11.92    0.68
  -7   1   3   11.04    0.88
   6  -1  -3  239.87   10.71
   6  -1  -3  227.25   10.75
  -6  -1   3  220.40   10.92
  -6  -1   3  229.50   10.76
   6   1  -3  227.58   10.76
   6   1  -3  216.71   10.70
  -6   1   3  244.57   10.76
  -6   1   3  229.59   10.98
  -5  -1   3  103.68    5.20
  -5  -1   3  113.08    5.34
   5  -1  -3  108.87    5.18
   5   1  -3  108.66    5.16
  -5   1   3  110.70    5.20
  -5   1   3  110.10    5.38
   5   1  -3  111.05    5.20
  -5   1   3  112.23    5.15
  -4  -1   3   55.10    2.73
   4  -1  -3   54.06    2.62
  -4  -1   3   55.33    2.64
  -4   1   3   55.37    2.79
  -4   1   3   54.61    2.58
  -4   1   3   56.00    2.64
   4   1  -3   54.78    2.61
   4   1  -3   52.86    2.62
  -3  -1   3    1.40    0.16
  -3  -1   3    1.55    0.19
   3  -1  -3    1.34    0.13
   3   1  -3    1.47    0.14
   3   1  -3    1.45    0.14
  -3   1   3    1.23    0.15
  -3   1   3    1.67    0.11
  -3   1   3    1.64    0.25
  -2  -1   3  256.87   11.25
  -2  -1   3  240.30   11.26
   2  -1  -3  216.70   11.18
   2   1  -3  224.37   11.23
   2   1  -3  241.43   11.20
  -2   1   3  247.68   11.24
  -2   1   3  256.01   11.22
  -2   1   3  242.46   11.35
  -1  -1   3    0.85    0.13
   1  -1  -3    0.79    0.07
  -1  -1   3    0.63    0.13
   1  -1  -3    0.67    0.10
   1   1  -3    1.18    0.14
  -1   1   3    0.96    0.20
  -1   1   3    0.85    0.08
   1   1  -3    0.67    0.08
   0  -1  -3  246.39   12.53
   0  -1   3  288.67   12.58
   0  -1   3  278.24   12.58
   0   1  -3  276.66   12.61
   0   1   3  252.53   12.65
   0   1   3  267.96   12.64
   0   1   3  275.24   12.61
  -1  -1  -3   65.66    3.06
   1  -1   3   61.90    3.04
   1  -1   3   68.36    3.09
   1   1   3   66.24    3.04
  -1   1  -3   65.67    3.10
   1   1   3   65.20    3.19
  -1   1  -3   61.88    3.11
   1   1   3   63.46    3.06
  -2  -1  -3  349.00   17.58
   2  -1   3  369.23   17.63
   2  -1   3  395.27   17.66
  -2  -1  -3  355.41   17.59
   2   1   3  410.93   17.66
   2   1   3  383.19   17.57
  -2   1  -3  378.58   17.57
  -2   1  -3  369.08   17.56
  -3  -1  -3   95.09    4.76
   3  -1   3  103.64    4.80
   3  -1   3   94.89    4.76
  -3  -1  -3  102.99    4.90
  -3   1  -3  107.33    4.85
   3   1   3  104.69    4.77
  -3   1  -3  104.49    4.89
   3   1   3   98.94    4.80
   4  -1   3  163.73    8.92
  -4  -1  -3  178.01    8.91
   4  -1   3  201.71    8.96
  -4  -1  -3  180.51    9.08
   4   1   3  203.00    8.94
  -4   1  -3  198.15    9.00
  -4   1  -3  207.42    9.11
   4   1   3  195.84    8.97
   5  -1   3   15.08    0.83
  -5  -1  -3   15.40    1.01
  -5  -1  -3   15.75    0.79
   5  -1   3   15.95    0.85
  -5   1  -3   16.56    1.02
  -5   1  -3   16.16    0.88
   5   1   3   13.86    0.85
   5   1   3   15.66    0.84
  -6  -1  -3   95.45    4.78
   6  -1   3   91.82    4.56
   6  -1   3   92.54    4.55
   6   1   3   94.70    4.56
  -6   1  -3  104.18    4.82
  -6   1  -3   99.01    4.58
   6   1   3   91.26    4.58
   7  -1   3   72.51    3.65
   7  -1   3   62.82    3.62
  -7  -1  -3   80.50    3.94
  -7   1  -3   85.41    3.97
   7   1   3   77.22    3.68
   7   1   3   75.67    3.65
   8  -1   3   90.65    4.47
  -8  -1  -3   98.17    4.81
   8  -1   3   92.90    4.47
   8   1   3   90.84    4.49
  -8   1  -3   95.67    4.81
   8   1   3   86.97    4.46
  -9  -1  -3   18.61    1.38
   9  -1   3   16.68    1.04
   9  -1   3   17.84    1.05
   9   1   3   18.61    1.06
  -9   1  -3   18.08    1.40
   9   1   3   17.59    1.07
  10  -1   3  156.84    7.63
 -10  -1  -3  155.65    8.04
  10   1   3  158.50    7.64
 -10   1  -3  162.94    8.09
  10   1   3  162.35    7.66
  11  -1   3    7.77    0.67
 -11  -1  -3    8.09    1.12
 -11   1  -3    8.02    1.10
  11   1   3    7.15    0.65
  11   1   3    6.85    0.64
  12  -1   3   74.45    3.96
 -12  -1  -3   82.12    4.53
  12   1   3   78.37    3.99
  12   1   3   79.15    3.99
 -12   1  -3   80.70    4.56
 -13  -2   3   76.11    4.39
  13  -2  -3   72.14    3.88
 -13   2   3   82.78    4.56
  13   2  -3   78.42    3.93
 -12  -2   3   10.14    1.13
  12  -2  -3   10.72    0.79
 -12   2   3   11.19    1.23
  12   2  -3   10.38    0.81
 -11  -2   3  138.95    6.77
 -11  -2   3  130.50    7.10
  11  -2  -3  141.52    6.76
 -11   2   3  142.11    7.25
  11   2  -3  145.80    6.78
  10  -2  -3    1.00    0.25
 -10  -2   3    1.24    0.42
 -10  -2   3    1.27    0.28
  10   2  -3    1.09    0.27
 -10   2   3    0.33    0.36
   9  -2  -3  270.45   12.69
  -9  -2   3  264.02   12.97
  -9  -2   3  265.25   12.71
   9   2  -3  263.09   12.70
  -9   2   3  285.87   13.11
  -8  -2   3   37.51    1.98
  -8  -2   3   37.30    2.17
   8  -2  -3   40.80    1.97
  -8   2   3   36.64    2.25
   8   2  -3   39.12    1.98
  -8   2   3   38.89    1.97
  -7  -2   3  346.70   16.80
  -7  -2   3  344.62   16.63
   7  -2  -3  359.78   16.62
   7   2  -3  363.05   16.64
  -7   2   3  355.35   16.63
  -7   2   3  363.14   16.92
  -6  -2   3   37.50    1.86
  -6  -2   3   35.75    1.96
   6  -2  -3   38.07    1.83
   6   2  -3   35.61    1.84
  -6   2   3   35.57    2.05
  -6   2   3   37.33    1.85
   6   2  -3   34.93    1.77
  -5  -2   3  200.01   10.32
   5  -2  -3  223.16   10.22
  -5  -2   3  220.69   10.26
  -5   2   3  238.96   10.14
   5   2  -3  218.24   10.24
  -5   2   3  215.03   10.45
   5   2  -3  212.60   10.20
  -5   2   3  215.82   10.26
  -4  -2   3   11.13    0.66
   4  -2  -3   12.08    0.62
  -4  -2   3   10.86    0.69
  -4   2   3   11.29    0.80
   4   2  -3   11.08    0.64
   4   2  -3   10.99    0.62
  -4   2   3   11.46    0.66
  -3  -2   3  125.07    6.63
   3  -2  -3  137.52    6.60
   3   2  -3  149.39    6.63
  -3   2   3  151.20    6.81
   3   2  -3  129.84    6.62
  -3   2   3  151.79    6.65
  -2  -2   3   77.93    3.67
   2  -2  -3   71.25    3.60
  -2  -2   3   78.61    3.62
  -2   2   3   78.95    3.80
  -2   2   3   79.69    3.56
  -2   2   3   70.06    3.64
   2   2  -3   74.41    3.65
   2   2  -3   78.77    3.63
   1  -2  -3  398.05   19.87
  -1  -2   3  414.77   19.83
  -1  -2   3  415.85   19.75
   1   2  -3  402.28   19.82
  -1   2   3  447.13   20.03
  -1   2   3  402.15   19.93
   1   2  -3  455.53   19.91
  -1   2   3  467.55   19.89
   0  -2   3    6.58    0.43
   0   2   3    5.73    0.37
   0   2  -3    5.34    0.36
   0   2  -3    6.75    0.33
   0   2   3    6.24    0.35
   0   2   3    6.01    0.36
   0   2   3    5.80    0.48
   0   2  -3    5.80    0.42
   1  -2   3  601.24   27.27
   1  -2   3  563.49   27.18
   1   2   3  578.16   27.27
  -1   2  -3  565.17   27.21
   1   2   3  553.75   27.16
   1   2   3  633.16   27.47
  -1   2  -3  588.89   27.30
   1   2   3  588.29   27.43
   2  -2   3    2.70    0.24
  -2  -2  -3    2.09    0.19
   2  -2   3    2.24    0.20
  -2  -2  -3    2.34    0.27
  -2   2  -3    2.15    0.27
  -2   2  -3    2.70    0.25
   2   2   3    2.46    0.22
   2   2   3    2.57    0.22
  -3  -2  -3  219.28   10.63
   3  -2   3  251.47   10.53
   3  -2   3  216.31   10.49
  -3  -2  -3  205.43   10.46
   3   2   3  235.55   10.52
  -3   2  -3  224.83   10.59
   3   2   3  216.08   10.52
  -3   2  -3  229.27   10.60
   4  -2   3  202.06   10.50
   4  -2   3  234.48   10.53
  -4  -2  -3  199.77   10.46
  -4   2  -3  229.54   10.61
   4   2   3  232.45   10.55
  -4   2  -3  234.56   10.67
   4   2   3  241.28   10.54
   5  -2   3  210.38   10.32
   5  -2   3  224.96   10.34
  -5  -2  -3  213.73   10.51
  -5   2  -3  222.85   10.41
   5   2   3  218.50   10.36
  -5   2  -3  229.26   10.53
   5   2   3  221.79   10.34
   6  -2   3   60.17    2.93
   6  -2   3   60.36    2.93
  -6  -2  -3   60.70    3.14
  -6   2  -3   59.21    2.98
   6   2   3   57.50    2.93
   6   2   3   59.41    2.96
  -6   2  -3   63.28    3.17
   7  -2   3  120.68    6.14
   7  -2   3  130.15    6.15
  -7  -2  -3  132.23    6.42
  -7   2  -3  129.64    6.20
  -7   2  -3  137.35    6.46
   7   2   3  124.70    6.16
   7   2   3  130.37    6.19
   8  -2   3    1.62    0.25
  -8  -2  -3    1.05    0.35
   8  -2   3    1.69    0.26
   8   2   3    1.26    0.25
  -8   2  -3    0.54    0.35
   8   2   3    0.85    0.24
   9  -2   3   92.15    4.67
  -9  -2  -3   98.90    5.03
   9   2   3   92.62    4.70
  -9   2  -3  101.44    5.10
   9   2   3   96.42    4.70
 -10  -2  -3   33.90    2.15
  10  -2   3   29.13    1.75
 -10   2  -3   34.46    2.20
  10   2   3   32.70    1.80
  10   2   3   32.34    1.78
  11  -2   3  160.44    8.06
 -11  -2  -3  171.47    8.55
 -11   2  -3  167.12    8.59
  11   2   3  168.52    8.10
  11   2   3  172.06    8.11
 -12  -2  -3   33.93    2.44
  12  -2   3   37.26    2.05
 -12   2  -3   36.59    2.57
  12   2   3   38.20    2.08
  12   2   3   36.41    2.06
  13  -3  -3    1.80    0.39
 -13  -3   3    1.52    0.58
 -13   3   3    2.01    0.72
  13   3  -3    2.12    0.45
  12  -3  -3   17.28    1.11
 -12  -3   3   17.44    1.15
 -12  -3   3   15.41    1.39
  12   3  -3   16.99    1.12
 -12   3   3   15.14    1.51
  11  -3  -3    6.58    0.58
 -11  -3   3    6.64    0.64
 -11  -3   3    6.63    0.89
 -11   3   3    6.90    1.01
  11   3  -3    6.69    0.62
 -10  -3   3    3.91    0.64
 -10  -3   3    4.73    0.50
  10  -3  -3    4.61    0.46
 -10   3   3    3.86    0.74
  10   3  -3    4.56    0.49
  -9  -3   3    3.50    0.56
  -9  -3   3    3.99    0.43
   9  -3  -3    3.88    0.40
  -9   3   3    3.85    0.42
  -9   3   3    3.29    0.61
   9   3  -3    2.90    0.38
  -8  -3   3   65.13    3.19
  -8  -3   3   60.82    3.32
   8  -3  -3   66.65    3.15
   8   3  -3   60.23    3.16
  -8   3   3   66.11    3.19
  -8   3   3   62.35    3.47
  -7  -3   3    6.44    0.60
  -7  -3   3    7.49    0.54
   7  -3  -3    7.23    0.49
  -7   3   3    6.64    0.53
  -7   3   3    7.65    0.76
   6  -3  -3   72.68    3.52
  -6  -3   3   70.78    3.64
  -6  -3   3   72.43    3.57
   6   3  -3   72.03    3.55
  -6   3   3   74.73    3.83
  -6   3   3   75.03    3.59
  -5  -3   3    0.90    0.20
   5  -3  -3    0.71    0.15
  -5  -3   3    1.04    0.21
  -5   3   3    0.75    0.28
   5   3  -3    0.59    0.17
   5   3  -3    1.15    0.17
  -5   3   3    0.83    0.19
   4  -3  -3   16.09    0.89
  -4  -3   3   18.10    0.94
  -4   3   3   15.55    0.95
   4   3  -3   17.22    0.92
  -4   3   3   17.09    1.11
   4   3  -3   16.60    0.93
  -3  -3   3   21.64    1.14
   3  -3  -3   20.70    1.07
  -3  -3   3   21.26    1.18
   3  -3  -3   23.03    1.14
  -3   3   3   23.61    1.21
   3   3  -3   23.04    1.17
   3   3  -3   23.42    1.19
  -3   3   3   22.42    1.35
  -2  -3   3   13.76    0.71
   2  -3  -3   14.05    0.75
  -2  -3   3   13.25    0.80
   2  -3  -3   14.83    0.71
  -2   3   3   14.90    0.81
   2   3  -3   14.58    0.82
  -2   3   3   12.44    0.91
   2   3  -3   14.25    0.78
   1  -3  -3    1.67    0.16
  -1  -3   3    1.21    0.20
  -1   3   3    1.55    0.20
   1   3  -3    1.86    0.26
  -1   3   3    1.84    0.32
   1   3  -3    1.46    0.19
   0  -3   3  142.69    7.02
   0   3   3  147.04    6.96
   0   3   3  157.55    6.98
   0   3  -3  152.50    7.04
   0   3  -3  140.07    6.96
   0   3   3  142.46    6.93
   0   3   3  151.51    7.12
   1  -3   3    4.11    0.30
   1  -3   3    4.34    0.37
  -1   3  -3    4.45    0.30
   1   3   3    4.44    0.32
  -1   3  -3    4.61    0.39
   1   3   3    4.20    0.31
   1   3   3    4.38    0.43
   1   3   3    4.61    0.32
   2  -3   3   61.02    2.95
  -2  -3  -3   60.98    3.00
   2  -3   3   58.43    2.90
   2   3   3   63.05    2.91
   2   3   3   64.96    3.08
  -2   3  -3   58.03    2.94
  -2   3  -3   59.43    3.01
   2   3   3   59.65    2.92
   2   3   3   58.29    2.92
  -3  -3  -3   29.38    1.55
   3  -3   3   26.87    1.42
   3  -3   3   27.31    1.45
  -3   3  -3   28.78    1.51
   3   3   3   28.19    1.45
   3   3   3   27.42    1.45
  -3   3  -3   28.49    1.54
   3   3   3   29.93    1.42
  -4  -3  -3   18.75    1.10
  -4  -3  -3   17.38    0.91
   4  -3   3   17.43    0.96
   4  -3   3   17.01    0.97
  -4   3  -3   18.94    1.08
   4   3   3   18.05    0.99
   4   3   3   18.28    1.00
  -4   3  -3   18.78    1.09
   5  -3   3    0.86    0.17
  -5  -3  -3    0.70    0.23
   5  -3   3    0.51    0.14
   5   3   3    0.58    0.17
   5   3   3    0.79    0.18
  -5   3  -3    0.59    0.22
  -5   3  -3    0.74    0.22
   6  -3   3   17.63    1.03
   6  -3   3   19.57    1.03
  -6  -3  -3   18.81    1.22
   6   3   3   17.08    1.05
   6   3   3   20.31    1.09
  -6   3  -3   18.97    1.24
  -6   3  -3   19.88    1.15
   7  -3   3    0.72    0.18
  -7  -3  -3    0.78    0.32
   7  -3   3    0.53    0.18
  -7   3  -3    0.53    0.22
  -7   3  -3    0.10    0.24
   7   3   3    0.65    0.20
   7   3   3    0.35    0.18
   8  -3   3    6.27    0.52
  -8  -3  -3    6.91    0.72
   8   3   3    7.32    0.58
  -8   3  -3    7.41    0.77
   8   3   3    6.06    0.54
  -9  -3  -3    0.43    0.34
   9  -3   3    0.49    0.22
   9   3   3    0.58    0.24
   9   3   3    0.61    0.25
  -9   3  -3    0.45    0.38
 -10  -3  -3    1.20    0.48
  10  -3   3    1.15    0.30
  10   3   3    1.07    0.30
  10   3   3    1.09    0.31
 -10   3  -3    0.86    0.45
  11  -3   3    6.71    0.65
 -11  -3  -3    6.51    0.97
  11   3   3    5.87    0.64
  11   3   3    6.57    0.65
 -11   3  -3    7.16    1.04
  12  -3   3   13.64    1.02
 -12  -3  -3   12.41    1.38
  12   3   3   14.76    1.06
  12   3   3   14.56    1.07
 -12   3  -3   15.50    1.51
 -12  -4   3    1.85    0.54
 -12  -4   3    1.82    0.43
  12  -4  -3    1.87    0.38
  12   4  -3    1.85    0.40
 -12   4   3    1.68    0.65
 -11  -4   3   37.94    2.40
 -11  -4   3   39.93    2.18
  11  -4  -3   38.97    2.12
 -11   4   3   40.92    2.64
  11   4  -3   39.12    2.16
 -10  -4   3    1.09    0.39
 -10  -4   3    0.97    0.30
  10  -4  -3    1.43    0.31
  10   4  -3    1.37    0.33
 -10   4   3    0.76    0.45
  -9  -4   3   44.72    2.41
  -9  -4   3   47.15    2.58
   9  -4  -3   45.85    2.37
  -9   4   3   46.78    2.79
   9   4  -3   46.21    2.41
  -9   4   3   45.73    2.44
  -8  -4   3    5.41    0.59
   8  -4  -3    6.32    0.50
  -8  -4   3    5.95    0.53
   8   4  -3    5.24    0.51
  -8   4   3    6.06    0.82
  -8   4   3    5.52    0.54
  -7  -4   3  211.15   10.62
  -7  -4   3  227.34   10.57
   7  -4  -3  219.33   10.50
   7   4  -3  229.01   10.56
  -7   4   3  234.89   10.61
  -7   4   3  214.30   10.84
  -6  -4   3    0.50    0.19
   6  -4  -3    0.20    0.15
  -6  -4   3    0.37    0.18
  -6   4   3    0.24    0.25
  -6   4   3    0.23    0.18
   6   4  -3    0.30    0.17
  -5  -4   3   28.11    1.45
   5  -4  -3   26.30    1.39
  -5  -4   3   23.48    1.40
   5   4  -3   27.70    1.39
  -5   4   3   26.88    1.66
  -5   4   3   26.61    1.47
   5   4  -3   27.41    1.43
  -4  -4   3   25.57    1.43
   4  -4  -3   25.64    1.38
  -4  -4   3   23.54    1.37
  -4   4   3   28.72    1.65
   4   4  -3   29.46    1.43
  -4   4   3   29.00    1.48
   3  -4  -3   32.08    1.65
  -3  -4   3   32.09    1.61
  -3  -4   3   32.08    1.71
   3  -4  -3   33.03    1.59
   3   4  -3   34.93    1.70
  -3   4   3   32.87    1.89
   3   4  -3   35.41    1.72
  -3   4   3   30.57    1.71
  -2  -4   3   47.88    2.27
   2  -4  -3   46.19    2.15
   2  -4  -3   41.91    2.18
  -2   4   3   44.03    2.41
   2   4  -3   44.24    2.27
  -2   4   3   44.04    2.26
   2   4  -3   43.78    2.22
   1  -4  -3  315.20   15.88
  -1  -4   3  362.01   15.97
   1  -4  -3  337.95   15.86
   1   4  -3  334.11   15.93
  -1   4   3  349.85   16.11
  -1   4   3  354.29   15.96
   1   4  -3  329.97   15.98
   0  -4   3    3.17    0.32
   0   4   3    2.61    0.23
   0   4  -3    2.10    0.27
   0   4   3    2.92    0.26
   0   4   3    2.59    0.37
   0   4   3    2.14    0.26
   0   4  -3    2.10    0.32
   1  -4   3  192.82    8.94
   1  -4   3  183.14    8.86
   1   4   3  176.18    8.87
   1   4   3  208.25    9.05
  -1   4  -3  181.15    8.97
   1   4   3  176.08    8.88
   1   4   3  189.10    8.85
  -1   4  -3  200.96    8.83
  -2  -4  -3   35.04    1.86
   2  -4   3   32.69    1.76
   2  -4   3   33.37    1.82
  -2   4  -3   38.55    1.91
   2   4   3   32.83    1.79
   2   4   3   36.51    1.79
   2   4   3   40.20    1.96
  -2   4  -3   36.07    1.80
   2   4   3   34.13    1.78
   3  -4   3   75.58    3.61
   3  -4   3   75.03    3.59
  -3  -4  -3   71.22    3.68
   3   4   3   74.79    3.57
  -3   4  -3   76.86    3.73
  -3   4  -3   81.62    3.67
   3   4   3   69.18    3.59
   3   4   3   70.02    3.60
  -4  -4  -3    1.06    0.25
   4  -4   3    1.54    0.22
   4  -4   3    1.65    0.23
   4   4   3    1.08    0.22
  -4   4  -3    1.81    0.33
   4   4   3    1.19    0.21
  -4   4  -3    1.13    0.26
   5  -4   3   68.47    3.30
  -5  -4  -3   69.38    3.46
   5  -4   3   69.11    3.29
  -5   4  -3   66.37    3.44
   5   4   3   62.29    3.31
   5   4   3   68.34    3.33
  -5   4  -3   68.75    3.47
  -6  -4  -3    1.18    0.32
   6  -4   3    1.57    0.23
   6  -4   3    1.21    0.23
   6   4   3    1.12    0.25
  -6   4  -3    1.34    0.34
   6   4   3    1.57    0.27
  -6   4  -3    0.99    0.29
   7  -4   3   86.88    4.20
  -7  -4  -3   80.19    4.38
   7   4   3   90.71    4.25
  -7   4  -3   89.03    4.47
  -7   4  -3   86.18    4.33
   7   4   3   82.39    4.22
  -8  -4  -3    9.90    0.88
   8  -4   3    9.13    0.67
   8   4   3    9.39    0.72
   8   4   3    9.35    0.71
  -8   4  -3    9.45    0.78
  -8   4  -3   11.05    0.96
   9  -4   3   30.01    1.66
  -9  -4  -3   31.00    1.93
   9   4   3   29.43    1.69
  -9   4  -3   30.09    1.99
   9   4   3   28.95    1.69
 -10  -4  -3    9.61    1.00
  10  -4   3    7.75    0.70
 -10   4  -3    9.14    1.03
  10   4   3    8.46    0.74
  10   4   3    9.17    0.76
 -11  -4  -3   19.54    1.55
  11  -4   3   19.51    1.25
  11   4   3   18.48    1.29
 -11   4  -3   19.83    1.64
  11   4   3   20.30    1.29
 -12  -5   3   54.85    2.96
  12   5  -3   54.80    3.04
 -12   5   3   53.81    3.43
 -11  -5   3    0.28    0.30
  11  -5  -3    1.06    0.33
  11   5  -3    0.42    0.30
 -11   5   3    1.00    0.52
 -10  -5   3  241.82   12.14
  10  -5  -3  252.62   12.09
  10   5  -3  252.06   12.13
 -10   5   3  264.47   12.22
 -10   5   3  262.90   12.62
   9  -5  -3   13.05    0.86
  -9  -5   3   12.11    0.90
  -9   5   3   13.63    0.97
   9   5  -3   12.89    0.91
  -9   5   3   12.81    1.21
   8  -5  -3  187.68    8.75
  -8  -5   3  183.37    8.81
   8   5  -3  181.44    8.79
  -8   5   3  183.65    9.16
  -8   5   3  181.60    8.87
  -7  -5   3   15.17    1.02
   7  -5  -3   16.66    0.98
  -7   5   3   17.67    1.12
   7   5  -3   16.31    1.02
  -7   5   3   16.53    1.29
   6  -5  -3  155.98    7.78
  -6  -5   3  164.91    7.85
  -6   5   3  170.55    8.17
   6   5  -3  163.93    7.82
  -6   5   3  164.12    7.91
  -5  -5   3   22.96    1.34
   5  -5  -3   25.10    1.30
  -5   5   3   24.04    1.59
   5   5  -3   23.81    1.33
  -5   5   3   24.04    1.41
   4  -5  -3  317.69   15.68
  -4  -5   3  328.69   15.75
  -4   5   3  344.87   16.01
  -4   5   3  340.65   15.81
   4   5  -3  346.50   15.74
   4   5  -3  331.89   15.73
  -3  -5   3    6.44    0.52
   3  -5  -3    6.27    0.46
  -3   5   3    6.78    0.56
  -3   5   3    6.63    0.66
   3   5  -3    6.53    0.49
   3   5  -3    6.55    0.52
   2  -5  -3  186.13    9.18
   2  -5  -3  200.01    9.14
  -2  -5   3  186.65    9.25
  -2   5   3  200.52    9.28
   2   5  -3  186.69    9.23
   2   5  -3  201.08    9.28
  -2   5   3  203.43    9.44
  -1  -5   3   55.11    2.81
   1  -5  -3   54.04    2.74
   1  -5  -3   52.51    2.71
   1   5  -3   55.16    2.79
  -1   5   3   54.80    2.81
  -1   5   3   63.58    2.99
   1   5  -3   57.20    2.85
   0  -5   3  198.19    9.54
   0  -5  -3  207.11    9.45
   0   5   3  205.24    9.52
   0   5   3  229.24    9.68
   0   5  -3  183.03    9.48
   0   5   3  196.64    9.49
   0   5  -3  186.78    9.56
   1  -5   3    1.30    0.21
   1  -5   3    2.11    0.31
  -1  -5  -3    1.20    0.21
   1   5   3    1.12    0.23
   1   5   3    1.13    0.28
   1   5   3    0.98    0.19
   1   5   3    1.04    0.21
  -1   5  -3    0.93    0.25
   2  -5   3  392.39   17.88
  -2  -5  -3  368.46   17.88
   2  -5   3  381.50   17.81
   2   5   3  415.40   17.84
   2   5   3  379.95   17.81
  -2   5  -3  361.75   17.95
   2   5   3  364.89   17.84
   3  -5   3   44.99    2.50
  -3  -5  -3   50.35    2.57
   3  -5   3   51.16    2.49
  -3   5  -3   51.50    2.65
   3   5   3   48.65    2.49
   3   5   3   52.06    2.49
   3   5   3   49.15    2.52
   4  -5   3  191.34    9.05
   4  -5   3  187.39    9.04
  -4  -5  -3  191.41    9.15
   4   5   3  188.88    9.08
  -4   5  -3  191.45    9.22
   4   5   3  196.50    9.07
  -5  -5  -3   77.84    3.93
   5  -5   3   75.22    3.79
   5   5   3   78.16    3.84
   5   5   3   78.48    3.83
  -5   5  -3   78.05    3.98
  -6  -5  -3  135.85    6.47
   6  -5   3  127.67    6.29
   6   5   3  130.71    6.33
   6   5   3  132.25    6.34
  -6   5  -3  129.34    6.47
  -7  -5  -3    2.44    0.47
   7  -5   3    2.94    0.37
   7   5   3    2.54    0.38
  -7   5  -3    2.04    0.43
   7   5   3    3.03    0.42
   8  -5   3   76.14    3.77
  -8  -5  -3   76.60    4.00
   8   5   3   76.22    3.81
  -8   5  -3   75.43    3.93
   8   5   3   72.88    3.79
   9  -5   3   13.08    0.92
  -9  -5  -3   13.99    1.15
   9   5   3   13.44    0.96
   9   5   3   13.27    0.96
  10  -5   3  155.22    7.78
 -10  -5  -3  154.93    8.08
  10   5   3  167.42    7.84
  10   5   3  165.65    7.84
  11  -6  -3   28.26    1.75
 -11  -6   3   27.77    1.75
 -11   6   3   30.54    2.21
  11   6  -3   29.48    1.76
 -10  -6   3    4.92    0.58
  10  -6  -3    4.69    0.56
 -10   6   3    5.16    0.91
 -10   6   3    3.57    0.61
  10   6  -3    5.01    0.61
   9  -6  -3   28.57    1.61
  -9  -6   3   28.30    1.67
   9   6  -3   25.78    1.63
  -9   6   3   30.01    2.05
  -9   6   3   28.78    1.77
  -8  -6   3    0.27    0.25
   8  -6  -3    0.23    0.22
  -8   6   3    0.19    0.34
   8   6  -3    0.11    0.23
  -8   6   3    0.11    0.26
  -7  -6   3  102.91    5.00
   7  -6  -3  100.49    4.93
   7   6  -3  103.23    4.98
  -7   6   3   93.74    5.08
  -7   6   3  104.64    5.36
   6  -6  -3   26.28    1.42
  -6  -6   3   23.62    1.46
   6   6  -3   26.34    1.47
  -6   6   3   25.06    1.55
  -6   6   3   26.74    1.78
   5  -6  -3   45.01    2.37
  -5  -6   3   42.47    2.42
  -5   6   3   50.52    2.74
  -5   6   3   49.03    2.54
   5   6  -3   47.05    2.43
  -4  -6   3   19.71    1.20
   4  -6  -3   17.92    1.12
   4   6  -3   20.70    1.20
  -4   6   3   20.81    1.43
  -4   6   3   20.30    1.28
   4   6  -3   22.00    1.22
   3  -6  -3   46.50    2.45
  -3  -6   3   45.40    2.51
   3   6  -3   52.47    2.56
   3   6  -3   48.77    2.51
  -3   6   3   50.66    2.60
  -2  -6   3   33.76    1.85
   2  -6  -3   32.84    1.77
  -2   6   3   39.89    2.04
   2   6  -3   32.57    1.86
   2   6  -3   32.25    1.81
  -2   6   3   33.98    1.88
  -1  -6   3   47.92    2.57
   1  -6  -3   47.42    2.47
   1  -6  -3   48.60    2.50
  -1   6   3   49.47    2.60
  -1   6   3   57.12    2.74
   1   6  -3   49.06    2.56
   1   6  -3   51.15    2.63
   0  -6   3    1.74    0.31
   0  -6  -3    1.60    0.25
   0   6   3    1.13    0.25
   0   6  -3    1.13    0.31
   0   6   3    0.84    0.25
   0   6  -3    0.61    0.22
   0   6   3    1.39    0.33
   1  -6   3   19.51    1.17
  -1  -6  -3   20.43    1.16
   1  -6   3   19.99    1.24
   1   6   3   24.02    1.33
  -1   6  -3   19.22    1.28
   1   6   3   21.45    1.22
   1   6   3   21.12    1.23
   2  -6   3  126.56    5.99
   2  -6   3  127.91    6.05
  -2  -6  -3  118.91    5.98
  -2  -6  -3  121.01    6.03
   2   6   3  130.04    6.02
   2   6   3  122.99    6.03
  -2   6  -3  124.18    6.15
   3  -6   3   88.40    4.15
   3  -6   3   70.67    4.13
  -3  -6  -3   89.72    4.22
  -3  -6  -3   81.85    4.15
  -3   6  -3   89.89    4.35
   3   6   3   91.35    4.18
   3   6   3   80.77    4.18
  -4  -6  -3    1.12    0.29
  -4  -6  -3    0.88    0.26
   4  -6   3    0.91    0.24
   4   6   3    0.88    0.26
  -4   6  -3    1.53    0.40
   4   6   3    1.52    0.29
   5  -6   3   22.44    1.30
  -5  -6  -3   22.61    1.40
  -5   6  -3   23.00    1.50
   5   6   3   23.10    1.35
   5   6   3   23.68    1.34
   6  -6   3    8.46    0.67
  -6  -6  -3    8.02    0.75
   6   6   3   10.33    0.74
   6   6   3    8.84    0.70
  -6   6  -3    9.19    0.87
  -7  -6  -3   34.17    2.15
   7  -6   3   36.43    1.94
   7   6   3   35.24    1.96
  -7   6  -3   35.62    2.13
   7   6   3   35.82    1.97
   8  -6   3   43.14    2.38
   8   6   3   45.19    2.44
  -8   6  -3   45.60    2.60
   8   6   3   46.73    2.45
   9  -6   3   59.69    3.18
  -9   6  -3   59.61    3.38
   9   6   3   62.18    3.22
   9   6   3   63.94    3.23
  10  -6   3    0.63    0.34
  10   6   3    0.77    0.35
 -10   7   3    3.23    0.64
   9  -7  -3    1.51    0.37
  -9  -7   3    2.06    0.43
   9   7  -3    2.56    0.46
  -9   7   3    2.26    0.52
   8  -7  -3   11.47    0.86
  -8  -7   3   11.89    0.94
   8   7  -3   12.38    0.92
  -8   7   3   11.31    1.03
  -7  -7   3    6.33    0.66
   7  -7  -3    6.17    0.59
   7   7  -3    6.83    0.65
  -7   7   3    6.26    0.76
   6  -7  -3   44.82    2.35
  -6  -7   3   45.06    2.43
  -6   7   3   42.03    2.52
   6   7  -3   46.84    2.41
  -5  -7   3    4.06    0.52
   5  -7  -3    4.90    0.48
  -5   7   3    3.37    0.54
   5   7  -3    4.77    0.55
  -4  -7   3    8.02    0.69
   4  -7  -3    8.02    0.62
   4   7  -3    8.45    0.68
   4   7  -3    7.65    0.80
  -4   7   3    7.47    0.75
  -3  -7   3    1.53    0.32
   3  -7  -3    1.72    0.30
   3   7  -3    1.77    0.37
   3   7  -3    1.54    0.33
  -3   7   3    1.93    0.41
  -2  -7   3   56.87    3.02
   2  -7  -3   54.51    2.93
   2   7  -3   60.59    3.02
  -2   7   3   59.85    3.09
   2   7  -3   61.00    3.09
  -1  -7   3    6.62    0.60
   1  -7  -3    5.48    0.51
   1   7  -3    5.66    0.62
  -1   7   3    5.14    0.58
   1   7  -3    7.01    0.58
   0  -7   3   24.95    1.47
   0  -7  -3   25.78    1.37
   0   7   3   24.40    1.44
   0   7  -3   23.19    1.42
   0   7  -3   23.77    1.52
   0   7   3   24.50    1.47
   1  -7   3   13.19    0.95
   1  -7   3   13.72    0.90
  -1  -7  -3   14.26    0.88
   1   7   3   13.43    0.95
   1   7   3   13.63    0.93
  -1   7  -3   12.85    1.02
  -2  -7  -3   20.79    1.22
   2  -7   3   21.13    1.22
   2  -7   3   21.30    1.28
   2   7   3   20.20    1.26
   2   7   3   20.24    1.25
  -2   7  -3   19.64    1.36
   3  -7   3   19.18    1.19
  -3  -7  -3   21.28    1.22
  -3   7  -3   18.52    1.35
   3   7   3   20.59    1.25
   4  -7   3   12.40    0.84
  -4  -7  -3   12.41    0.86
   4   7   3   11.21    0.86
  -4   7  -3   10.87    1.00
  -5  -7  -3    5.07    0.56
   5  -7   3    6.17    0.57
   5   7   3    5.12    0.57
  -5   7  -3    5.42    0.76
  -6  -7  -3   10.64    0.84
   6  -7   3   10.78    0.81
   6   7   3   10.47    0.84
  -6   7  -3   10.10    0.99
   7  -7   3   13.20    0.93
  -7  -7  -3   14.11    0.99
   7   7   3   12.04    0.94
  -7   7  -3   11.04    1.08
   8  -7   3   37.67    2.02
  -8  -7  -3   37.35    2.07
  -8   7  -3   31.31    2.18
   8   7   3   35.66    2.04
  -8  -8   3    3.54    0.59
   8  -8  -3    5.01    0.61
  -8   8   3    4.89    0.78
   8   8  -3    4.87    0.64
  -7  -8   3   60.70    3.27
   7  -8  -3   66.06    3.22
   7   8  -3   62.08    3.25
  -7   8   3   57.37    3.41
   6  -8  -3   24.07    1.42
  -6  -8   3   24.30    1.50
   6   8  -3   22.92    1.45
  -6   8   3   22.72    1.63
   5  -8  -3  141.87    6.89
  -5  -8   3  139.87    6.98
  -5   8   3  139.46    7.13
   5   8  -3  147.90    6.98
   4  -8  -3    1.02    0.31
  -4  -8   3    1.12    0.35
  -4   8   3    0.92    0.39
   4   8  -3    0.98    0.32
   3  -8  -3  137.67    6.46
  -3  -8   3  119.56    6.51
  -3   8   3  127.36    6.62
   3   8  -3  142.37    6.60
   3   8  -3  137.87    6.53
  -2  -8   3    6.35    0.66
   2  -8  -3    8.09    0.64
   2   8  -3    7.28    0.68
   2   8  -3    6.33    0.71
  -2   8   3    6.83    0.74
   1  -8  -3   69.81    3.52
  -1  -8   3   68.16    3.60
   1   8  -3   68.20    3.58
   1   8  -3   68.26    3.66
  -1   8   3   73.42    3.68
   0  -8   3   23.92    1.49
   0  -8   3   26.52    1.47
   0  -8  -3   24.19    1.43
   0   8  -3   23.14    1.57
   0   8   3   24.08    1.55
   1  -8   3  173.20    8.24
  -1  -8  -3  175.51    8.60
  -1   8  -3  161.99    8.40
   1   8   3  173.83    8.33
   1   8   3  170.95    8.30
  -2  -8  -3    7.41    0.63
   2  -8   3    7.11    0.64
   2   8   3    6.62    0.68
  -2   8  -3    5.40    0.76
   2   8   3    8.44    1.14
   3  -8   3  141.69    6.58
  -3  -8  -3  136.32    6.59
   3   8   3  136.30    6.64
  -3   8  -3  125.14    6.77
  -4  -8  -3   68.69    3.58
   4  -8   3   74.40    3.57
  -4   8  -3   67.92    3.79
   4   8   3   67.26    3.60
  -5  -8  -3  115.68    5.60
   5  -8   3  113.62    5.55
  -5   8  -3  110.41    5.81
   5   8   3  109.79    5.60
  -6  -8  -3   18.01    1.24
   6  -8   3   18.66    1.22
  -6   8  -3   17.87    1.44
   6   8   3   18.50    1.26
  -7  -8  -3   61.79    3.30
   7  -8   3   64.89    3.26
   7   8   3   62.31    3.29
  -7   8  -3   58.14    3.49
   6  -9  -3  128.06    6.16
  -6  -9   3  119.58    6.24
  -6   9   3  120.32    6.43
   6   9  -3  130.62    6.25
   5  -9  -3    2.72    0.45
  -5  -9   3    1.92    0.48
   5   9  -3    2.41    0.48
  -5   9   3    1.77    0.56
  -4  -9   3    4.22    0.65
   4  -9  -3    4.17    0.55
  -4   9   3    3.98    0.73
   4   9  -3    5.61    0.68
  -3  -9   3   13.29    1.05
   3  -9  -3   13.33    0.96
   3   9  -3   12.92    1.01
  -3   9   3   12.99    1.16
   2  -9  -3  100.01    4.74
  -2  -9   3   95.28    4.81
   2   9  -3   93.78    4.87
  -2   9   3   89.60    4.90
   2   9  -3   93.08    4.79
  -1  -9   3    0.51    0.32
   1  -9  -3    0.28    0.27
  -1  -9   3    0.76    0.36
   1   9  -3    0.53    0.36
   1   9  -3    0.67    0.34
  -1   9   3    0.85    0.41
   0  -9  -3  147.22    7.35
   0  -9   3  160.65    7.39
   0   9  -3  148.52    7.54
   0   9   3  148.03    7.49
  -1  -9  -3    3.97    0.55
   1  -9   3    4.92    0.62
   1   9   3    4.99    0.67
  -1   9  -3    5.46    0.79
   1   9   3    4.91    0.65
   2  -9   3   46.73    2.42
  -2   9  -3   40.42    2.59
   2   9   3   44.53    2.48
   3  -9   3   30.26    1.71
  -3  -9  -3   29.66    1.71
   3   9   3   26.68    1.73
  -3   9  -3   26.25    1.88
  -4  -9  -3   43.54    2.40
   4  -9   3   46.00    2.40
  -4   9  -3   41.24    2.62
   4   9   3   40.90    2.43
   5  -9   3    7.70    0.75
  -5  -9  -3    6.44    0.74
  -5   9  -3    6.66    1.14
   5   9   3    7.35    0.83
   2 -10  -3    0.34    0.36
   2  10  -3    0.98    0.48
  -2  10   3    1.46    0.50
   1 -10  -3    5.27    0.67
  -1  10   3    4.81    0.77
   1  10  -3    4.86    0.78
   0 -10  -3    0.41    0.32
   0  10  -3   -0.15    0.35
   0  10   3    0.41    0.37
  -1 -10  -3    1.54    0.42
  -1  10  -3    0.63    0.51
  13   0  -4  117.21    5.82
 -13   0   4  120.39    6.40
  12   0  -4  119.84    6.01
 -12   0   4  128.71    6.55
  11   0  -4  148.21    7.20
 -11   0   4  152.38    7.66
  10   0  -4  154.97    7.24
 -10   0   4  147.33    7.61
   9   0  -4   11.13    0.73
  -9   0   4   11.27    0.99
  -9   0   4   12.32    0.73
   8   0  -4  156.14    7.55
  -8   0   4  156.48    7.83
  -8   0   4  165.60    7.54
   7   0  -4  112.45    5.55
  -7   0   4  123.86    5.55
  -7   0   4  114.28    5.79
   7   0  -4  116.42    5.51
   6   0  -4   97.88    4.69
   6   0  -4  102.90    4.72
  -6   0   4  102.35    4.72
  -6   0   4   93.58    4.91
   5   0  -4  569.09   28.46
  -5   0   4  621.77   28.50
   5   0  -4  608.25   28.51
  -5   0   4  637.21   28.47
   4   0  -4   32.23    1.58
  -4   0   4   31.90    1.73
  -4   0   4   31.53    1.59
   4   0  -4   33.11    1.57
   3   0  -4   55.60    2.59
   3   0  -4   52.35    2.61
  -3   0   4   55.93    2.75
  -3   0   4   55.29    2.63
   2   0  -4  660.54   29.97
   2   0  -4  680.38   29.81
  -2   0   4  620.45   29.80
  -2   0   4  596.51   29.83
   1   0  -4  173.66    7.91
  -1   0   4  165.82    8.05
   1   0  -4  171.33    7.94
  -1   0   4  167.49    7.94
   0   0   4  428.92   20.51
   0   0  -4  431.52   20.40
   0   0   4  455.84   20.58
   1   0   4   57.54    2.86
   1   0   4   64.98    2.92
  -1   0  -4   58.88    2.93
   1   0   4   63.79    3.05
   2   0   4   83.29    3.87
  -2   0  -4   84.63    3.95
   2   0   4   88.45    3.82
  -2   0  -4   69.04    3.86
  -3   0  -4   19.89    1.12
   3   0   4   19.96    1.01
  -3   0  -4   17.58    1.01
   3   0   4   20.34    0.97
  -4   0  -4  395.47   19.44
   4   0   4  418.67   19.40
  -4   0  -4  401.99   19.57
   4   0   4  451.41   19.45
   5   0   4   91.87    4.44
   5   0   4   92.26    4.48
  -5   0  -4   93.74    4.47
  -5   0  -4   96.69    4.67
   6   0   4  136.08    6.53
   6   0   4  138.34    6.50
  -6   0  -4  137.75    6.75
   7   0   4  214.95    9.95
  -7   0  -4  215.86   10.25
   7   0   4  202.91    9.97
  -8   0  -4  159.54    8.08
   8   0   4  160.74    7.75
   8   0   4  168.68    7.79
   9   0   4   61.68    3.15
  -9   0  -4   64.88    3.53
   9   0   4   62.08    3.13
  10   0   4  228.76   10.91
 -10   0  -4  224.91   11.33
  10   0   4  234.59   10.91
  11   0   4    1.50    0.34
  11   0   4    1.57    0.34
 -11   0  -4    1.05    0.50
 -12   0  -4  129.27    6.88
  13  -1  -4   41.41    2.23
 -13  -1   4   40.28    2.71
  13   1  -4   42.52    2.25
 -13   1   4   39.82    2.74
  12  -1  -4   27.46    1.59
 -12  -1   4   26.79    1.97
  12   1  -4   28.73    1.61
 -12   1   4   30.78    2.10
  11  -1  -4   10.35    0.73
 -11  -1   4   10.15    1.03
  11   1  -4    9.81    0.72
 -11   1   4    9.70    1.07
 -10  -1   4   20.51    1.51
  10  -1  -4   21.22    1.23
 -10  -1   4   24.28    1.27
 -10   1   4   21.82    1.59
  10   1  -4   21.97    1.26
  -9  -1   4   64.89    3.53
   9  -1  -4   66.06    3.25
  -9  -1   4   66.85    3.25
  -9   1   4   63.35    3.57
   9   1  -4   67.27    3.26
  -8  -1   4   44.94    2.50
   8  -1  -4   45.05    2.21
  -8  -1   4   44.40    2.26
   8  -1  -4   45.71    2.26
   8   1  -4   44.05    2.26
  -8   1   4   46.36    2.56
   7  -1  -4   64.42    3.13
  -7  -1   4   65.26    3.37
  -7  -1   4   63.89    3.17
   7  -1  -4   66.23    3.17
  -7   1   4   61.94    3.41
  -7   1   4   71.60    3.13
   7   1  -4   61.06    3.11
   7   1  -4   66.18    3.18
  -7   1   4   65.41    3.17
  -6  -1   4    1.23    0.19
   6  -1  -4    0.98    0.15
  -6  -1   4    1.55    0.30
  -6   1   4    1.26    0.19
   6   1  -4    1.53    0.16
  -6   1   4    1.32    0.15
  -6   1   4    1.31    0.32
   6   1  -4    1.11    0.18
   5  -1  -4   91.34    4.56
  -5  -1   4   90.66    4.59
  -5  -1   4   93.60    4.71
  -5   1   4   99.53    4.54
  -5   1   4   98.86    4.80
  -5   1   4  104.13    4.61
   5   1  -4   99.92    4.58
   5   1  -4   93.71    4.56
  -4  -1   4   58.78    2.96
   4  -1  -4   59.50    2.84
  -4  -1   4   57.09    2.87
   4   1  -4   59.79    2.85
  -4   1   4   61.88    2.88
   4   1  -4   59.69    2.85
  -4   1   4   59.19    3.04
  -4   1   4   60.16    2.82
  -3  -1   4   18.09    0.99
   3  -1  -4   17.42    0.92
   3  -1  -4   17.39    0.88
  -3  -1   4   18.69    0.95
  -3   1   4   18.93    1.08
   3   1  -4   17.31    0.90
   3   1  -4   16.43    0.92
  -3   1   4   19.00    0.88
   2  -1  -4  351.93   15.82
  -2  -1   4  307.86   15.76
  -2  -1   4  332.65   15.78
   2  -1  -4  319.57   15.72
   2   1  -4  352.10   15.70
  -2   1   4  330.02   15.88
  -2   1   4  362.44   15.76
   2   1  -4  344.09   15.75
  -1  -1   4  180.19    8.66
  -1  -1   4  184.60    8.69
   1  -1  -4  178.48    8.62
   1  -1  -4  185.68    8.57
   1   1  -4  186.22    8.66
   1   1  -4  195.66    8.59
  -1   1   4  197.28    8.59
  -1   1   4  165.71    8.76
   0  -1   4    5.81    0.40
   0  -1  -4    4.95    0.33
   0   1  -4    6.36    0.31
   0   1   4    5.22    0.32
   0   1  -4    4.80    0.37
   0   1   4    5.69    0.47
   0   1   4    6.74    0.30
   1  -1   4  308.74   14.18
  -1  -1  -4  279.46   14.10
   1  -1   4  312.28   14.14
  -1   1  -4  305.41   14.16
   1   1   4  296.89   14.27
   1   1   4  300.84   14.17
  -1   1  -4  289.45   14.16
   1   1   4  331.30   14.12
  -2  -1  -4   32.73    1.71
   2  -1   4   33.12    1.68
  -2  -1  -4   36.10    1.83
   2  -1   4   34.99    1.73
   2   1   4   36.75    1.69
  -2   1  -4   36.81    1.78
   2   1   4   35.02    1.73
  -2   1  -4   36.45    1.80
  -3  -1  -4    3.65    0.36
   3  -1   4    3.22    0.27
   3  -1   4    3.27    0.23
   3   1   4    3.51    0.28
   3   1   4    3.56    0.24
  -3   1  -4    4.45    0.33
  -3   1  -4    3.68    0.34
   4  -1   4    8.03    0.49
  -4  -1  -4    7.92    0.61
  -4  -1  -4    6.55    0.45
   4  -1   4    7.59    0.45
   4   1   4    8.08    0.50
   4   1   4    8.47    0.47
  -4   1  -4    7.76    0.59
  -4   1  -4    8.75    0.54
   5  -1   4   69.62    3.43
   5  -1   4   68.96    3.45
  -5  -1  -4   67.28    3.40
  -5  -1  -4   71.43    3.64
  -5   1  -4   75.81    3.65
   5   1   4   73.88    3.44
   5   1   4   71.85    3.47
  -5   1  -4   73.91    3.49
   6  -1   4   36.68    1.88
   6  -1   4   36.95    1.85
   6   1   4   35.53    1.85
  -6   1  -4   37.36    1.88
   6   1   4   35.49    1.88
  -6   1  -4   39.46    2.10
  -7  -1  -4  159.63    8.09
   7  -1   4  163.23    7.84
   7  -1   4  164.52    7.83
   7   1   4  165.47    7.86
   7   1   4  166.14    7.83
  -7   1  -4  172.39    8.13
   8  -1   4   19.62    1.12
  -8  -1  -4   21.79    1.44
   8  -1   4   19.72    1.14
   8   1   4   19.22    1.15
   8   1   4   20.14    1.13
  -8   1  -4   20.40    1.44
  -9  -1  -4   23.57    1.63
   9  -1   4   22.69    1.32
   9  -1   4   23.33    1.31
   9   1   4   23.51    1.32
   9   1   4   23.40    1.35
  -9   1  -4   24.02    1.66
  10  -1   4    3.51    0.44
  10  -1   4    4.22    0.46
 -10  -1  -4    3.05    0.65
  10   1   4    4.38    0.51
 -10   1  -4    3.31    0.71
  10   1   4    4.46    0.47
  11  -1   4   56.84    3.07
 -11  -1  -4   58.75    3.53
 -11   1  -4   60.04    3.57
  11   1   4   60.86    3.11
  11   1   4   62.93    3.10
 -12  -1  -4   20.33    1.77
  12  -1   4   20.27    1.37
  12   1   4   21.37    1.35
 -12   1  -4   21.03    1.77
 -13  -2   4   33.59    2.38
  13  -2  -4   34.66    1.95
  13   2  -4   35.45    1.98
 -13   2   4   37.10    2.54
  12  -2  -4    0.40    0.26
 -12  -2   4    0.39    0.41
  12   2  -4    0.53    0.27
 -12   2   4    1.08    0.54
  11  -2  -4    0.43    0.24
 -11  -2   4    0.33    0.36
 -11  -2   4    0.67    0.26
  11   2  -4    0.72    0.26
 -11   2   4    0.28    0.40
 -10  -2   4    7.36    0.82
  10  -2  -4    8.91    0.65
 -10  -2   4    7.88    0.65
 -10   2   4   10.34    1.01
  10   2  -4    9.28    0.67
  -9  -2   4   23.67    1.55
   9  -2  -4   23.08    1.30
  -9  -2   4   24.70    1.34
   9   2  -4   24.16    1.33
  -9   2   4   23.49    1.64
  -9   2   4   23.45    1.32
   8  -2  -4   63.41    3.09
  -8  -2   4   61.59    3.12
  -8  -2   4   63.18    3.32
  -8   2   4   64.26    3.12
  -8   2   4   63.87    3.44
   8   2  -4   62.06    3.11
   7  -2  -4   36.83    1.86
  -7  -2   4   38.90    2.05
  -7  -2   4   36.20    1.89
  -7   2   4   34.22    2.12
  -7   2   4   38.09    1.90
   7   2  -4   36.91    1.88
   6  -2  -4   24.98    1.26
  -6  -2   4   24.25    1.40
  -6  -2   4   24.92    1.30
   6   2  -4   24.02    1.24
   6   2  -4   23.85    1.28
  -6   2   4   23.95    1.29
  -6   2   4   25.02    1.53
  -5  -2   4   18.04    1.02
  -5  -2   4   16.80    0.95
   5  -2  -4   17.61    0.91
   5   2  -4   17.36    0.93
   5   2  -4   16.52    0.91
  -5   2   4   16.88    0.95
  -4  -2   4    1.40    0.22
   4  -2  -4    1.90    0.17
  -4  -2   4    1.85    0.21
  -4   2   4    1.76    0.31
  -4   2   4    1.19    0.18
   4   2  -4    1.95    0.19
   4   2  -4    1.69    0.19
  -3  -2   4  119.46    6.03
   3  -2  -4  125.44    5.96
  -3  -2   4  130.23    6.03
   3   2  -4  123.33    6.01
  -3   2   4  141.12    6.03
   3   2  -4  126.23    5.99
  -3   2   4  123.47    6.20
  -2  -2   4   13.60    0.80
   2  -2  -4   14.03    0.71
  -2  -2   4   14.68    0.76
  -2   2   4   13.82    0.92
   2   2  -4   11.71    0.76
  -2   2   4   14.66    0.78
  -2   2   4   14.96    0.69
   2   2  -4   14.19    0.74
  -1  -2   4  120.71    5.55
  -1  -2   4  111.41    5.46
   1  -2  -4  115.09    5.43
  -1   2   4  117.46    5.43
  -1   2   4  126.29    5.51
   1   2  -4  106.91    5.51
  -1   2   4  113.80    5.66
   1   2  -4  117.05    5.46
   0  -2   4   89.99    4.21
   0   2   4   92.87    4.17
   0   2   4   88.65    4.33
   0   2   4   85.96    4.12
   0   2   4   88.00    4.12
   0   2  -4   85.10    4.13
   0   2  -4   79.90    4.19
   0   2  -4   88.30    4.12
   1  -2   4    5.16    0.33
   1  -2   4    5.81    0.40
  -1  -2  -4    5.84    0.35
  -1   2  -4    5.94    0.42
   1   2   4    5.74    0.49
   1   2   4    5.77    0.34
   1   2   4    5.27    0.34
  -1   2  -4    5.39    0.36
   2  -2   4    7.47    0.45
  -2  -2  -4    8.10    0.58
   2  -2   4    8.82    0.51
  -2  -2  -4    7.99    0.46
   2   2   4    8.45    0.64
  -2   2  -4    8.21    0.56
   2   2   4    8.50    0.49
   2   2   4    8.38    0.47
  -2   2  -4    7.71    0.51
   3  -2   4    0.84    0.13
  -3  -2  -4    0.69    0.11
   3  -2   4    0.69    0.14
  -3  -2  -4    0.43    0.17
   3   2   4    0.94    0.15
   3   2   4    0.84    0.14
  -3   2  -4    1.26    0.22
  -3   2  -4    0.74    0.19
  -4  -2  -4    6.92    0.44
   4  -2   4    8.24    0.51
   4  -2   4    7.49    0.47
  -4   2  -4    8.32    0.61
   4   2   4    7.59    0.51
   4   2   4    8.92    0.50
  -4   2  -4    8.44    0.58
   5  -2   4    1.22    0.18
  -5  -2  -4    1.28    0.29
   5  -2   4    1.09    0.19
  -5   2  -4    1.37    0.31
   5   2   4    1.19    0.19
  -5   2  -4    1.08    0.23
   6  -2   4  154.27    7.29
  -6  -2  -4  152.16    7.52
   6  -2   4  152.99    7.31
  -6   2  -4  156.25    7.37
   6   2   4  144.73    7.32
  -6   2  -4  169.96    7.57
   6   2   4  149.81    7.30
  -7  -2  -4   21.75    1.41
   7  -2   4   21.23    1.17
   7  -2   4   21.12    1.18
  -7   2  -4   21.53    1.22
  -7   2  -4   21.70    1.43
   7   2   4   21.24    1.21
   7   2   4   20.56    1.17
   8  -2   4    2.70    0.34
  -8  -2  -4    2.04    0.48
   8  -2   4    3.31    0.36
   8   2   4    2.54    0.34
  -8   2  -4    2.49    0.54
   8   2   4    2.19    0.35
  -9  -2  -4    0.16    0.33
   9  -2   4    0.41    0.30
   9  -2   4    0.06    0.18
  -9   2  -4    0.36    0.35
   9   2   4    0.05    0.19
   9   2   4    0.63    0.23
  10  -2   4    1.02    0.30
 -10  -2  -4    1.04    0.49
 -10   2  -4    0.96    0.45
  10   2   4    2.50    0.41
  11  -2   4    7.00    0.63
 -11  -2  -4    7.56    1.05
  11   2   4    6.75    0.64
 -11   2  -4    5.25    0.91
  11   2   4    6.42    0.65
  12  -2   4   38.09    2.11
 -12   2  -4   37.35    2.74
  12   2   4   38.33    2.15
 -13  -3   4   41.77    2.70
  13  -3  -4   41.17    2.29
  13   3  -4   42.43    2.34
 -13   3   4   44.34    2.93
  12  -3  -4   87.40    4.37
 -12  -3   4   91.85    4.43
 -12  -3   4   86.51    4.74
  12   3  -4   82.20    4.37
 -12   3   4   89.05    4.93
  11  -3  -4  179.50    8.75
 -11  -3   4  171.46    9.06
 -11  -3   4  185.01    8.80
  11   3  -4  184.90    8.79
 -11   3   4  195.22    9.33
 -10  -3   4  146.31    7.15
 -10  -3   4  150.45    7.40
  10  -3  -4  148.31    7.10
  10   3  -4  149.08    7.14
 -10   3   4  145.99    7.56
  -9  -3   4   72.32    3.64
   9  -3  -4   73.24    3.60
  -9  -3   4   73.17    3.83
  -9   3   4   74.17    3.64
   9   3  -4   71.65    3.63
  -9   3   4   73.74    4.02
  -8  -3   4    3.20    0.48
  -8  -3   4    2.90    0.38
   8  -3  -4    3.12    0.35
   8   3  -4    3.00    0.37
  -8   3   4    2.51    0.35
  -8   3   4    3.38    0.61
  -7  -3   4   63.60    3.17
   7  -3  -4   66.83    3.13
  -7  -3   4   64.44    3.27
  -7   3   4   64.60    3.46
  -7   3   4   61.60    3.17
   7   3  -4   61.67    3.14
   6  -3  -4   82.10    3.92
  -6  -3   4   83.15    3.98
  -6  -3   4   79.96    4.03
  -6   3   4   80.41    4.23
  -6   3   4   81.03    3.98
   6   3  -4   82.27    3.91
   6   3  -4   80.72    3.95
  -5  -3   4  218.44   10.81
  -5  -3   4  216.13   10.79
   5  -3  -4  234.69   10.74
   5   3  -4  237.10   10.77
   5   3  -4  231.04   10.76
  -5   3   4  236.56   11.06
  -5   3   4  229.76   10.80
  -4  -3   4  287.63   13.90
   4  -3  -4  280.10   13.83
  -4  -3   4  286.43   13.87
  -4   3   4  305.91   14.15
   4   3  -4  306.06   13.89
   4   3  -4  304.36   13.87
  -4   3   4  304.71   13.91
  -3  -3   4  205.62   10.34
  -3  -3   4  221.86   10.28
   3  -3  -4  217.40   10.26
   3  -3  -4  234.32   10.20
   3   3  -4  215.90   10.33
   3   3  -4  227.81   10.30
  -3   3   4  211.85   10.33
  -3   3   4  220.86   10.55
   2  -3  -4  186.63    8.68
  -2  -3   4  195.82    8.78
  -2  -3   4  173.90    8.65
  -2   3   4  191.61    8.75
   2   3  -4  192.71    8.72
  -2   3   4  175.72    8.93
   2   3  -4  179.26    8.76
  -2   3   4  187.48    8.64
   1  -3  -4  370.89   17.94
  -1  -3   4  394.18   18.06
   1   3  -4  383.35   17.98
   1   3  -4  408.11   18.06
  -1   3   4  342.42   18.16
  -1   3   4  393.98   18.01
  -1   3   4  404.63   18.01
   0  -3   4   69.21    3.49
   0   3   4   74.73    3.41
   0   3   4   70.91    3.43
   0   3   4   73.19    3.61
   0   3  -4   68.45    3.34
   0   3  -4   72.46    3.51
   0   3   4   72.59    3.38
   0   3  -4   67.68    3.41
   1  -3   4  251.89   12.24
   1  -3   4  239.28   12.31
   1   3   4  256.64   12.26
  -1   3  -4  279.79   12.38
   1   3   4  278.19   12.28
   1   3   4  276.77   12.47
   1   3   4  249.10   12.24
  -1   3  -4  266.70   12.24
   2  -3   4   71.37    3.55
   2  -3   4   76.91    3.62
  -2   3  -4   73.25    3.68
   2   3   4   81.62    3.58
   2   3   4   72.61    3.57
  -2   3  -4   73.75    3.59
   2   3   4   68.71    3.56
   2   3   4   77.01    3.77
  -3  -3  -4  305.87   14.15
   3  -3   4  300.89   14.17
  -3  -3  -4  287.04   14.30
   3  -3   4  282.97   14.20
   3   3   4  308.45   14.19
  -3   3  -4  317.90   14.32
   3   3   4  300.92   14.20
  -3   3  -4  323.05   14.27
  -4  -3  -4   41.47    2.18
   4  -3   4   46.54    2.26
  -4  -3  -4   47.11    2.41
   4  -3   4   45.88    2.23
  -4   3  -4   46.75    2.37
  -4   3  -4   45.29    2.36
   4   3   4   45.05    2.26
   4   3   4   45.89    2.27
   5  -3   4   38.65    1.81
  -5  -3  -4   36.35    1.98
   5  -3   4   33.92    1.78
  -5   3  -4   37.19    1.92
   5   3   4   32.12    1.81
   5   3   4   36.23    1.82
  -5   3  -4   33.55    1.95
  -6  -3  -4   49.44    2.72
   6  -3   4   50.41    2.51
   6  -3   4   49.10    2.51
  -6   3  -4   54.78    2.75
  -6   3  -4   51.06    2.63
   6   3   4   51.60    2.54
   6   3   4   47.89    2.54
   7  -3   4  116.91    5.94
  -7  -3  -4  127.55    6.22
   7  -3   4  120.50    5.95
  -7   3  -4  136.30    6.27
   7   3   4  127.82    5.99
   7   3   4  117.99    5.99
  -7   3  -4  125.28    6.06
  -8  -3  -4   78.37    4.07
   8  -3   4   71.84    3.76
   8   3   4   78.79    3.82
   8   3   4   77.87    3.80
  -8   3  -4   76.06    4.09
   9  -3   4  274.49   12.73
  -9  -3  -4  246.77   13.02
   9   3   4  281.92   12.78
  -9   3  -4  275.35   13.13
   9   3   4  266.36   12.74
 -10  -3  -4   73.30    4.01
  10  -3   4   70.27    3.62
  10   3   4   73.04    3.65
 -10   3  -4   74.99    4.08
  10   3   4   69.21    3.65
 -11  -3  -4   77.29    4.46
  11  -3   4   82.37    4.09
 -11   3  -4   80.99    4.57
  11   3   4   82.07    4.12
  12  -4  -4   40.46    2.27
 -12  -4   4   41.88    2.34
 -12  -4   4   38.42    3.04
  12   4  -4   44.57    2.34
 -12   4   4   44.54    2.87
  11  -4  -4   49.94    2.56
 -11  -4   4   47.25    2.82
 -11  -4   4   51.84    2.63
 -11   4   4   47.84    3.05
  11   4  -4   46.35    2.58
  10  -4  -4   96.33    4.95
 -10  -4   4   92.75    5.16
 -10  -4   4  104.32    5.02
 -10   4   4   99.25    5.42
 -10   4   4  111.86    5.51
  10   4  -4  104.75    5.01
   9  -4  -4   70.30    3.49
  -9  -4   4   72.82    3.56
  -9  -4   4   68.31    3.68
  -9   4   4   72.46    3.94
   9   4  -4   69.20    3.53
  -9   4   4   69.01    3.56
  -8  -4   4   77.83    4.10
   8  -4  -4   78.95    3.95
  -8  -4   4   80.69    4.02
  -8   4   4   78.37    4.34
   8   4  -4   85.23    4.01
  -8   4   4   83.38    4.05
   7  -4  -4   14.26    0.88
  -7  -4   4   14.36    0.99
  -7  -4   4   14.22    0.94
  -7   4   4   16.27    1.24
  -7   4   4   16.66    1.00
   7   4  -4   16.63    0.95
  -6  -4   4   37.33    1.90
   6  -4  -4   36.58    1.83
  -6  -4   4   31.53    1.88
  -6   4   4   37.97    2.19
   6   4  -4   35.22    1.87
  -6   4   4   37.40    1.92
  -5  -4   4   14.25    0.88
   5  -4  -4   13.67    0.81
  -5  -4   4   12.92    0.83
   5   4  -4   15.63    0.86
  -5   4   4   14.75    1.11
  -5   4   4   15.51    0.91
   4  -4  -4   75.67    3.77
  -4  -4   4   77.57    3.77
  -4  -4   4   75.59    3.84
  -4   4   4   79.11    4.11
  -4   4   4   82.43    3.87
   4   4  -4   78.13    3.81
   4   4  -4   81.47    3.84
  -3  -4   4  186.15    8.95
   3  -4  -4  183.05    8.80
  -3  -4   4  180.86    8.82
   3  -4  -4  184.03    8.87
  -3   4   4  196.24    9.20
   3   4  -4  201.57    8.97
  -3   4   4  191.09    8.96
   3   4  -4  188.32    8.91
   2  -4  -4   97.24    4.26
   2  -4  -4   86.49    4.29
  -2  -4   4   88.87    4.39
  -2   4   4   87.49    4.37
   2   4  -4   94.13    4.41
  -2   4   4   89.16    4.58
   2   4  -4   87.22    4.33
  -1  -4   4   52.47    2.61
   1  -4  -4   52.22    2.50
   1   4  -4   51.85    2.62
  -1   4   4   48.09    2.55
   1   4  -4   52.16    2.54
  -1   4   4   50.50    2.47
  -1   4   4   52.49    2.76
   0  -4   4  453.07   20.34
   0   4  -4  397.59   20.24
   0   4   4  462.39   20.47
   0   4   4  433.88   20.26
   0   4  -4  457.05   20.36
   0   4   4  414.52   20.23
   0   4   4  418.70   20.20
   1  -4   4   34.98    2.06
   1  -4   4   37.96    1.99
   1   4   4   39.32    2.02
   1   4   4   39.76    1.99
   1   4   4   40.57    2.02
   1   4   4   46.54    2.24
  -1   4  -4   41.74    1.96
  -1   4  -4   41.71    2.13
   2  -4   4  262.19   12.35
   2  -4   4  230.46   12.40
  -2   4  -4  268.89   12.51
   2   4   4  282.09   12.58
   2   4   4  247.51   12.35
  -2   4  -4  264.33   12.37
   2   4   4  285.17   12.38
   2   4   4  269.75   12.38
   3  -4   4   77.67    4.06
   3  -4   4   79.45    4.02
  -3  -4  -4   89.01    4.18
   3   4   4   90.29    4.03
   3   4   4   80.74    4.04
  -3   4  -4   83.04    4.09
  -3   4  -4   83.94    4.18
   3   4   4   85.41    4.06
  -4  -4  -4   29.32    1.59
   4  -4   4   28.92    1.47
   4  -4   4   26.17    1.43
   4   4   4   26.25    1.46
  -4   4  -4   28.78    1.60
  -4   4  -4   27.77    1.55
   4   4   4   26.32    1.46
  -5  -4  -4   24.85    1.43
   5  -4   4   20.87    1.24
   5  -4   4   22.49    1.25
  -5   4  -4   25.35    1.43
   5   4   4   23.47    1.28
   5   4   4   22.41    1.28
  -5   4  -4   24.37    1.41
   6  -4   4   85.84    4.14
   6  -4   4   83.90    4.12
  -6  -4  -4   82.23    4.32
   6   4   4   80.98    4.17
  -6   4  -4   83.68    4.29
  -6   4  -4   90.03    4.36
   6   4   4   89.01    4.18
   7  -4   4   57.50    2.85
  -7  -4  -4   57.15    3.09
  -7   4  -4   55.43    3.09
   7   4   4   54.96    2.88
  -7   4  -4   56.97    3.00
   7   4   4   58.45    2.89
  -8  -4  -4   89.69    4.66
   8  -4   4   83.02    4.37
  -8   4  -4   90.51    4.53
  -8   4  -4   91.44    4.71
   8   4   4   88.11    4.43
   8   4   4   94.13    4.44
  -9  -4  -4   16.68    1.26
   9  -4   4   15.93    1.00
  -9   4  -4   15.86    1.30
   9   4   4   14.61    1.02
   9   4   4   14.20    1.00
  10  -4   4   70.05    3.46
 -10  -4  -4   62.87    3.75
  10   4   4   68.16    3.49
  10   4   4   68.40    3.49
 -10   4  -4   68.00    3.85
 -11  -4  -4    8.13    1.09
  11  -4   4    8.09    0.73
  11   4   4    7.81    0.76
 -11   4  -4    7.55    1.06
 -12  -5   4    0.41    0.33
  12  -5  -4    0.44    0.35
 -12   5   4    0.94    0.61
  12   5  -4    1.03    0.40
  11  -5  -4    0.27    0.27
 -11  -5   4   -0.09    0.25
 -11   5   4   -0.03    0.43
  11   5  -4    0.07    0.26
 -10  -5   4    5.25    0.60
  10  -5  -4    5.58    0.55
 -10   5   4    3.59    0.78
 -10   5   4    4.18    0.59
  10   5  -4    5.64    0.58
  -9  -5   4    0.45    0.27
   9  -5  -4    0.20    0.22
   9   5  -4    0.39    0.25
  -9   5   4    0.46    0.40
  -9   5   4    0.39    0.27
   8  -5  -4    4.99    0.46
  -8  -5   4    4.51    0.50
   8   5  -4    4.66    0.50
  -8   5   4    5.58    0.82
  -8   5   4    4.80    0.60
  -7  -5   4    0.09    0.19
   7  -5  -4    0.09    0.16
  -7   5   4    0.52    0.37
  -7   5   4    0.23    0.21
   7   5  -4    0.10    0.18
   6  -5  -4   18.60    1.06
  -6  -5   4   18.64    1.13
   6   5  -4   17.85    1.08
  -6   5   4   19.85    1.42
  -6   5   4   17.85    1.16
   5  -5  -4   26.59    1.42
  -5  -5   4   27.19    1.50
   5   5  -4   26.87    1.46
   5   5  -4   28.26    1.47
  -5   5   4   25.77    1.52
  -5   5   4   24.11    1.72
   4  -5  -4    0.33    0.15
  -4  -5   4    0.26    0.18
  -4   5   4    0.20    0.25
   4   5  -4    0.27    0.17
  -4   5   4    0.52    0.20
   3  -5  -4    0.19    0.12
  -3  -5   4    0.44    0.20
  -3   5   4   -0.02    0.21
   3   5  -4    0.36    0.16
  -3   5   4    0.30    0.17
   3   5  -4    0.12    0.17
   2  -5  -4   10.08    0.62
  -2  -5   4   10.09    0.70
   2   5  -4   10.07    0.72
  -2   5   4   11.13    0.88
  -2   5   4    9.49    0.69
   2   5  -4    9.87    0.67
  -1  -5   4    5.94    0.53
   1  -5  -4    6.79    0.43
   1  -5  -4    5.84    0.43
  -1   5   4    6.06    0.63
   1   5  -4    6.18    0.55
  -1   5   4    6.74    0.52
   1   5  -4    5.74    0.48
   0  -5   4    5.62    0.51
   0   5   4    6.29    0.46
   0   5   4    5.58    0.47
   0   5   4    5.27    0.40
   0   5  -4    5.13    0.44
   0   5   4    6.76    0.62
   0   5  -4    5.77    0.54
   1  -5   4   24.86    1.41
   1  -5   4   23.10    1.32
   1   5   4   26.83    1.52
   1   5   4   26.16    1.36
   1   5   4   24.13    1.30
  -1   5  -4   24.08    1.45
   1   5   4   25.01    1.35
   2  -5   4   30.66    1.76
   2  -5   4   31.12    1.70
   2   5   4   33.58    1.74
   2   5   4   31.73    1.70
   2   5   4   37.61    1.92
  -2   5  -4   33.84    1.87
   2   5   4   33.57    1.73
   3  -5   4    0.26    0.17
   3  -5   4    0.01    0.13
  -3  -5  -4    0.35    0.20
   3   5   4    0.42    0.18
  -3   5  -4    0.17    0.22
   3   5   4    0.32    0.16
   3   5   4    0.16    0.15
   4  -5   4   16.76    0.99
  -4  -5  -4   17.43    1.10
   4  -5   4   16.17    0.96
  -4   5  -4   16.60    1.12
   4   5   4   16.96    1.01
   4   5   4   16.45    0.99
  -5  -5  -4    1.06    0.30
   5  -5   4    1.52    0.27
   5  -5   4    1.02    0.23
   5   5   4    1.23    0.26
  -5   5  -4    1.43    0.37
   5   5   4    0.90    0.24
   6  -5   4    2.75    0.37
  -6  -5  -4    3.85    0.56
   6   5   4    2.53    0.38
  -6   5  -4    2.70    0.48
   6   5   4    2.37    0.36
  -7  -5  -4    4.03    0.60
   7  -5   4    3.49    0.41
  -7   5  -4    2.27    0.46
   7   5   4    2.99    0.41
   7   5   4    3.11    0.41
  -8  -5  -4    0.70    0.36
   8  -5   4    0.63    0.26
  -8   5  -4    1.06    0.38
   8   5   4    0.24    0.22
   8   5   4    0.66    0.27
   9  -5   4    2.48    0.42
  -9  -5  -4    2.20    0.54
   9   5   4    2.61    0.42
   9   5   4    2.02    0.41
 -10  -5  -4    2.16    0.59
  10  -5   4    2.06    0.41
  10   5   4    1.72    0.40
  11  -6  -4   58.74    3.07
 -11  -6   4   60.17    3.14
 -11   6   4   58.65    3.62
  11   6  -4   55.17    3.08
 -10  -6   4   66.72    3.47
  10  -6  -4   66.30    3.40
 -10   6   4   63.78    3.54
  10   6  -4   67.84    3.45
 -10   6   4   67.15    3.95
   9  -6  -4   20.23    1.24
  -9  -6   4   20.65    1.32
  -9   6   4   20.40    1.40
   9   6  -4   20.59    1.28
  -9   6   4   19.78    1.66
  -8  -6   4   67.92    3.56
   8  -6  -4   71.64    3.50
  -8   6   4   70.65    3.97
  -8   6   4   67.15    3.64
   8   6  -4   69.90    3.53
   7  -6  -4   21.30    1.23
  -7  -6   4   22.05    1.32
  -7   6   4   21.77    1.39
   7   6  -4   19.08    1.24
  -7   6   4   21.99    1.64
   6  -6  -4   57.86    2.88
  -6  -6   4   52.54    2.94
   6   6  -4   55.40    2.91
  -6   6   4   62.71    3.35
  -6   6   4   58.31    3.04
   5  -6  -4   98.16    4.84
  -5  -6   4   92.23    4.91
  -5   6   4  111.72    5.32
   5   6  -4   99.26    4.90
  -5   6   4  101.27    5.01
  -4  -6   4   68.21    3.58
   4  -6  -4   70.03    3.50
  -4   6   4   78.53    3.92
   4   6  -4   75.34    3.60
   4   6  -4   69.59    3.55
  -4   6   4   66.33    3.62
  -3  -6   4   55.96    3.02
   3  -6  -4   57.54    2.93
  -3   6   4   53.94    3.04
  -3   6   4   64.13    3.29
   3   6  -4   61.41    3.00
   3   6  -4   62.83    3.06
  -2  -6   4  172.73    8.44
   2  -6  -4  168.66    8.34
   2   6  -4  162.96    8.45
  -2   6   4  180.56    8.47
   2   6  -4  170.69    8.39
  -2   6   4  202.55    8.70
   1  -6  -4   71.42    3.59
  -1  -6   4   69.54    3.69
   1  -6  -4   74.33    3.56
   1   6  -4   71.48    3.73
  -1   6   4   85.99    3.89
  -1   6   4   71.99    3.68
   1   6  -4   70.31    3.64
   0  -6  -4  142.88    6.81
   0  -6   4  141.10    6.93
   0   6   4  138.43    6.87
   0   6   4  137.12    6.89
   0   6  -4  139.70    6.88
   0   6   4  165.62    7.11
   0   6  -4  138.58    6.98
   1  -6   4   70.60    3.51
   1  -6   4   66.64    3.41
  -1  -6  -4   66.22    3.39
  -1   6  -4   66.29    3.57
   1   6   4   68.78    3.46
   1   6   4   69.82    3.47
   1   6   4   76.27    3.62
   2  -6   4   91.80    4.66
  -2  -6  -4   94.60    4.68
  -2  -6  -4   95.93    4.60
   2  -6   4   97.41    4.60
   2   6   4   97.71    4.65
   2   6   4  100.09    4.64
   2   6   4   90.58    4.58
  -2   6  -4   87.17    4.75
   3  -6   4   19.07    1.07
  -3  -6  -4   17.97    1.14
   3  -6   4   15.39    1.07
  -3   6  -4   17.22    1.21
   3   6   4   18.78    1.07
   3   6   4   18.98    1.11
   4  -6   4   98.96    4.68
  -4  -6  -4   96.52    4.78
   4   6   4   94.05    4.68
   4   6   4   93.69    4.71
  -4   6  -4   95.37    4.88
  -5  -6  -4   27.82    1.68
   5  -6   4   28.62    1.57
   5   6   4   27.75    1.60
   5   6   4   28.34    1.59
  -5   6  -4   29.36    1.78
   6  -6   4   45.25    2.30
  -6  -6  -4   43.15    2.44
  -6   6  -4   43.75    2.50
   6   6   4   45.69    2.34
   6   6   4   40.06    2.29
  -7  -6  -4   55.80    3.11
   7  -6   4   58.42    2.94
  -7   6  -4   55.14    3.14
   7   6   4   55.12    2.96
   7   6   4   60.96    2.99
   8  -6   4   91.69    4.42
  -8  -6  -4   80.46    4.58
   8   6   4   92.84    4.46
  -8   6  -4   86.31    4.61
   8   6   4   89.81    4.45
  -9  -6  -4   24.97    2.32
   9  -6   4   27.21    1.63
   9   6   4   28.14    1.68
   9   6   4   28.79    1.67
  10  -7  -4   41.81    2.55
 -10   7   4   38.33    2.35
  10   7  -4   35.90    2.53
  -9  -7   4  132.13    6.50
   9  -7  -4  132.27    6.40
   9   7  -4  136.16    6.46
  -9   7   4  123.10    6.60
  -8  -7   4   35.72    2.09
   8  -7  -4   36.02    2.00
   8   7  -4   37.12    2.06
  -8   7   4   37.88    2.23
   7  -7  -4   59.98    3.14
  -7  -7   4   62.75    3.24
  -7   7   4   59.32    3.34
   7   7  -4   65.01    3.21
  -6  -7   4   48.19    2.78
   6  -7  -4   55.01    2.73
   6   7  -4   55.74    2.78
  -6   7   4   52.65    2.92
   5  -7  -4   27.95    1.54
  -5  -7   4   25.50    1.61
  -5   7   4   27.38    1.71
   5   7  -4   29.64    1.61
   4  -7  -4   58.34    2.96
  -4  -7   4   55.67    3.05
   4   7  -4   59.15    3.06
  -4   7   4   61.59    3.15
   4   7  -4   58.06    3.02
   3  -7  -4   44.80    2.41
  -3  -7   4   46.13    2.52
   3   7  -4   44.63    2.47
   3   7  -4   49.47    2.56
  -3   7   4   50.13    2.60
  -2  -7   4   85.11    4.50
   2  -7  -4   87.17    4.41
   2   7  -4   91.65    4.48
   2   7  -4   92.58    4.56
  -2   7   4   94.34    4.57
  -1  -7   4  165.90    7.96
   1  -7  -4  163.19    7.85
   1   7  -4  159.88    7.90
  -1   7   4  166.44    7.97
   1   7  -4  165.65    8.01
   0  -7  -4   46.83    2.56
   0  -7   4   53.63    2.63
   0  -7   4   43.20    2.66
   0  -7  -4   50.02    2.59
   0   7   4   53.15    2.70
   0   7  -4   50.30    2.76
   0   7   4   58.10    2.70
   0   7  -4   52.46    2.67
   1  -7   4  170.79    8.03
  -1  -7  -4  163.16    7.91
   1  -7   4  165.34    7.93
   1   7   4  169.44    8.00
  -1   7  -4  164.11    8.11
   1   7   4  160.22    7.97
   2  -7   4   27.17    1.59
   2  -7   4   28.73    1.55
  -2  -7  -4   27.03    1.53
   2   7   4   27.51    1.59
   2   7   4   28.51    1.59
  -2   7  -4   24.87    1.69
   3  -7   4  100.79    4.90
  -3  -7  -4  104.14    4.93
  -3   7  -4   99.34    5.13
   3   7   4   95.56    4.95
  -4  -7  -4    6.57    0.62
   4  -7   4    7.10    0.62
   4   7   4    8.41    0.68
  -4   7  -4    6.50    0.75
   5  -7   4   95.01    4.54
  -5  -7  -4   94.76    4.59
   5   7   4   90.60    4.59
  -5   7  -4   85.67    4.76
   6  -7   4   50.46    2.56
  -6  -7  -4   49.91    2.60
   6   7   4   47.79    2.59
  -6   7  -4   43.77    2.75
  -7  -7  -4   82.18    4.04
   7  -7   4   81.77    3.98
   7   7   4   76.58    4.00
  -7   7  -4   72.32    4.18
   8  -7   4   47.76    2.46
  -8  -7  -4   47.55    2.53
   8   7   4   42.78    2.46
  -8   7  -4   41.35    2.64
   8  -8  -4    0.60    0.30
  -8  -8   4    0.55    0.35
  -8   8   4    0.30    0.41
   8   8  -4    0.59    0.34
   7  -8  -4    1.47    0.35
  -7  -8   4    1.06    0.37
   7   8  -4    1.84    0.42
  -7   8   4    1.71    0.51
   6  -8  -4    4.41    0.55
  -6  -8   4    4.29    0.63
   6   8  -4    5.27    0.63
  -6   8   4    4.36    0.70
   5  -8  -4    1.81    0.36
  -5  -8   4    1.03    0.35
   5   8  -4    1.08    0.34
  -5   8   4    1.10    0.43
  -4  -8   4    1.87    0.43
   4  -8  -4    1.73    0.35
   4   8  -4    1.43    0.36
  -4   8   4    2.03    0.50
   3  -8  -4   27.46    1.58
  -3  -8   4   27.17    1.69
   3   8  -4   28.10    1.66
   3   8  -4   29.74    1.74
  -3   8   4   28.13    1.77
   2  -8  -4    1.34    0.30
  -2  -8   4    1.74    0.40
   2   8  -4    1.28    0.39
   2   8  -4    1.50    0.35
  -2   8   4    1.34    0.40
   1  -8  -4    4.88    0.55
  -1  -8   4    5.51    0.63
   1   8  -4    5.47    0.70
  -1   8   4    5.13    0.63
   1   8  -4    4.28    0.55
   0  -8  -4   35.21    1.93
   0  -8   4   32.89    2.01
   0  -8   4   38.56    1.98
   0   8   4   35.10    2.04
   0   8  -4   34.66    2.11
   1  -8   4    3.06    0.45
   1  -8   4    3.19    0.71
  -1   8  -4    2.71    0.55
   1   8   4    2.60    0.46
   1   8   4    2.05    0.44
  -2  -8  -4   22.91    1.43
   2  -8   4   25.50    1.45
   2   8   4   25.29    1.51
  -2   8  -4   23.16    1.62
  -3  -8  -4    0.97    0.32
   3  -8   4    1.44    0.35
   3   8   4    1.27    0.36
  -3   8  -4    2.01    0.54
   4  -8   4    0.80    0.31
  -4  -8  -4    0.51    0.31
  -4   8  -4    1.92    0.55
   4   8   4    0.74    0.32
  -5  -8  -4    2.77    0.49
   5  -8   4    1.97    0.41
   5   8   4    2.30    0.46
  -5   8  -4    1.97    0.57
   6  -8   4    0.87    0.35
  -6  -8  -4    1.74    0.41
  -6   8  -4    0.58    0.42
   6   8   4    0.71    0.35
   7  -8   4    0.13    0.30
  -7  -8  -4    0.47    0.38
   7   8   4   -0.14    0.29
  -7   8  -4    0.37    0.42
  -6  -9   4   36.49    2.24
   6  -9  -4   39.41    2.14
  -6   9   4   35.91    2.45
   6   9  -4   39.95    2.27
   5  -9  -4   17.38    1.12
  -5  -9   4   15.30    1.21
   5   9  -4   16.27    1.18
  -5   9   4   15.34    1.31
   4  -9  -4   14.43    1.04
  -4  -9   4   15.32    1.17
   4   9  -4   15.84    1.13
  -4   9   4   14.55    1.23
   3  -9  -4   17.00    1.12
  -3  -9   4   17.40    1.23
  -3   9   4   17.65    1.32
   3   9  -4   15.90    1.17
   3   9  -4   14.96    1.39
   2  -9  -4   15.82    1.04
  -2  -9   4   15.14    1.14
  -2   9   4   12.57    1.14
   2   9  -4   14.01    1.16
   2   9  -4   15.57    1.11
  -1  -9   4   65.64    3.11
  -1  -9   4   54.91    3.13
   1  -9  -4   59.60    3.05
   1   9  -4   55.47    3.21
   1   9  -4   55.96    3.10
  -1   9   4   57.84    3.21
   0  -9   4   10.42    0.83
   0  -9  -4    9.92    0.81
   0   9  -4    8.36    0.95
   0   9   4   10.81    0.95
  -1  -9  -4   34.94    1.91
   1  -9   4   35.69    1.93
  -1   9  -4   29.84    2.06
   1   9   4   31.74    2.00
   2  -9   4   14.98    1.01
  -2   9  -4   10.51    1.12
   2   9   4   13.51    1.05
   3  -9   4   21.12    1.30
  -3   9  -4   17.58    1.47
   3   9   4   19.16    1.33
   4  -9   4   17.15    1.14
  -4  -9  -4   15.49    1.13
  -4   9  -4   14.21    1.32
   4   9   4   15.14    1.16
 -13   0   5   -0.11    0.42
  13   0  -5    0.32    0.26
  12   0  -5    0.22    0.23
 -12   0   5   -0.17    0.31
 -11   0   5    0.08    0.36
  11   0  -5   -0.15    0.15
  10   0  -5   -0.10    0.16
 -10   0   5    0.11    0.30
   9   0  -5    0.08    0.13
  -9   0   5    0.04    0.25
  -8   0   5    0.37    0.26
   8   0  -5   -0.01    0.11
  -8   0   5    0.30    0.14
   7   0  -5   -0.02    0.08
   7   0  -5    0.10    0.11
  -7   0   5    0.08    0.18
  -7   0   5    0.14    0.10
   6   0  -5    0.25    0.10
   6   0  -5    0.17    0.10
  -6   0   5    0.30    0.21
  -6   0   5    0.15    0.10
  -5   0   5   -0.27    0.16
   5   0  -5   -0.30    0.08
   5   0  -5   -0.36    0.07
  -5   0   5    0.02    0.11
  -4   0   5   -0.21    0.08
   4   0  -5   -0.02    0.08
   4   0  -5   -0.18    0.07
  -4   0   5   -0.25    0.13
  -3   0   5    0.61    0.21
   3   0  -5    0.18    0.09
  -3   0   5   -0.16    0.07
   2   0  -5   -0.29    0.04
   2   0  -5   -0.35    0.07
  -2   0   5   -0.21    0.08
  -2   0   5   -0.19    0.14
   1   0  -5   -0.28    0.03
   1   0  -5   -0.35    0.07
  -1   0   5   -0.36    0.07
  -1   0   5   -0.36    0.12
   0   0   5    0.33    0.18
   0   0  -5   -0.14    0.07
   0   0   5   -0.20    0.07
   1   0   5   -0.10    0.07
   1   0   5   -0.24    0.11
   2   0   5   -0.37    0.09
   2   0   5   -0.26    0.06
  -2   0  -5   -0.48    0.11
  -3   0  -5   -0.08    0.13
  -3   0  -5    0.04    0.11
   3   0   5   -0.05    0.06
   3   0   5    0.08    0.10
  -4   0  -5    1.85    0.31
  -4   0  -5    0.56    0.15
   4   0   5    0.11    0.10
  -5   0  -5    0.26    0.19
  -5   0  -5    0.15    0.11
   5   0   5    0.16    0.10
   5   0   5   -0.02    0.11
   6   0   5    0.63    0.18
   6   0   5    0.14    0.11
  -6   0  -5    0.69    0.27
   7   0   5    0.16    0.14
   7   0   5    0.02    0.14
  -7   0  -5   -0.04    0.21
   8   0   5    0.53    0.20
  -8   0  -5    0.56    0.33
   8   0   5    0.06    0.15
   9   0   5    0.14    0.20
  -9   0  -5    0.13    0.34
   9   0   5    0.09    0.18
  10   0   5    0.30    0.26
 -10   0  -5    0.28    0.37
  10   0   5    0.71    0.27
  11   0   5    0.03    0.24
 -11   0  -5   -0.10    0.42
 -13  -1   5   96.72    5.33
  13  -1  -5   93.56    4.79
  13   1  -5   97.09    4.81
 -13   1   5  100.70    5.43
 -12  -1   5   13.93    1.31
  12  -1  -5   14.65    0.94
  12   1  -5   14.36    0.94
 -12   1   5   13.21    1.33
  11  -1  -5  141.17    6.99
 -11  -1   5  147.71    7.42
  11   1  -5  147.16    7.01
 -11   1   5  147.79    7.49
 -10  -1   5    3.25    0.39
 -10  -1   5    2.16    0.52
  10  -1  -5    2.18    0.32
  10   1  -5    2.84    0.36
 -10   1   5    4.13    0.71
  -9  -1   5  175.52    7.81
   9  -1  -5  162.56    7.78
  -9  -1   5  163.07    8.08
  -9   1   5  156.96    8.13
   9   1  -5  159.99    7.79
  -8  -1   5   15.29    1.11
   8  -1  -5   14.88    0.86
  -8  -1   5   17.11    0.93
   8  -1  -5   15.39    0.90
  -8   1   5   15.34    1.15
   8   1  -5   16.04    0.91
   7  -1  -5  199.10    9.10
  -7  -1   5  197.18    9.12
   7  -1  -5  186.62    9.07
  -7  -1   5  179.98    9.29
   7   1  -5  195.16    9.06
  -7   1   5  185.51    9.37
  -7   1   5  209.08    9.06
   7   1  -5  191.07    9.10
  -6  -1   5    2.96    0.28
   6  -1  -5    3.23    0.26
   6  -1  -5    2.91    0.26
  -6  -1   5    2.44    0.37
  -6   1   5    2.96    0.24
   6   1  -5    3.06    0.27
   6   1  -5    3.05    0.26
  -6   1   5    2.40    0.42
   5  -1  -5  428.05   19.29
  -5  -1   5  410.36   19.31
  -5  -1   5  429.17   19.45
   5  -1  -5  415.03   19.27
   5   1  -5  420.60   19.28
  -5   1   5  375.43   19.25
   5   1  -5  403.99   19.28
  -5   1   5  429.84   19.54
  -4  -1   5   24.49    1.26
   4  -1  -5   23.89    1.22
   4  -1  -5   24.02    1.19
  -4  -1   5   25.04    1.34
  -4   1   5   22.21    1.18
  -4   1   5   24.35    1.42
   4   1  -5   24.60    1.23
   4   1  -5   23.10    1.20
  -3  -1   5  189.19    9.56
   3  -1  -5  205.35    9.52
   3  -1  -5  203.75    9.47
  -3  -1   5  205.28    9.62
  -3   1   5  199.72    9.72
   3   1  -5  205.39    9.54
  -3   1   5  209.21    9.48
   3   1  -5  207.44    9.49
  -2  -1   5    5.34    0.43
  -2  -1   5    5.08    0.40
   2  -1  -5    5.97    0.37
   2  -1  -5    6.11    0.31
  -2   1   5    5.45    0.51
   2   1  -5    6.16    0.40
  -2   1   5    6.26    0.34
   2   1  -5    6.01    0.33
   1  -1  -5  123.60    5.87
   1  -1  -5  135.13    5.95
  -1  -1   5  119.09    5.98
  -1  -1   5  122.18    6.03
  -1   1   5  127.60    5.91
   1   1  -5  130.00    5.89
   1   1  -5  133.03    5.99
  -1   1   5  116.57    6.11
   0  -1   5  201.13    9.91
   0  -1   5  229.90    9.86
   0  -1  -5  198.72    9.76
   0  -1  -5  212.37    9.82
   0   1   5  210.55    9.80
   0   1  -5  211.54    9.77
   0   1   5  205.03   10.00
   1  -1   5  208.46    9.02
   1  -1   5  187.65    8.92
  -1  -1  -5  185.30    8.97
   1   1   5  209.62    8.93
  -1   1  -5  174.56    9.02
   1   1   5  195.06    9.17
   1   1   5  191.09    8.98
  -1   1  -5  182.22    9.03
   2  -1   5    0.67    0.09
   2  -1   5    0.40    0.12
  -2  -1  -5    0.82    0.20
  -2  -1  -5    0.71    0.13
   2   1   5    0.73    0.10
  -2   1  -5    0.70    0.17
   2   1   5    0.53    0.12
  -2   1  -5    0.63    0.16
   3  -1   5  374.55   17.86
  -3  -1  -5  366.57   17.98
   3  -1   5  390.72   17.80
  -3   1  -5  354.80   17.89
   3   1   5  403.11   17.87
   3   1   5  419.22   17.87
  -3   1  -5  369.36   17.95
  -4  -1  -5   37.05    1.97
   4  -1   5   38.10    1.77
  -4  -1  -5   30.48    1.78
   4  -1   5   37.47    1.83
  -4   1  -5   39.68    1.97
  -4   1  -5   35.94    1.86
   4   1   5   35.47    1.77
   4   1   5   35.34    1.82
   5  -1   5  253.92   11.61
  -5  -1  -5  222.79   11.55
  -5  -1  -5  246.32   11.78
   5  -1   5  258.46   11.56
  -5   1  -5  237.04   11.63
   5   1   5  253.78   11.56
  -5   1  -5  252.00   11.78
   5   1   5  251.15   11.61
   6  -1   5    5.13    0.42
   6  -1   5    5.43    0.40
  -6  -1  -5    5.23    0.57
  -6   1  -5    4.86    0.55
  -6   1  -5    4.70    0.42
   6   1   5    4.92    0.43
   6   1   5    5.05    0.38
   7  -1   5  144.95    7.04
   7  -1   5  149.57    7.08
  -7  -1  -5  146.54    7.33
   7   1   5  146.73    7.09
   7   1   5  151.07    7.05
  -7   1  -5  150.42    7.35
  -8  -1  -5   28.28    1.80
   8  -1   5   28.42    1.49
   8  -1   5   26.84    1.51
   8   1   5   28.24    1.49
   8   1   5   27.40    1.53
  -8   1  -5   26.01    1.77
   9  -1   5   96.27    4.81
   9  -1   5  102.15    4.85
  -9  -1  -5   99.55    5.20
   9   1   5   97.74    4.83
   9   1   5   97.18    4.86
  -9   1  -5  101.21    5.24
 -10  -1  -5    0.25    0.39
  10  -1   5    0.25    0.23
  10  -1   5    0.35    0.24
  10   1   5    0.36    0.24
 -10   1  -5    0.44    0.39
 -11  -1  -5   56.00    3.36
 -11   1  -5   56.47    3.36
  11   1   5   54.29    2.91
 -13  -2   5    9.05    1.05
  13  -2  -5    8.57    0.71
 -13   2   5    9.79    1.33
  13   2  -5    8.14    0.74
 -12  -2   5  140.51    7.28
  12  -2  -5  135.69    6.84
  12   2  -5  142.51    6.88
 -12   2   5  150.20    7.48
  11  -2  -5    1.26    0.30
 -11  -2   5    1.10    0.43
 -11  -2   5    1.35    0.31
 -11   2   5    1.47    0.52
  11   2  -5    1.61    0.32
 -10  -2   5   78.90    3.94
 -10  -2   5   76.69    4.20
  10  -2  -5   78.33    3.91
 -10   2   5   81.77    4.36
  10   2  -5   81.11    3.93
  -9  -2   5    4.13    0.59
  -9  -2   5    3.10    0.39
   9  -2  -5    4.16    0.39
  -9   2   5    3.17    0.37
  -9   2   5    4.92    0.75
   9   2  -5    3.81    0.40
   8  -2  -5  184.49    8.98
  -8  -2   5  194.42    9.22
  -8  -2   5  184.45    9.02
  -8   2   5  188.91    9.37
   8   2  -5  194.48    9.01
  -8   2   5  194.66    9.02
  -7  -2   5   19.82    1.32
  -7  -2   5   24.69    1.24
   7  -2  -5   22.38    1.18
  -7   2   5   21.93    1.47
  -7   2   5   22.49    1.22
   7   2  -5   22.01    1.20
   6  -2  -5  264.79   13.15
  -6  -2   5  270.21   13.31
  -6  -2   5  292.98   13.22
  -6   2   5  279.85   13.48
   6   2  -5  299.49   13.18
  -6   2   5  278.57   13.21
   6   2  -5  282.84   13.18
   5  -2  -5    0.57    0.13
  -5  -2   5    0.95    0.20
  -5  -2   5    0.36    0.16
   5   2  -5    0.63    0.15
  -5   2   5    0.30    0.14
   5   2  -5    0.61    0.15
  -5   2   5    0.87    0.29
  -4  -2   5  509.94   23.82
   4  -2  -5  494.30   23.82
  -4  -2   5  504.35   23.80
  -4   2   5  540.49   24.04
   4   2  -5  525.85   23.78
   4   2  -5  489.15   23.74
  -4   2   5  505.50   23.78
   3  -2  -5   92.60    4.31
  -3  -2   5   90.74    4.40
  -3  -2   5   95.52    4.43
  -3   2   5   97.13    4.40
   3   2  -5   82.56    4.37
  -3   2   5   88.49    4.60
   3   2  -5   89.30    4.34
  -3   2   5   93.60    4.27
   2  -2  -5  531.34   23.55
  -2  -2   5  497.14   23.63
  -2  -2   5  484.68   23.58
   2   2  -5  534.03   23.66
  -2   2   5  464.81   23.77
  -2   2   5  554.52   23.72
  -2   2   5  475.52   23.60
  -1  -2   5    0.91    0.20
  -1  -2   5    0.76    0.16
   1  -2  -5    0.91    0.10
   1  -2  -5    1.01    0.16
   1   2  -5    0.74    0.17
   1   2  -5    1.32    0.14
  -1   2   5    1.01    0.12
  -1   2   5    1.59    0.32
   0  -2  -5  264.04   12.08
   0  -2   5  257.38   12.15
   0   2  -5  247.65   12.14
   0   2   5  260.54   12.30
   0   2   5  276.07   12.04
   0   2  -5  249.66   12.05
   0   2  -5  252.51   12.07
   0   2   5  258.00   12.06
   1  -2   5    0.33    0.10
   1  -2   5    1.14    0.20
  -1  -2  -5    0.31    0.13
  -1   2  -5    0.28    0.13
   1   2   5    0.41    0.11
  -1   2  -5    0.20    0.14
   1   2   5    0.34    0.12
   1   2   5    0.74    0.24
   2  -2   5  221.82   10.76
   2  -2   5  242.42   10.85
  -2  -2  -5  225.93   10.78
   2   2   5  230.28   11.02
   2   2   5  242.96   10.78
   2   2   5  220.51   10.80
  -2   2  -5  231.65   10.86
  -2   2  -5  229.64   10.90
   3  -2   5    0.18    0.09
  -3  -2  -5    0.40    0.11
  -3  -2  -5    0.10    0.15
   3  -2   5    0.12    0.12
   3   2   5    0.08    0.11
  -3   2  -5    0.18    0.14
  -3   2  -5    0.18    0.15
   4  -2   5  332.51   15.63
   4  -2   5  347.29   15.58
  -4  -2  -5  313.01   15.76
  -4  -2  -5  307.96   15.57
   4   2   5  327.33   15.63
  -4   2  -5  350.02   15.73
  -4   2  -5  340.50   15.75
   4   2   5  352.79   15.60
   5  -2   5    4.29    0.34
   5  -2   5    4.41    0.37
  -5  -2  -5    4.57    0.51
  -5   2  -5    4.24    0.48
   5   2   5    3.70    0.35
   5   2   5    4.42    0.34
  -5   2  -5    4.39    0.43
   6  -2   5  313.42   14.15
  -6  -2  -5  292.58   14.39
   6  -2   5  286.19   14.16
   6   2   5  299.85   14.19
  -6   2  -5  313.17   14.40
   6   2   5  304.88   14.16
  -6   2  -5  303.69   14.24
   7  -2   5    4.69    0.40
  -7  -2  -5    4.35    0.61
   7  -2   5    4.05    0.40
   7   2   5    3.99    0.42
   7   2   5    4.22    0.40
  -7   2  -5    4.43    0.63
   8  -2   5  237.05   11.48
   8  -2   5  238.20   11.50
  -8  -2  -5  246.07   11.82
   8   2   5  244.59   11.50
   8   2   5  247.36   11.54
  -8   2  -5  246.94   11.84
   9  -2   5   19.04    1.13
  -9  -2  -5   18.70    1.43
   9  -2   5   17.13    1.10
   9   2   5   18.93    1.16
   9   2   5   18.18    1.12
  -9   2  -5   20.55    1.50
  10  -2   5   89.43    4.40
 -10  -2  -5   87.31    4.79
 -10   2  -5   87.75    4.83
  10   2   5   89.96    4.45
 -11  -2  -5    6.49    0.99
  11   2   5    5.06    0.61
 -11   2  -5    5.71    0.98
  13  -3  -5    6.79    0.65
 -13  -3   5    5.96    0.94
 -13   3   5    4.56    0.96
  13   3  -5    6.29    0.67
  12  -3  -5    0.73    0.29
 -12  -3   5    0.22    0.36
 -12  -3   5    0.24    0.29
  12   3  -5    0.66    0.30
 -12   3   5    0.74    0.55
 -11  -3   5    4.41    0.72
 -11  -3   5    4.56    0.54
  11  -3  -5    4.28    0.46
  11   3  -5    4.65    0.49
 -11   3   5    3.31    0.74
 -10  -3   5    0.71    0.34
  10  -3  -5    0.65    0.23
 -10  -3   5    0.44    0.23
  10   3  -5    0.34    0.21
 -10   3   5    0.27    0.35
   9  -3  -5   26.31    1.38
  -9  -3   5   26.32    1.43
  -9  -3   5   24.14    1.55
  -9   3   5   24.99    1.41
  -9   3   5   24.31    1.74
   9   3  -5   22.37    1.37
   8  -3  -5    0.61    0.18
  -8  -3   5    1.16    0.30
  -8  -3   5    0.70    0.22
  -8   3   5    0.76    0.36
  -8   3   5    1.11    0.25
   8   3  -5    0.85    0.21
  -7  -3   5    5.38    0.47
  -7  -3   5    5.24    0.52
   7  -3  -5    5.67    0.41
  -7   3   5    4.60    0.67
  -7   3   5    5.40    0.47
   7   3  -5    5.79    0.45
   6  -3  -5    0.69    0.16
  -6  -3   5    0.38    0.18
  -6  -3   5    0.19    0.15
  -6   3   5    0.14    0.24
   6   3  -5    0.39    0.15
   6   3  -5    0.17    0.12
  -6   3   5    0.05    0.13
  -5  -3   5   11.80    0.76
  -5  -3   5   11.20    0.75
   5  -3  -5   12.22    0.69
   5   3  -5   11.85    0.72
  -5   3   5   11.87    0.75
   5   3  -5   12.54    0.73
  -5   3   5   11.95    0.98
   4  -3  -5    0.12    0.10
  -4  -3   5    0.06    0.12
  -4  -3   5    0.12    0.15
  -4   3   5   -0.04    0.12
  -4   3   5    0.28    0.23
   4   3  -5    0.06    0.12
   4   3  -5    0.13    0.12
  -3  -3   5   52.81    2.65
  -3  -3   5   52.77    2.57
   3  -3  -5   52.50    2.54
  -3   3   5   57.25    2.90
   3   3  -5   51.17    2.62
   3   3  -5   52.93    2.57
  -3   3   5   48.81    2.61
  -3   3   5   53.44    2.48
  -2  -3   5   63.18    3.09
   2  -3  -5   65.04    3.08
  -2  -3   5   70.28    3.24
   2   3  -5   66.47    3.12
  -2   3   5   61.37    3.05
  -2   3   5   62.39    3.39
   2   3  -5   62.72    3.18
   1  -3  -5  116.69    5.77
  -1  -3   5  127.84    5.93
   1   3  -5  120.31    5.73
  -1   3   5  135.59    5.87
   1   3  -5  114.10    5.80
  -1   3   5  121.04    5.76
   1   3  -5  121.29    5.90
  -1   3   5  125.41    6.08
   0  -3   5    0.29    0.18
   0   3   5    0.16    0.10
   0   3  -5    0.21    0.11
   0   3  -5    0.54    0.11
   0   3   5    0.21    0.21
   0   3   5    0.49    0.12
   0   3  -5    0.50    0.20
   0   3   5    0.18    0.13
  -1  -3  -5   15.60    0.83
   1  -3   5   14.33    0.79
   1   3   5   16.19    0.82
  -1   3  -5   14.13    0.80
   1   3   5   14.90    1.02
  -1   3  -5   14.41    0.92
   1   3   5   14.18    0.80
  -2  -3  -5    7.13    0.48
   2  -3   5    7.72    0.47
   2  -3   5    8.13    0.55
   2   3   5    7.61    0.66
  -2   3  -5    8.04    0.52
   2   3   5    8.11    0.50
   2   3   5    7.70    0.49
  -2   3  -5    7.74    0.60
   3  -3   5    8.93    0.54
  -3  -3  -5    8.98    0.54
  -3  -3  -5    8.88    0.69
   3  -3   5    8.37    0.59
   3   3   5    9.57    0.57
  -3   3  -5    9.97    0.64
  -3   3  -5    9.24    0.69
  -4  -3  -5   11.77    0.84
  -4  -3  -5   10.94    0.63
   4  -3   5   10.91    0.66
   4  -3   5   11.73    0.71
   4   3   5   11.19    0.70
  -4   3  -5   12.61    0.80
  -4   3  -5   12.07    0.81
   4   3   5   10.99    0.68
  -5  -3  -5  100.39    5.08
   5  -3   5  100.53    4.90
   5  -3   5  100.55    4.87
  -5   3  -5  102.97    5.02
   5   3   5   99.97    4.91
   5   3   5  103.06    4.90
  -5   3  -5  105.76    5.07
   6  -3   5    0.49    0.17
   6  -3   5    0.37    0.16
  -6  -3  -5    0.42    0.24
  -6   3  -5    0.36    0.24
  -6   3  -5    0.20    0.21
   6   3   5    0.34    0.17
   6   3   5    0.48    0.20
   7  -3   5   19.45    1.07
  -7  -3  -5   17.87    1.29
   7  -3   5   16.63    1.05
   7   3   5   17.85    1.10
  -7   3  -5   18.75    1.17
  -7   3  -5   20.02    1.33
   7   3   5   18.64    1.08
   8  -3   5    1.40    0.27
  -8  -3  -5    0.90    0.39
  -8   3  -5    0.64    0.38
   8   3   5    1.13    0.29
   8   3   5    1.01    0.26
  -9  -3  -5    4.58    0.75
   9  -3   5    4.43    0.48
  -9   3  -5    4.12    0.72
   9   3   5    4.73    0.53
 -10  -3  -5    3.16    0.68
  10  -3   5    2.17    0.39
 -10   3  -5    2.33    0.61
  10   3   5    2.26    0.41
 -11  -3  -5   17.99    1.56
 -11   3  -5   21.08    1.70
  11   3   5   19.52    1.29
  12  -4  -5   11.27    0.83
 -12  -4   5   10.25    0.87
 -12   4   5   10.80    1.41
  12   4  -5   10.05    0.83
  11  -4  -5    1.24    0.31
 -11  -4   5    1.35    0.36
 -11   4   5    1.68    0.61
  11   4  -5    1.14    0.33
  10  -4  -5   66.77    3.26
 -10  -4   5   64.57    3.31
 -10  -4   5   60.89    3.56
 -10   4   5   63.12    3.32
 -10   4   5   65.52    3.75
  10   4  -5   65.23    3.29
  -9  -4   5    3.95    0.58
  -9  -4   5    7.21    0.58
   9  -4  -5    4.86    0.46
   9   4  -5    5.21    0.52
  -9   4   5    4.95    0.55
  -9   4   5    4.24    0.77
   8  -4  -5  100.76    4.77
  -8  -4   5  103.86    4.85
  -8  -4   5   89.38    4.88
   8   4  -5   98.75    4.81
  -8   4   5  102.17    5.23
  -8   4   5   96.33    4.85
  -7  -4   5    0.19    0.17
   7  -4  -5    0.04    0.15
  -7  -4   5    0.08    0.17
   7   4  -5    0.23    0.17
  -7   4   5    0.09    0.29
  -7   4   5    0.18    0.18
   6  -4  -5   71.86    3.37
  -6  -4   5   69.43    3.45
  -6  -4   5   63.78    3.41
  -6   4   5   68.28    3.45
   6   4  -5   68.97    3.40
  -6   4   5   72.20    3.79
  -5  -4   5    0.76    0.20
   5  -4  -5    1.15    0.20
  -5  -4   5    1.17    0.20
  -5   4   5    0.60    0.32
  -5   4   5    0.55    0.18
   5   4  -5    0.91    0.21
   4  -4  -5  119.51    5.74
  -4  -4   5  117.59    5.75
  -4  -4   5  117.41    5.85
  -4   4   5  119.05    5.84
  -4   4   5  129.06    6.17
   4   4  -5  119.92    5.79
   4   4  -5  127.05    5.84
   3  -4  -5    2.93    0.26
  -3  -4   5    3.26    0.40
   3  -4  -5    2.77    0.19
  -3   4   5    2.61    0.32
   3   4  -5    2.63    0.29
  -3   4   5    2.68    0.50
   3   4  -5    2.10    0.31
   2  -4  -5  149.15    7.36
  -2  -4   5  157.39    7.50
  -2   4   5  162.94    7.33
   2   4  -5  158.28    7.50
   2   4  -5  150.85    7.41
  -2   4   5  157.40    7.72
  -2   4   5  159.80    7.46
   1  -4  -5   22.83    1.24
  -1  -4   5   24.82    1.39
  -1   4   5   23.31    1.32
  -1   4   5   24.32    1.24
  -1   4   5   26.36    1.56
   1   4  -5   25.86    1.40
   1   4  -5   25.32    1.30
   0  -4   5  149.03    6.88
   0   4  -5  137.13    6.77
   0   4   5  148.66    7.03
   0   4   5  134.18    6.72
   0   4  -5  141.36    6.88
   0   4   5  143.92    6.76
   0   4   5  145.22    6.80
   1  -4   5    1.67    0.22
   1  -4   5    1.55    0.28
   1   4   5    1.39    0.35
  -1   4  -5    1.89    0.33
   1   4   5    1.88    0.25
   1   4   5    1.43    0.23
   1   4   5    1.34    0.20
   2  -4   5   26.01    1.36
   2  -4   5   28.22    1.46
  -2   4  -5   25.45    1.51
   2   4   5   27.09    1.39
  -2   4  -5   26.31    1.38
   2   4   5   28.17    1.61
   2   4   5   26.80    1.39
   2   4   5   23.47    1.36
  -3  -4  -5    4.29    0.34
   3  -4   5    3.89    0.35
  -3  -4  -5    4.78    0.49
   3  -4   5    4.81    0.42
   3   4   5    4.08    0.37
  -3   4  -5    4.26    0.40
  -3   4  -5    5.22    0.51
   3   4   5    4.39    0.38
   4  -4   5  196.17    9.67
   4  -4   5  198.63    9.72
  -4  -4  -5  206.70    9.87
   4   4   5  206.01    9.72
  -4   4  -5  212.58    9.81
  -4   4  -5  202.82    9.86
   4   4   5  215.71    9.72
   5  -4   5    0.99    0.22
   5  -4   5    0.64    0.18
  -5  -4  -5    1.16    0.34
   5   4   5    0.73    0.21
   5   4   5    0.55    0.19
  -5   4  -5    0.82    0.27
  -5   4  -5    1.04    0.31
   6  -4   5  156.12    7.37
   6  -4   5  158.73    7.36
  -6  -4  -5  144.98    7.56
  -6   4  -5  156.22    7.54
  -6   4  -5  157.32    7.58
   6   4   5  152.17    7.41
   6   4   5  156.23    7.40
  -7  -4  -5    0.35    0.31
   7  -4   5    0.14    0.18
   7   4   5    0.32    0.20
  -7   4  -5    0.26    0.25
   7   4   5    0.23    0.20
  -7   4  -5    0.34    0.29
   8  -4   5   21.69    1.26
  -8  -4  -5   22.80    1.53
   8   4   5   19.91    1.26
  -8   4  -5   22.57    1.54
   8   4   5   21.16    1.30
  -9  -4  -5    5.37    0.81
   9  -4   5    6.11    0.59
  -9   4  -5    5.30    0.81
   9   4   5    5.95    0.61
  10  -4   5   39.46    2.15
 -10  -4  -5   40.07    2.50
 -10   4  -5   39.98    2.55
  10   4   5   38.46    2.19
 -12  -5   5    0.58    0.32
  12  -5  -5    0.80    0.32
  12   5  -5   -0.01    0.27
 -12   5   5    0.44    0.53
  11  -5  -5  111.36    5.52
 -11  -5   5  115.13    5.59
  11   5  -5  106.97    5.54
 -11   5   5  115.81    6.13
  10  -5  -5    1.00    0.28
 -10  -5   5    1.06    0.32
 -10   5   5    0.94    0.48
 -10   5   5    1.11    0.36
  10   5  -5    1.32    0.34
  -9  -5   5   89.62    4.53
   9  -5  -5   91.09    4.46
   9   5  -5   89.86    4.51
  -9   5   5   91.75    4.59
  -9   5   5   90.93    4.98
   8  -5  -5    6.82    0.54
  -8  -5   5    7.09    0.63
  -8   5   5    6.71    0.64
   8   5  -5    5.94    0.57
  -8   5   5    5.62    0.87
   7  -5  -5  140.76    6.67
  -7  -5   5  138.89    6.76
   7   5  -5  146.84    6.73
  -7   5   5  143.15    7.17
  -7   5   5  127.92    6.77
  -6  -5   5   29.86    1.61
   6  -5  -5   29.12    1.52
  -6   5   5   27.19    1.90
  -6   5   5   28.38    1.63
   6   5  -5   27.02    1.54
  -5  -5   5  351.90   17.62
   5  -5  -5  378.17   17.54
   5   5  -5  397.48   17.62
   5   5  -5  360.96   17.57
  -5   5   5  365.37   17.65
  -5   5   5  395.43   18.03
  -4  -5   5   56.28    2.84
   4  -5  -5   53.73    2.71
   4   5  -5   55.12    2.77
  -4   5   5   57.37    3.14
   4   5  -5   56.90    2.82
  -4   5   5   51.80    2.82
  -3  -5   5  451.39   20.60
   3  -5  -5  423.59   20.46
  -3   5   5  440.40   20.59
   3   5  -5  433.71   20.59
  -3   5   5  448.22   20.88
   3   5  -5  434.64   20.52
   2  -5  -5    3.49    0.32
  -2  -5   5    4.04    0.45
   2  -5  -5    4.99    0.32
   2   5  -5    3.70    0.44
  -2   5   5    4.82    0.65
  -2   5   5    3.36    0.40
   2   5  -5    3.68    0.36
   1  -5  -5  126.32    6.22
  -1  -5   5  123.08    6.35
  -1   5   5  143.28    6.58
   1   5  -5  133.45    6.38
  -1   5   5  132.84    6.20
   1   5  -5  128.70    6.28
  -1   5   5  131.51    6.32
   0  -5   5    0.57    0.23
   0   5   5    0.63    0.28
   0   5  -5    0.23    0.16
   0   5   5    0.62    0.17
   0   5  -5    0.75    0.26
   0   5   5    0.84    0.16
   0   5   5    0.38    0.16
   1  -5   5  207.02   10.51
   1  -5   5  223.60   10.41
   1   5   5  238.28   10.68
  -1   5  -5  216.11   10.56
   1   5   5  231.10   10.44
   1   5   5  218.46   10.45
   1   5   5  212.27   10.39
   2  -5   5    0.34    0.16
   2  -5   5    0.38    0.21
   2   5   5    0.63    0.28
   2   5   5    0.61    0.19
   2   5   5    0.65    0.18
  -2   5  -5    1.43    0.34
   2   5   5    0.63    0.20
  -3  -5  -5  346.63   17.80
   3  -5   5  346.74   17.71
   3  -5   5  373.16   17.66
   3   5   5  396.51   17.69
  -3   5  -5  388.02   17.87
   3   5   5  403.96   17.70
   3   5   5  385.85   17.71
   4  -5   5    4.52    0.42
  -4  -5  -5    4.95    0.55
   4  -5   5    5.12    0.46
   4   5   5    4.25    0.41
   4   5   5    4.25    0.43
  -4   5  -5    4.96    0.62
   5  -5   5  119.09    6.19
  -5  -5  -5  128.97    6.37
   5  -5   5  133.07    6.20
   5   5   5  135.93    6.24
  -5   5  -5  132.03    6.40
   5   5   5  125.08    6.21
   6  -5   5    4.15    0.45
  -6  -5  -5    4.13    0.61
   6   5   5    4.41    0.48
   6   5   5    4.75    0.48
  -6   5  -5    4.13    0.60
   7  -5   5  307.33   13.77
  -7  -5  -5  286.11   13.99
   7   5   5  281.06   13.79
  -7   5  -5  290.56   13.96
   7   5   5  292.00   13.79
   8  -5   5   14.32    0.92
  -8  -5  -5   12.45    1.10
  -8   5  -5   13.23    1.06
   8   5   5   12.15    0.92
   9  -5   5  158.43    7.87
  -9  -5  -5  160.32    8.18
   9   5   5  170.60    7.94
  10  -5   5    7.61    0.70
 -10  -5  -5    5.49    0.87
  10   5   5    7.46    1.09
  11  -6  -5    1.33    0.38
 -11  -6   5    0.66    0.36
  11   6  -5    0.73    0.32
 -11   6   5    1.18    0.62
  10  -6  -5   69.79    3.50
 -10  -6   5   68.79    3.58
  10   6  -5   67.31    3.53
 -10   6   5   69.49    4.08
 -10   6   5   66.70    3.64
  -9  -6   5   33.24    1.99
   9  -6  -5   36.92    1.94
  -9   6   5   34.94    2.42
  -9   6   5   34.76    2.08
   9   6  -5   35.37    1.96
  -8  -6   5   18.79    1.22
   8  -6  -5   19.01    1.13
   8   6  -5   18.17    1.17
  -8   6   5   19.29    1.60
  -8   6   5   17.58    1.27
  -7  -6   5    5.02    0.57
   7  -6  -5    6.07    0.53
   7   6  -5    6.16    0.54
  -7   6   5    4.58    0.64
  -7   6   5    6.12    0.95
   6  -6  -5   66.58    3.27
  -6  -6   5   63.24    3.35
  -6   6   5   65.26    3.74
   6   6  -5   65.74    3.31
  -6   6   5   66.22    3.43
  -5  -6   5    0.50    0.25
   5  -6  -5    0.50    0.18
  -5   6   5    0.56    0.38
   5   6  -5    1.18    0.33
  -5   6   5    1.01    0.32
   5   6  -5    1.16    0.27
   4  -6  -5  169.43    8.33
  -4  -6   5  171.39    8.45
   4   6  -5  189.92    8.46
   4   6  -5  171.46    8.38
  -4   6   5  162.26    8.45
  -4   6   5  190.73    8.83
  -3  -6   5   17.77    1.15
   3  -6  -5   17.19    1.03
  -3   6   5   18.45    1.17
   3   6  -5   17.75    1.09
  -3   6   5   20.02    1.40
   3   6  -5   18.88    1.17
  -2  -6   5   44.66    2.41
   2  -6  -5   44.24    2.27
   2   6  -5   43.98    2.33
   2   6  -5   45.23    2.42
  -2   6   5   48.75    2.64
  -2   6   5   44.20    2.39
  -1  -6   5   33.56    1.84
   1  -6  -5   28.12    1.67
   1  -6  -5   33.38    1.67
  -1   6   5   34.41    1.99
   1   6  -5   32.83    1.85
  -1   6   5   31.48    1.78
   1   6  -5   33.44    1.76
   0  -6  -5   30.50    1.72
   0  -6   5   34.77    1.89
   0   6  -5   33.74    1.91
   0   6   5   32.43    1.82
   0   6  -5   33.47    1.80
   0   6   5   34.28    1.80
   0   6   5   35.53    2.03
   1  -6   5    3.85    0.50
   1  -6   5    3.52    0.39
   1   6   5    3.42    0.54
   1   6   5    3.66    0.36
  -1   6  -5    3.59    0.54
   1   6   5    3.36    0.42
   1   6   5    4.13    0.43
   2  -6   5   32.32    1.72
   2  -6   5   33.00    1.82
  -2  -6  -5   32.58    1.83
   2   6   5   33.36    1.76
  -2   6  -5   31.46    1.89
   2   6   5   33.65    1.77
   2   6   5   33.58    1.93
   2   6   5   28.90    1.69
  -3  -6  -5   26.36    1.52
   3  -6   5   25.34    1.39
   3  -6   5   25.66    1.45
   3   6   5   25.17    1.43
  -3   6  -5   22.70    1.55
   3   6   5   24.65    1.39
   4  -6   5   99.89    4.70
  -4  -6  -5   97.56    4.84
   4  -6   5   84.52    4.76
   4   6   5  101.19    4.75
  -4   6  -5  101.36    4.94
   4   6   5   93.04    4.70
  -5  -6  -5    0.25    0.27
   5  -6   5    0.10    0.21
  -5   6  -5    0.24    0.32
   5   6   5    0.35    0.21
   5   6   5    0.43    0.23
   6  -6   5   78.68    3.71
  -6  -6  -5   71.23    3.86
   6   6   5   71.16    3.71
  -6   6  -5   73.85    3.94
   6   6   5   74.02    3.74
   7  -6   5   38.91    2.02
  -7  -6  -5   35.61    2.20
   7   6   5   37.73    2.05
   7   6   5   37.20    2.05
  -7   6  -5   34.49    2.20
  -8  -6  -5   33.33    2.13
   8  -6   5   38.52    1.95
  -8   6  -5   34.02    2.13
   8   6   5   32.08    1.94
  -9  -6  -5    5.44    0.82
   9  -6   5    5.71    0.64
   9   6   5    6.07    0.77
  10  -7  -5   10.10    0.92
  10   7  -5   10.01    1.25
 -10   7   5   11.39    1.06
  -9  -7   5   25.06    1.59
   9  -7  -5   25.73    1.50
   9   7  -5   26.21    1.55
  -9   7   5   23.48    1.68
  -8  -7   5    1.08    0.38
   8  -7  -5    1.67    0.35
   8   7  -5    1.36    0.36
  -8   7   5    0.90    0.41
  -7  -7   5    3.95    0.57
   7  -7  -5    3.18    0.44
  -7   7   5    2.94    0.55
   7   7  -5    2.91    0.45
  -6  -7   5   10.71    0.91
   6  -7  -5   12.04    0.83
  -6   7   5   12.26    1.00
   6   7  -5   12.63    0.87
   5  -7  -5   36.04    1.88
  -5  -7   5   36.80    2.02
   5   7  -5   35.22    1.94
  -5   7   5   32.09    2.03
   4  -7  -5   19.92    1.18
  -4  -7   5   19.38    1.29
   4   7  -5   21.96    1.32
   4   7  -5   19.98    1.24
  -4   7   5   19.68    1.33
  -3  -7   5   20.92    1.29
   3  -7  -5   19.86    1.16
  -3   7   5   17.30    1.27
   3   7  -5   21.58    1.32
   3   7  -5   19.62    1.21
  -2  -7   5    0.20    0.24
   2  -7  -5    0.09    0.18
  -2   7   5    0.16    0.25
   2   7  -5    0.42    0.24
   2   7  -5    0.93    0.33
  -1  -7   5   43.43    2.24
   1  -7  -5   39.33    2.08
  -1   7   5   39.95    2.20
   1   7  -5   40.07    2.15
   1   7  -5   36.43    2.23
   0  -7   5    3.96    0.54
   0  -7   5    4.31    0.49
   0  -7  -5    4.09    0.45
   0   7  -5    4.12    0.60
   0   7   5    3.44    0.49
   1  -7   5   18.58    1.12
  -1  -7  -5   17.88    1.09
   1  -7   5   18.19    1.22
   1   7   5   18.31    1.15
   1   7   5   17.90    1.17
  -1   7  -5   18.80    1.29
  -2  -7  -5    7.28    0.63
   2  -7   5    7.26    0.68
   2  -7   5    8.58    0.64
  -2   7  -5    7.75    0.79
   2   7   5    7.50    0.67
   2   7   5    7.92    0.67
  -3  -7  -5    9.97    0.76
   3  -7   5   10.27    0.74
  -3   7  -5    8.79    0.87
   3   7   5    9.52    0.77
   4  -7   5    1.06    0.30
  -4  -7  -5    0.65    0.29
   4   7   5    0.47    0.27
  -4   7  -5    0.60    0.38
   4   7   5    0.53    0.26
   5  -7   5   35.11    1.91
  -5   7  -5   33.86    2.14
   5   7   5   33.41    1.91
   5   7   5   35.98    1.96
   6  -7   5    0.23    0.26
  -6   7  -5    0.13    0.33
   6   7   5    0.27    0.27
   6   7   5   -0.03    0.24
   7  -7   5    5.56    0.62
   7   7   5    5.39    0.63
  -7   7  -5    6.76    0.90
   8  -7   5    1.94    0.42
  -8   7  -5    1.23    0.48
  -8  -8   5   92.01    4.50
   8  -8  -5   80.87    4.33
   8   8  -5   87.00    4.40
  -8   8   5   85.70    4.61
   7  -8  -5   22.16    1.41
  -7  -8   5   25.31    1.58
  -7   8   5   24.64    1.68
   7   8  -5   23.23    1.48
   6  -8  -5  139.82    6.41
  -6  -8   5  122.54    6.50
  -6   8   5  124.97    6.61
   6   8  -5  136.64    6.46
  -5  -8   5    1.37    0.39
   5  -8  -5    1.59    0.34
  -5   8   5    1.83    0.47
   5   8  -5    1.50    0.38
  -4  -8   5  188.13    9.60
   4  -8  -5  198.75    9.48
  -4   8   5  198.94    9.70
   4   8  -5  207.94    9.57
  -3  -8   5    3.96    0.59
   3  -8  -5    4.50    0.50
  -3   8   5    4.25    0.63
   3   8  -5    5.30    0.64
   3   8  -5    4.37    0.56
   2  -8  -5  123.02    5.88
  -2  -8   5  122.89    6.04
  -2   8   5  120.89    6.06
   2   8  -5  119.27    5.95
   2   8  -5  118.04    6.05
   1  -8  -5    3.69    0.47
  -1  -8   5    4.13    0.60
   1   8  -5    4.15    0.55
  -1   8   5    4.13    0.60
   1   8  -5    3.02    0.56
   0  -8  -5   77.64    4.00
   0  -8   5   84.67    4.16
   0  -8   5   83.81    4.05
   0   8   5   78.26    4.12
   0   8  -5   76.96    4.20
   1  -8   5   11.06    0.89
   1  -8   5   10.89    0.81
   1   8   5    9.02    0.82
   1   8   5   10.37    0.85
  -1   8  -5    9.57    0.94
  -2  -8  -5  196.81    9.81
   2  -8   5  217.81    9.85
  -2   8  -5  195.26   10.05
   2   8   5  211.56    9.90
   3  -8   5    1.83    0.38
  -3  -8  -5    1.94    0.39
  -3   8  -5    2.12    0.55
   3   8   5    2.34    0.45
  -4  -8  -5  106.74    5.48
   4  -8   5  120.83    5.49
   4   8   5  110.13    5.52
  -4   8  -5  104.53    5.71
  -5  -8  -5    1.25    0.37
   5  -8   5    0.95    0.33
  -5   8  -5    0.49    0.47
   5   8   5    0.65    0.33
  -6  -8  -5   83.27    4.27
   6  -8   5   90.25    4.25
  -6   8  -5   75.10    4.46
   6  -9  -5   -0.27    0.24
  -6  -9   5   -0.13    0.32
   6   9  -5    0.13    0.47
   5  -9  -5   79.91    4.01
  -5  -9   5   77.63    4.14
   5   9  -5   82.20    4.09
  -5   9   5   75.36    4.25
  -4  -9   5    0.79    0.38
   4  -9  -5    0.32    0.27
  -4   9   5    1.30    0.47
   4   9  -5    0.59    0.34
  -3  -9   5   86.36    4.53
   3  -9  -5   85.49    4.37
  -3   9   5   86.57    4.60
   3   9  -5   91.33    4.46
   3   9  -5   85.98    4.55
   2  -9  -5   12.12    0.89
  -2  -9   5   11.96    1.00
  -2   9   5   10.51    1.01
   2   9  -5   10.56    1.01
   2   9  -5   11.91    0.95
  -1  -9   5  156.01    7.00
  -1  -9   5  143.48    7.08
   1  -9  -5  139.79    6.92
  -1   9   5  139.51    7.09
   1   9  -5  131.78    7.10
   0  -9   5    1.25    0.37
   0  -9  -5    1.06    0.32
   0   9   5    1.10    0.40
   0   9  -5    0.84    0.42
   1  -9   5   29.25    1.63
  -1  -9  -5   25.69    1.57
  -1   9  -5   24.19    1.78
   2  -9   5   10.51    0.87
  -2   9  -5    9.66    1.06
   2   9   5   10.99    0.93
   3  -9   5   31.04    1.75
  -3   9  -5   28.53    1.98
   3   9   5   27.82    1.79
  -4  -9  -5    2.03    0.46
   4  -9   5    2.38    0.48
   4   9   5    1.10    0.43
 -14   0   6  167.02    9.84
 -13   0   6   31.12    2.28
  13   0  -6   32.52    1.81
 -12   0   6   82.37    4.52
  12   0  -6   79.22    4.01
  11   0  -6   66.79    3.36
 -11   0   6   67.61    3.79
 -10   0   6   75.69    4.13
  10   0  -6   77.08    3.76
   9   0  -6   82.14    4.01
  -9   0   6   82.69    4.34
   8   0  -6  678.82   32.32
   8   0  -6  683.14   32.29
  -8   0   6  674.90   32.62
  -8   0   6  739.79   32.33
  -7   0   6   69.69    3.29
   7   0  -6   66.57    3.26
  -7   0   6   68.36    3.55
   7   0  -6   65.52    3.25
   6   0  -6  280.86   12.30
  -6   0   6  258.47   12.54
  -6   0   6  240.07   12.31
   6   0  -6  270.94   12.29
   5   0  -6  186.79    8.70
  -5   0   6  180.88    8.75
  -5   0   6  191.02    8.95
   5   0  -6  184.78    8.73
   4   0  -6   28.02    1.39
  -4   0   6   27.27    1.57
   4   0  -6   28.28    1.35
  -4   0   6   25.62    1.41
  -3   0   6  156.20    7.72
  -3   0   6  167.91    7.90
   3   0  -6  166.77    7.64
   3   0  -6  163.96    7.70
  -2   0   6  224.15   11.10
   2   0  -6  247.85   10.85
   2   0  -6  210.12   10.92
  -2   0   6  250.89   10.94
  -1   0   6   88.31    4.69
   1   0  -6  101.95    4.44
  -1   0   6   98.40    4.53
   1   0  -6   91.03    4.54
   0   0  -6 1000.00   43.28
   0   0   6  902.13   43.21
   0   0   6  875.72   43.16
  -1   0  -6  222.18   10.84
   1   0   6  235.26   10.71
   1   0   6  244.27   10.82
   1   0   6  221.14   10.98
   2   0   6  274.79   12.11
   2   0   6  254.96   12.19
  -2   0  -6  248.48   12.22
  -2   0  -6  263.08   12.30
  -3   0  -6  138.67    7.06
  -3   0  -6  154.46    7.18
   3   0   6  149.37    6.97
   3   0   6  153.58    7.05
   4   0   6  170.42    7.47
  -4   0  -6  144.98    7.53
   4   0   6  158.22    7.54
  -4   0  -6  163.04    7.69
   5   0   6  255.80   12.10
  -5   0  -6  255.68   12.10
  -5   0  -6  255.76   12.28
   5   0   6  261.31   12.03
   6   0   6  248.37   11.94
   6   0   6  262.34   12.01
  -6   0  -6  253.12   12.22
  -7   0  -6   27.40    1.71
   7   0   6   25.23    1.47
   7   0   6   28.05    1.43
   8   0   6   31.50    1.72
  -8   0  -6   31.08    1.98
   8   0   6   31.39    1.92
   9   0   6   49.93    2.64
  -9   0  -6   52.08    2.99
 -10   0  -6   25.20    1.81
  10   0   6   24.23    1.46
 -11   0  -6   78.57    4.41
  11   0   6   76.52    3.94
 -14  -1   6   19.63    1.76
  13  -1  -6   10.48    0.81
 -13  -1   6   10.18    1.18
 -13   1   6   11.11    1.41
  13   1  -6   10.01    0.80
 -12  -1   6    5.60    0.90
  12  -1  -6    5.83    0.56
 -12   1   6    6.35    1.00
  12   1  -6    6.05    0.58
 -11  -1   6   85.24    4.62
  11  -1  -6   82.92    4.22
 -11   1   6   91.32    4.75
  11   1  -6   86.38    4.25
 -10  -1   6    0.36    0.30
  10  -1  -6    0.85    0.22
  10   1  -6    0.83    0.23
 -10   1   6    0.79    0.41
  -9  -1   6   45.55    2.23
   9  -1  -6   43.91    2.20
  -9  -1   6   40.39    2.45
   9   1  -6   42.50    2.21
  -9   1   6   44.20    2.58
   8  -1  -6   93.71    4.52
  -8  -1   6  100.17    4.59
   8  -1  -6   93.54    4.54
  -8  -1   6   91.09    4.79
  -8   1   6   93.13    4.89
   8   1  -6   94.44    4.55
   7  -1  -6   72.93    3.92
  -7  -1   6   81.16    4.17
  -7  -1   6   87.53    3.99
   7  -1  -6   82.96    3.94
   7   1  -6   85.60    3.95
  -7   1   6   82.11    4.25
   7   1  -6   81.29    3.93
  -6  -1   6   36.02    2.12
   6  -1  -6   40.00    1.95
   6  -1  -6   39.03    1.93
  -6  -1   6   39.46    1.99
   6   1  -6   41.43    1.95
   6   1  -6   40.54    1.95
  -6   1   6   37.04    1.92
  -6   1   6   38.35    2.21
  -5  -1   6  142.87    6.49
  -5  -1   6  135.37    6.60
   5  -1  -6  139.25    6.44
   5  -1  -6  136.39    6.40
  -5   1   6  133.85    6.69
   5   1  -6  141.59    6.45
  -5   1   6  121.95    6.40
   5   1  -6  137.89    6.42
  -4  -1   6   67.88    3.34
  -4  -1   6   64.84    3.26
   4  -1  -6   69.88    3.15
   4  -1  -6   67.07    3.20
   4   1  -6   67.98    3.17
  -4   1   6   65.54    3.44
   4   1  -6   61.02    3.20
  -4   1   6   66.67    3.16
   3  -1  -6   42.19    1.98
   3  -1  -6   42.30    2.05
  -3  -1   6   41.13    2.17
  -3  -1   6   40.87    2.10
   3   1  -6   38.27    2.06
  -3   1   6   43.70    2.29
  -3   1   6   42.32    2.00
   3   1  -6   41.82    2.00
   2  -1  -6  285.85   14.04
   2  -1  -6  341.94   14.10
  -2  -1   6  278.25   14.10
  -2  -1   6  288.54   14.17
  -2   1   6  312.05   14.01
  -2   1   6  272.06   14.25
   2   1  -6  322.45   14.09
   2   1  -6  303.45   13.99
   1  -1  -6  141.65    6.55
  -1  -1   6  153.55    6.70
   1  -1  -6  146.96    6.65
  -1  -1   6  136.98    6.76
  -1   1   6  129.86    6.85
   1   1  -6  132.83    6.68
  -1   1   6  146.68    6.62
   1   1  -6  138.00    6.58
   0  -1  -6    3.63    0.18
   0  -1   6    3.55    0.30
   0  -1   6    4.07    0.21
   0  -1   6    3.10    0.35
   0  -1  -6    3.51    0.28
   0   1   6    3.76    0.27
   0   1  -6    3.17    0.30
   0   1   6    3.81    0.43
   1  -1   6   53.15    2.48
   1  -1   6   50.59    2.37
  -1  -1  -6   46.36    2.44
   1   1   6   54.58    2.37
   1   1   6   50.56    2.44
   1   1   6   48.54    2.64
  -1   1  -6   49.98    2.50
  -1   1  -6   47.65    2.50
   2  -1   6   11.84    0.59
  -2  -1  -6   11.32    0.77
   2  -1   6   12.30    0.69
  -2  -1  -6   10.74    0.66
  -2   1  -6   11.83    0.74
  -2   1  -6    9.91    0.70
   2   1   6   11.44    0.66
   2   1   6   12.96    0.61
  -3  -1  -6  190.80    8.99
  -3  -1  -6  180.30    8.84
   3  -1   6  180.89    8.77
   3  -1   6  199.55    8.87
  -3   1  -6  192.05    8.96
   3   1   6  197.18    8.78
  -3   1  -6  174.88    8.88
   3   1   6  187.15    8.85
  -4  -1  -6  131.86    6.49
  -4  -1  -6  119.58    6.31
   4  -1   6  137.66    6.28
   4  -1   6  135.05    6.35
   4   1   6  136.87    6.35
  -4   1  -6  133.14    6.48
   4   1   6  139.38    6.28
  -4   1  -6  132.66    6.39
   5  -1   6   68.64    3.28
   5  -1   6   67.60    3.34
  -5  -1  -6   67.03    3.51
  -5   1  -6   68.52    3.51
  -5   1  -6   65.27    3.37
   5   1   6   67.74    3.34
   5   1   6   71.00    3.28
  -6  -1  -6   50.99    2.82
   6  -1   6   51.03    2.61
   6  -1   6   51.34    2.56
  -6   1  -6   53.46    2.65
   6   1   6   51.94    2.62
  -6   1  -6   54.08    2.84
   6   1   6   51.51    2.56
   7  -1   6    1.83    0.29
  -7  -1  -6    1.30    0.38
   7  -1   6    2.40    0.30
   7   1   6    1.70    0.30
   7   1   6    1.95    0.28
  -7   1  -6    2.21    0.48
  -8  -1  -6   34.70    2.20
   8  -1   6   35.40    1.92
   8  -1   6   37.57    1.89
   8   1   6   34.08    1.92
  -8   1  -6   38.76    2.25
  -9  -1  -6   74.94    4.10
   9  -1   6   75.13    3.76
   9   1   6   73.25    3.76
  -9   1  -6   76.95    4.13
  10  -1   6   11.56    0.86
 -10  -1  -6   11.98    1.19
 -10   1  -6   13.13    1.24
  10   1   6   10.92    0.86
 -11  -1  -6   37.74    2.51
  11   1   6   36.57    2.08
 -11   1  -6   37.16    2.53
 -13  -2   6    6.72    1.02
  13  -2  -6    6.25    0.62
  13   2  -6    6.35    0.64
 -13   2   6    5.12    0.96
  12  -2  -6    9.78    0.71
 -12  -2   6    9.24    1.02
  12   2  -6    9.09    0.74
 -12   2   6    8.34    1.19
 -11  -2   6    2.06    0.38
  11  -2  -6    2.32    0.36
 -11  -2   6    2.06    0.52
  11   2  -6    2.59    0.38
 -11   2   6    1.82    0.57
 -10  -2   6   28.99    1.54
 -10  -2   6   25.78    1.75
  10  -2  -6   28.53    1.50
  10   2  -6   25.30    1.49
 -10   2   6   26.50    1.90
   9  -2  -6   11.48    0.73
  -9  -2   6   11.41    0.94
   9  -2  -6   11.44    0.71
  -9  -2   6   11.36    0.76
  -9   2   6   10.95    1.05
   9   2  -6   10.78    0.73
   8  -2  -6   35.26    1.78
  -8  -2   6   36.48    1.84
  -8  -2   6   33.72    1.98
   8  -2  -6   32.65    1.77
  -8   2   6   33.90    2.13
   8   2  -6   35.52    1.80
   7  -2  -6   13.91    0.78
  -7  -2   6   13.13    0.94
   7  -2  -6   12.98    0.79
  -7  -2   6   14.38    0.84
   7   2  -6   13.66    0.79
  -7   2   6   12.85    0.82
   7   2  -6   13.81    0.79
  -7   2   6   13.29    1.07
  -6  -2   6   40.66    2.07
   6  -2  -6   38.72    1.99
  -6  -2   6   41.12    2.16
  -6   2   6   39.89    2.06
   6   2  -6   43.00    2.04
   6   2  -6   40.24    2.01
  -6   2   6   37.75    2.30
  -5  -2   6   14.80    0.87
   5  -2  -6   14.48    0.77
  -5  -2   6   13.72    0.90
   5   2  -6   14.96    0.80
  -5   2   6   14.15    1.07
  -5   2   6   14.34    0.84
  -5   2   6   13.96    0.70
   5   2  -6   14.64    0.83
  -4  -2   6    4.61    0.42
   4  -2  -6    4.86    0.38
  -4  -2   6    4.95    0.43
   4  -2  -6    5.20    0.33
   4   2  -6    5.34    0.36
  -4   2   6    4.83    0.40
   4   2  -6    4.97    0.40
  -4   2   6    5.50    0.28
  -4   2   6    6.20    0.62
   3  -2  -6  135.06    6.42
  -3  -2   6  135.79    6.57
  -3  -2   6  135.67    6.56
   3  -2  -6  139.66    6.50
   3   2  -6  138.89    6.46
  -3   2   6  136.13    6.40
   3   2  -6  138.23    6.53
  -3   2   6  138.07    6.78
   2  -2  -6   87.73    4.08
  -2  -2   6   84.94    4.14
   2  -2  -6   83.06    3.99
  -2  -2   6   89.12    4.18
   2   2  -6   88.98    4.03
  -2   2   6   85.78    4.01
  -2   2   6   80.16    4.32
   2   2  -6   79.23    4.11
   1  -2  -6   58.35    2.79
   1  -2  -6   63.98    2.88
  -1  -2   6   55.46    2.92
  -1  -2   6   61.16    2.97
  -1   2   6   56.11    3.11
  -1   2   6   61.68    2.83
   1   2  -6   59.82    2.83
   1   2  -6   56.19    2.92
   0  -2   6   41.47    1.99
   0  -2   6   34.63    1.94
   0  -2  -6   39.20    1.91
   0   2  -6   39.52    1.91
   0   2  -6   38.03    1.86
   0   2   6   41.78    1.84
   0   2   6   39.34    2.14
   0   2   6   35.60    1.87
   0   2  -6   35.82    1.96
  -1  -2  -6   16.66    0.89
   1  -2   6   16.54    0.95
   1  -2   6   15.84    0.84
   1   2   6   18.12    0.85
   1   2   6   16.90    1.11
  -1   2  -6   16.73    0.93
  -1   2  -6   16.10    0.96
   1   2   6   16.18    0.88
   2  -2   6    2.37    0.19
   2  -2   6    2.63    0.27
  -2  -2  -6    2.25    0.22
  -2   2  -6    2.33    0.28
   2   2   6    2.34    0.40
   2   2   6    2.31    0.24
   2   2   6    2.21    0.20
  -2   2  -6    2.51    0.31
   3  -2   6    8.72    0.50
  -3  -2  -6    7.54    0.52
  -3  -2  -6    8.35    0.67
  -3   2  -6   10.16    0.65
  -3   2  -6    8.21    0.63
   3   2   6    9.59    0.52
   3   2   6    9.22    0.57
  -4  -2  -6  101.10    5.44
  -4  -2  -6  106.37    5.26
   4  -2   6  110.01    5.31
   4  -2   6  111.86    5.25
   4   2   6  112.47    5.31
  -4   2  -6  108.74    5.39
   4   2   6  119.53    5.27
  -4   2  -6  115.82    5.44
  -5  -2  -6    9.97    0.81
   5  -2   6    9.95    0.67
   5  -2   6   10.79    0.62
   5   2   6    9.73    0.67
  -5   2  -6    9.56    0.79
   5   2   6   11.07    0.64
  -5   2  -6   11.40    0.76
   6  -2   6    0.98    0.19
   6  -2   6    0.80    0.21
  -6  -2  -6    0.72    0.31
  -6   2  -6    0.60    0.23
   6   2   6    0.69    0.18
  -6   2  -6    0.59    0.27
   6   2   6    0.63    0.20
   7  -2   6    1.58    0.27
   7  -2   6    1.09    0.23
  -7  -2  -6    1.35    0.40
  -7   2  -6    1.12    0.37
   7   2   6    1.27    0.24
   7   2   6    1.10    0.27
  -8  -2  -6    1.19    0.40
   8  -2   6    1.48    0.29
   8  -2   6    1.73    0.29
  -8   2  -6    1.62    0.46
   8   2   6    1.05    0.28
  -9  -2  -6    4.85    0.78
   9  -2   6    4.58    0.50
  -9   2  -6    4.99    0.77
   9   2   6    4.07    0.51
 -10  -2  -6   20.68    1.60
  10   2   6   19.68    1.27
 -10   2  -6   19.81    1.61
 -11  -2  -6   18.18    1.53
 -11   2  -6   17.28    1.57
  11   2   6   17.37    1.20
 -13  -3   6  106.02    5.90
  13  -3  -6  111.10    5.52
 -13   3   6  125.42    6.30
  13   3  -6  107.96    5.54
 -12  -3   6   39.61    2.18
  12  -3  -6   37.31    2.12
 -12  -3   6   39.25    2.46
  12   3  -6   40.52    2.16
 -12   3   6   39.53    2.68
 -11  -3   6   67.98    3.78
 -11  -3   6   70.14    3.55
  11  -3  -6   69.19    3.49
 -11   3   6   70.85    4.04
  11   3  -6   69.78    3.52
 -10  -3   6   30.69    1.76
  10  -3  -6   32.03    1.70
 -10  -3   6   28.37    1.90
  10   3  -6   34.37    1.75
 -10   3   6   31.66    1.90
 -10   3   6   31.72    2.15
  -9  -3   6  177.73    9.00
  -9  -3   6  193.14    8.87
   9  -3  -6  192.32    8.80
  -9   3   6  182.38    9.26
   9   3  -6  180.58    8.81
  -9   3   6  184.07    8.85
  -8  -3   6   19.27    1.18
  -8  -3   6   20.16    1.28
   8  -3  -6   20.86    1.12
  -8   3   6   19.16    1.46
   8   3  -6   19.97    1.15
  -8   3   6   20.59    1.19
  -7  -3   6  131.84    6.81
  -7  -3   6  150.76    6.77
   7  -3  -6  137.72    6.67
   7   3  -6  138.66    6.71
  -7   3   6  137.94    7.09
  -7   3   6  146.22    6.76
  -6  -3   6  213.22    9.86
  -6  -3   6  197.59    9.87
   6  -3  -6  211.69    9.76
  -6   3   6  202.60    9.83
   6   3  -6  205.49    9.79
  -6   3   6  212.06   10.20
   6   3  -6  210.51    9.80
   5  -3  -6  155.32    7.35
  -5  -3   6  153.74    7.45
  -5  -3   6  155.82    7.47
   5   3  -6  162.37    7.40
   5   3  -6  135.24    7.40
  -5   3   6  164.14    7.46
  -5   3   6  168.95    7.81
  -4  -3   6  215.98   10.45
   4  -3  -6  216.77   10.38
  -4  -3   6  205.19   10.49
  -4   3   6  222.65   10.48
   4   3  -6  231.60   10.48
   4   3  -6  226.15   10.42
  -4   3   6  235.32   10.83
  -3  -3   6  211.15   10.24
  -3  -3   6  218.55   10.33
   3  -3  -6  219.60   10.18
  -3   3   6  219.66   10.13
   3   3  -6  210.32   10.28
   3   3  -6  224.14   10.22
  -3   3   6  219.93   10.28
  -3   3   6  218.16   10.58
   2  -3  -6    3.39    0.24
  -2  -3   6    3.42    0.38
  -2  -3   6    3.02    0.28
   2   3  -6    4.37    0.37
   2   3  -6    3.17    0.28
  -2   3   6    2.93    0.50
  -2   3   6    3.60    0.34
  -2   3   6    3.47    0.23
  -1  -3   6  195.17    9.35
   1  -3  -6  192.47    9.18
   1   3  -6  193.30    9.22
  -1   3   6  198.63    9.19
   1   3  -6  194.08    9.17
  -1   3   6  194.54    9.54
  -1   3   6  205.55    9.28
   1   3  -6  197.43    9.32
   0  -3   6  213.94    9.86
   0  -3  -6  216.54    9.77
   0   3   6  225.92    9.72
   0   3  -6  198.88    9.73
   0   3  -6  199.26    9.70
   0   3  -6  196.15    9.85
   0   3   6  208.66   10.04
   0   3   6  201.05    9.72
   1  -3   6  388.24   17.60
   1  -3   6  370.64   17.71
  -1  -3  -6  379.88   17.63
  -1   3  -6  394.03   17.62
   1   3   6  384.79   17.91
   1   3   6  378.84   17.60
   1   3   6  357.53   17.61
  -1   3  -6  366.23   17.74
   2  -3   6  220.36    9.97
  -2  -3  -6  215.94    9.88
   2  -3   6  207.02    9.86
   2   3   6  199.33   10.13
   2   3   6  212.73    9.89
  -2   3  -6  198.09   10.02
  -2   3  -6  206.31    9.92
   2   3   6  222.26    9.88
  -3  -3  -6  163.68    8.54
   3  -3   6  171.51    8.54
   3  -3   6  177.75    8.63
  -3  -3  -6  182.79    8.76
   3   3   6  191.74    8.57
  -3   3  -6  190.26    8.74
   3   3   6  189.78    8.60
  -3   3  -6  189.17    8.67
   4  -3   6   83.49    4.14
  -4  -3  -6   83.87    4.36
   4  -3   6   90.49    4.22
  -4   3  -6   86.55    4.29
   4   3   6   88.11    4.17
  -4   3  -6   86.18    4.32
  -5  -3  -6   59.13    3.04
   5  -3   6   54.95    2.84
   5  -3   6   57.19    2.80
  -5   3  -6   57.79    2.96
   5   3   6   53.87    2.84
  -5   3  -6   55.91    2.98
   5   3   6   60.56    2.83
  -6  -3  -6  128.37    6.51
   6  -3   6  129.71    6.25
   6  -3   6  129.43    6.30
  -6   3  -6  132.20    6.41
   6   3   6  137.54    6.29
  -6   3  -6  138.65    6.52
   6   3   6  123.01    6.30
  -7  -3  -6   98.72    5.30
   7  -3   6  101.23    5.05
   7  -3   6  105.22    5.04
   7   3   6  107.24    5.10
  -7   3  -6  107.11    5.33
  -7   3  -6  105.24    5.17
   8  -3   6   81.55    4.07
   8  -3   6   78.61    4.08
  -8  -3  -6   85.08    4.40
  -8   3  -6   87.38    4.43
   8   3   6   81.96    4.12
  -9  -3  -6   72.24    4.01
   9   3   6   71.85    3.72
  -9   3  -6   75.63    4.05
 -10  -3  -6   34.32    2.35
  10   3   6   38.38    2.08
 -10   3  -6   36.21    2.41
  12  -4  -6   48.96    2.71
 -12  -4   6   52.22    2.79
  12   4  -6   54.29    2.78
 -12   4   6   51.44    3.32
  11  -4  -6    7.08    0.62
 -11  -4   6    6.73    0.67
 -11   4   6    6.02    1.02
  11   4  -6    6.44    0.63
 -10  -4   6   98.11    4.89
  10  -4  -6   99.71    4.82
  10   4  -6   97.26    4.85
 -10   4   6   97.13    5.35
 -10   4   6   98.88    4.91
   9  -4  -6   27.77    1.49
  -9  -4   6   26.66    1.56
  -9   4   6   25.62    1.90
   9   4  -6   26.84    1.52
  -9   4   6   26.92    1.56
  -8  -4   6   83.85    4.18
   8  -4  -6   82.07    4.09
  -8   4   6   88.63    4.63
  -8   4   6   82.61    4.19
   8   4  -6   83.49    4.14
  -7  -4   6   92.68    4.52
   7  -4  -6   92.42    4.42
  -7   4   6   92.88    4.53
  -7   4   6   88.81    4.88
   7   4  -6   89.81    4.46
   6  -4  -6  164.96    7.82
  -6  -4   6  163.77    7.93
   6   4  -6  164.53    7.88
  -6   4   6  166.74    8.31
  -6   4   6  171.36    7.94
   6   4  -6  160.96    7.86
   5  -4  -6   35.36    1.76
  -5  -4   6   32.20    1.86
   5   4  -6   34.81    1.84
   5   4  -6   35.35    1.80
  -5   4   6   36.48    2.20
   4  -4  -6  139.68    6.83
  -4  -4   6  146.32    6.97
   4   4  -6  145.13    6.88
  -4   4   6  140.31    7.27
  -4   4   6  152.52    6.95
   4   4  -6  143.49    6.94
  -3  -4   6  147.73    7.46
   3  -4  -6  159.41    7.32
   3   4  -6  153.27    7.36
  -3   4   6  157.51    7.76
   3   4  -6  159.26    7.46
   2  -4  -6   62.13    3.08
  -2  -4   6   68.00    3.27
  -2   4   6   63.78    3.47
  -2   4   6   63.54    3.06
   2   4  -6   62.37    3.13
   2   4  -6   67.32    3.25
  -2   4   6   62.25    3.18
   1  -4  -6   44.68    2.25
  -1  -4   6   45.88    2.44
  -1   4   6   48.45    2.36
   1   4  -6   46.09    2.31
  -1   4   6   46.11    2.25
  -1   4   6   47.52    2.63
   1   4  -6   46.03    2.43
   0  -4   6   80.99    4.04
   0   4   6   89.79    4.24
   0   4   6   86.60    3.91
   0   4   6   83.24    3.96
   0   4   6   75.06    3.87
   0   4  -6   75.96    3.91
   0   4  -6   76.63    4.03
   1  -4   6   45.46    2.22
   1  -4   6   39.97    2.33
  -1  -4  -6   46.01    2.25
   1   4   6   46.87    2.52
   1   4   6   44.84    2.23
   1   4   6   47.36    2.29
  -1   4  -6   44.29    2.39
   1   4   6   44.47    2.23
   2  -4   6  128.01    6.81
  -2  -4  -6  144.71    6.74
   2  -4   6  138.79    6.73
   2   4   6  145.97    7.03
   2   4   6  154.52    6.76
   2   4   6  138.05    6.74
  -2   4  -6  145.13    6.92
  -3  -4  -6  188.68    8.81
   3  -4   6  183.60    8.81
   3  -4   6  191.35    8.90
  -3  -4  -6  177.57    8.99
  -3   4  -6  189.45    9.01
   3   4   6  205.10    8.85
   3   4   6  172.23    8.83
   4  -4   6  195.32    9.90
  -4  -4  -6  201.84   10.05
   4  -4   6  215.11    9.86
   4   4   6  215.09    9.90
  -4   4  -6  207.26    9.98
  -4   4  -6  216.40   10.06
   4   4   6  212.14    9.88
   5  -4   6   98.43    4.51
   5  -4   6   91.04    4.54
  -5  -4  -6   90.51    4.71
  -5   4  -6   95.27    4.67
   5   4   6   90.80    4.54
  -5   4  -6   88.95    4.67
   5   4   6   96.02    4.53
   6  -4   6   31.37    1.64
  -6  -4  -6   29.97    1.86
   6  -4   6   30.02    1.66
   6   4   6   33.16    1.68
  -6   4  -6   31.91    1.84
  -6   4  -6   30.07    1.80
   6   4   6   29.47    1.68
   7  -4   6   46.86    2.41
  -7  -4  -6   48.48    2.69
  -7   4  -6   46.64    2.57
   7   4   6   45.89    2.46
  -7   4  -6   47.14    2.67
   8  -4   6   60.64    3.16
  -8  -4  -6   62.60    3.47
   8   4   6   62.68    3.23
  -8   4  -6   65.23    3.49
  -9  -4  -6   30.87    2.07
   9  -4   6   34.89    2.14
  -9   4  -6   30.73    2.13
   9   4   6   30.34    1.80
 -10  -4  -6   70.76    4.10
  10   4   6   76.16    3.82
 -12  -5   6    2.84    0.52
  12  -5  -6    2.02    0.42
  12   5  -6    2.12    0.51
 -12   5   6    2.38    0.76
 -11  -5   6   10.53    0.89
  11  -5  -6   10.27    0.80
 -11   5   6   10.90    1.31
  11   5  -6   11.15    0.87
  10  -5  -6    6.43    0.56
 -10  -5   6    5.99    0.64
 -10   5   6    4.79    0.64
 -10   5   6    5.30    0.96
  10   5  -6    5.44    0.62
  -9  -5   6    0.78    0.30
   9  -5  -6    0.63    0.25
  -9   5   6    0.86    0.47
  -9   5   6    0.95    0.32
   9   5  -6    0.44    0.25
   8  -5  -6    0.10    0.19
  -8  -5   6    0.14    0.24
  -8   5   6    0.19    0.23
   8   5  -6    0.42    0.22
  -8   5   6    0.41    0.38
   7  -5  -6    4.32    0.41
  -7  -5   6    4.68    0.50
  -7   5   6    5.99    0.89
  -7   5   6    4.97    0.54
   7   5  -6    4.22    0.46
  -6  -5   6    0.22    0.21
   6  -5  -6    0.34    0.17
  -6   5   6    0.11    0.22
   6   5  -6    0.63    0.22
  -6   5   6    0.61    0.35
   5  -5  -6    8.44    0.58
  -5  -5   6    8.52    0.68
   5   5  -6    8.24    0.61
  -5   5   6    8.82    0.95
   5   5  -6    9.01    0.67
  -5   5   6    8.42    0.69
   4  -5  -6    2.42    0.28
  -4  -5   6    2.00    0.36
   4   5  -6    1.94    0.35
   4   5  -6    2.19    0.30
  -4   5   6    1.82    0.50
  -4   5   6    2.11    0.35
  -3  -5   6    0.50    0.22
   3  -5  -6    0.50    0.15
   3   5  -6    0.44    0.18
  -3   5   6    0.55    0.31
   3   5  -6    0.30    0.21
  -3   5   6    0.24    0.18
   2  -5  -6    1.82    0.24
  -2  -5   6    4.00    0.48
   2   5  -6    2.29    0.38
  -2   5   6    2.35    0.51
   2   5  -6    1.65    0.27
  -2   5   6    2.38    0.35
  -1  -5   6    9.49    0.72
   1  -5  -6    7.84    0.54
   1   5  -6    9.27    0.61
  -1   5   6    7.70    0.62
   1   5  -6    8.76    0.70
  -1   5   6    9.17    0.84
  -1   5   6    8.48    0.53
   0  -5   6    0.88    0.27
   0   5   6    0.67    0.21
   0   5  -6    0.51    0.25
   0   5   6    0.59    0.18
   0   5  -6    1.05    0.22
   0   5   6    0.71    0.30
   0   5   6    1.49    0.21
   1  -5   6    5.42    0.53
   1  -5   6    5.49    0.43
   1   5   6    5.18    0.63
   1   5   6    5.22    0.41
   1   5   6    6.25    0.47
  -1   5  -6    4.83    0.56
   1   5   6    5.04    0.46
   2  -5   6    1.00    0.20
   2  -5   6    0.61    0.23
   2   5   6    0.19    0.16
   2   5   6    0.10    0.16
  -2   5  -6    0.42    0.25
   2   5   6    0.04    0.24
   2   5   6    0.25    0.15
  -3  -5  -6   11.08    0.71
  -3  -5  -6   10.63    0.85
   3  -5   6   10.00    0.75
   3  -5   6   11.68    0.70
   3   5   6   11.44    0.73
   3   5   6    9.74    0.70
  -3   5  -6   10.14    0.86
  -4  -5  -6    2.73    0.46
   4  -5   6    3.52    0.42
   4  -5   6    3.35    0.36
   4   5   6    2.75    0.36
  -4   5  -6    2.21    0.44
   4   5   6    3.28    0.39
   5  -5   6    0.31    0.20
   5  -5   6    0.29    0.19
  -5  -5  -6    0.34    0.28
   5   5   6    0.06    0.18
  -5   5  -6    0.26    0.30
   5   5   6    0.31    0.21
  -6  -5  -6    0.02    0.26
   6  -5   6    0.46    0.21
  -6   5  -6    0.32    0.31
   6   5   6    0.14    0.21
   7  -5   6    1.54    0.31
  -7  -5  -6    0.75    0.37
   7   5   6    1.41    0.32
  -7   5  -6    2.44    0.50
   8  -5   6    7.98    0.67
  -8  -5  -6    7.98    0.89
   8   5   6    6.89    0.68
  -9  -5  -6   17.04    1.39
   9  -5   6   16.41    1.25
   9   5   6   16.57    1.15
  11  -6  -6   15.01    1.04
 -11  -6   6   12.81    1.08
  11   6  -6   15.81    1.10
 -11   6   6   15.00    1.19
 -11   6   6   14.04    1.54
  10  -6  -6   49.40    2.56
 -10  -6   6   51.09    2.67
  10   6  -6   46.85    2.58
 -10   6   6   47.08    2.71
 -10   6   6   45.43    3.12
   9  -6  -6   33.05    1.79
  -9  -6   6   31.36    1.87
  -9   6   6   34.29    2.38
   9   6  -6   30.78    1.81
  -9   6   6   32.28    1.94
  -8  -6   6  112.22    5.36
   8  -6  -6  104.30    5.22
  -8   6   6  108.67    5.41
   8   6  -6  104.08    5.27
  -8   6   6  106.86    5.84
  -7  -6   6   25.80    1.64
   7  -6  -6   29.81    1.57
  -7   6   6   27.88    1.71
   7   6  -6   29.55    1.61
  -7   6   6   28.86    2.09
   6  -6  -6   69.02    3.39
  -6  -6   6   64.35    3.51
   6   6  -6   68.22    3.44
  -6   6   6   74.62    3.99
  -6   6   6   67.02    3.54
  -5  -6   6   50.55    2.80
   5  -6  -6   53.11    2.68
  -5   6   6   52.99    2.83
   5   6  -6   53.97    2.73
  -5   6   6   56.35    3.21
   5   6  -6   53.11    2.78
   4  -6  -6   90.10    4.41
  -4  -6   6   89.18    4.55
  -4   6   6   94.97    4.92
   4   6  -6   90.61    4.47
   4   6  -6   93.29    4.56
  -4   6   6   88.66    4.56
  -3  -6   6   68.00    3.40
   3  -6  -6   62.28    3.22
  -3   6   6   63.29    3.35
   3   6  -6   66.07    3.29
   3   6  -6   66.86    3.38
  -3   6   6   67.33    3.67
   2  -6  -6   82.92    4.37
  -2  -6   6   95.85    4.58
   2   6  -6   92.90    4.46
   2   6  -6   83.29    4.53
  -2   6   6   87.77    4.51
  -2   6   6  105.04    4.87
   1  -6  -6   18.56    1.12
  -1  -6   6   18.44    1.27
  -1   6   6   23.13    1.48
   1   6  -6   22.67    1.34
  -1   6   6   20.45    1.24
   1   6  -6   20.15    1.19
   0  -6   6  154.93    7.66
   0  -6  -6  146.28    7.49
   0  -6   6  162.29    7.53
   0   6   6  156.84    7.60
   0   6   6  160.84    7.56
   0   6   6  153.19    7.48
   0   6  -6  159.86    7.71
   0   6  -6  153.00    7.56
   0   6   6  175.05    7.89
   1  -6   6   62.26    3.21
   1  -6   6   60.89    3.08
   1   6   6   62.77    3.11
   1   6   6   58.33    3.05
   1   6   6   67.21    3.38
   1   6   6   60.71    3.13
  -1   6  -6   60.89    3.26
   2  -6   6   93.35    4.83
   2  -6   6  102.41    4.74
   2   6   6   97.73    4.77
  -2   6  -6   92.07    4.91
   2   6   6   90.81    4.71
   2   6   6  104.11    5.03
   2   6   6  101.01    4.78
   3  -6   6   71.45    3.66
   3  -6   6   77.17    3.59
  -3  -6  -6   71.33    3.74
   3   6   6   76.46    3.63
  -3   6  -6   70.42    3.79
   3   6   6   65.95    3.56
  -4  -6  -6   54.49    2.88
   4  -6   6   52.31    2.69
   4  -6   6   48.03    2.73
   4   6   6   52.02    2.71
  -4   6  -6   56.73    2.96
   4   6   6   54.04    2.74
   5  -6   6   87.05    4.04
  -5  -6  -6   75.07    4.18
   5   6   6   82.76    4.08
   5   6   6   79.82    4.05
  -5   6  -6   80.73    4.26
  -6  -6  -6   65.10    3.42
   6  -6   6   64.94    3.21
   6   6   6   59.19    3.22
  -6   6  -6   63.02    3.44
   7  -6   6   24.04    1.43
  -7  -6  -6   24.82    1.66
   7   6   6   25.03    1.47
  -7   6  -6   22.71    1.63
  -8  -6  -6   44.53    2.62
   8  -6   6   46.07    2.38
   8   6   6   40.68    2.37
  -8   6  -6   44.41    2.59
  10  -7  -6   22.71    1.44
 -10   7   6   19.38    1.50
  -9  -7   6   96.94    5.04
   9  -7  -6   99.59    4.92
  -9   7   6   99.98    5.15
   9   7  -6  100.56    4.98
   8  -7  -6   54.37    2.79
  -8  -7   6   55.11    2.93
   8   7  -6   51.11    2.82
  -8   7   6   53.65    3.00
  -7  -7   6  178.10    8.81
   7  -7  -6  186.25    8.68
  -7   7   6  197.84   10.49
   7   7  -6  178.80    8.72
  -7   7   6  170.99    8.86
  -6  -7   6   30.55    1.84
   6  -7  -6   30.61    1.70
  -6   7   6   36.45    2.69
  -6   7   6   29.70    1.87
   6   7  -6   30.54    1.75
  -5  -7   6   90.28    4.86
   5  -7  -6   95.18    4.72
   5   7  -6  100.82    4.80
  -5   7   6   92.75    4.91
  -5   7   6  108.80    5.66
  -4  -7   6   66.38    3.48
   4  -7  -6   62.40    3.32
   4   7  -6   68.09    3.48
   4   7  -6   69.38    3.41
  -4   7   6   64.67    3.50
  -4   7   6   72.93    4.65
   3  -7  -6   61.21    3.16
  -3  -7   6   57.32    3.31
  -3   7   6   66.93    3.35
   3   7  -6   65.95    3.25
   3   7  -6   65.28    3.34
   2  -7  -6   75.81    3.84
  -2  -7   6   75.32    4.01
   2   7  -6   81.42    3.94
  -2   7   6   78.35    4.00
   2   7  -6   79.72    4.04
   1  -7  -6  147.21    7.34
  -1  -7   6  168.21    7.57
   1   7  -6  155.68    7.43
  -1   7   6  149.69    7.48
   1   7  -6  148.66    7.54
   0  -7   6   22.79    1.46
   0  -7  -6   21.19    1.29
   0  -7   6   24.72    1.36
   0   7  -6   23.49    1.51
   0   7   6   23.15    1.42
  -1  -7  -6  109.45    5.17
   1  -7   6  105.00    5.30
   1  -7   6  108.12    5.19
  -1   7  -6   97.85    5.35
   1   7   6  107.87    5.26
   1   7   6  107.13    5.22
   2  -7   6   62.75    3.17
  -2  -7  -6   67.80    3.20
   2  -7   6   52.90    3.23
   2   7   6   61.09    3.14
  -2   7  -6   60.05    3.38
   2   7   6   70.46    3.25
   3  -7   6  104.55    4.82
   3   7   6   97.68    4.80
  -3   7  -6   87.77    5.00
   3   7   6   99.77    4.86
   4  -7   6  121.68    5.56
  -4   7  -6  106.95    5.78
   4   7   6  108.05    5.54
   4   7   6  117.04    5.61
   5  -7   6  116.27    5.53
  -5   7  -6  108.04    5.78
   5   7   6  112.96    5.54
   6  -7   6   34.51    1.92
   6   7   6   33.88    1.94
  -6   7  -6   34.77    2.18
   7  -7   6   44.82    2.33
  -7   7  -6   41.64    2.57
   7   7   6   40.67    2.33
   8  -8  -6    3.40    0.49
  -8  -8   6    3.47    0.62
   8   8  -6    3.98    0.56
  -8   8   6    3.53    0.69
  -7  -8   6    8.36    0.87
   7  -8  -6    8.41    0.72
  -7   8   6    7.79    0.90
   7   8  -6    7.93    0.75
   6  -8  -6    2.17    0.39
  -6  -8   6    2.46    0.51
  -6   8   6    2.99    0.59
   6   8  -6    3.22    0.49
  -5  -8   6   11.40    0.99
   5  -8  -6   12.63    0.87
  -5   8   6   12.40    1.06
   5   8  -6   12.57    0.94
   4  -8  -6   16.87    1.07
  -4  -8   6   16.49    1.22
   4   8  -6   18.29    1.16
   4   8  -6   17.07    1.21
  -4   8   6   15.42    1.23
   3  -8  -6    1.15    0.30
  -3  -8   6    0.66    0.33
   3   8  -6    0.16    0.31
   3   8  -6    0.36    0.28
  -3   8   6    0.31    0.30
  -2  -8   6    8.02    0.80
   2  -8  -6    8.32    0.66
   2   8  -6    7.90    0.84
  -2   8   6    8.17    0.80
   2   8  -6    7.74    0.71
  -1  -8   6    3.19    0.56
   1  -8  -6    3.30    0.44
   1   8  -6    3.26    0.58
   1   8  -6    3.46    0.51
  -1   8   6    3.43    0.54
   0  -8   6    2.96    0.51
   0  -8   6    3.94    0.50
   0  -8  -6    2.00    0.36
   0   8  -6    2.51    0.53
   0   8   6    3.19    0.53
   1  -8   6   23.89    1.34
   1  -8   6   20.87    1.41
  -1  -8  -6   20.52    1.27
   1   8   6   20.64    1.38
   1   8   6   23.23    1.38
  -1   8  -6   18.69    1.47
   2  -8   6   23.52    1.40
  -2   8  -6   19.99    1.56
   2   8   6   25.58    1.48
   3  -8   6    4.54    0.53
  -3  -8  -6    4.73    0.57
  -3   8  -6    4.47    0.71
   3   8   6    3.90    0.55
  -4  -8  -6    8.35    0.78
   4  -8   6    9.93    0.79
  -4   8  -6    8.93    0.99
   5  -8   6    4.84    0.59
  -5  -8  -6    4.72    0.63
  -5   8  -6    4.82    0.80
  -6  -8  -6    0.99    0.39
   6  -8   6    1.03    0.36
  -6   8  -6    1.14    0.51
   6  -9  -6    6.13    0.66
  -6  -9   6    5.69    0.86
  -5  -9   6   33.00    2.03
   5  -9  -6   32.20    1.86
   5   9  -6   34.96    1.96
  -5   9   6   30.85    2.09
  -4  -9   6    7.79    0.87
   4  -9  -6    7.62    0.71
  -4   9   6    9.28    0.95
   4   9  -6    7.58    0.78
   3  -9  -6   17.88    1.17
  -3  -9   6   19.69    1.36
   3   9  -6   18.75    1.25
   3   9  -6   17.38    1.35
  -3   9   6   16.19    1.34
  -2  -9   6   21.74    1.44
   2  -9  -6   18.87    1.24
  -2   9   6   18.49    1.42
   2   9  -6   19.57    1.44
   2   9  -6   19.91    1.33
  -1  -9   6   43.31    2.17
   1  -9  -6   33.94    2.06
  -1  -9   6   40.12    2.28
  -1   9   6   36.15    2.24
   1   9  -6   35.85    2.29
   0  -9   6    7.67    0.72
   0  -9  -6    6.41    0.64
   0   9   6    7.19    0.81
   0   9  -6    5.08    0.78
  -1  -9  -6   27.56    1.66
   1  -9   6   30.84    1.72
  -1   9  -6   26.88    1.89
   2  -9   6   11.56    0.89
  -2   9  -6    8.58    1.01
   2   9   6   10.16    0.93
   3  -9   6   39.86    2.14
  -3   9  -6   34.49    2.49
 -14   0   7   -0.04    0.53
  13   0  -7    0.32    0.26
 -13   0   7    0.45    0.47
 -12   0   7    0.24    0.41
  12   0  -7    0.42    0.25
  11   0  -7   -0.09    0.18
 -11   0   7   -0.01    0.30
 -10   0   7    0.63    0.35
  10   0  -7   -0.02    0.17
  -9   0   7    0.95    0.39
  -8   0   7    0.08    0.14
   8   0  -7    0.19    0.14
  -8   0   7    0.22    0.25
   8   0  -7    0.17    0.12
  -7   0   7   -0.01    0.12
   7   0  -7    0.07    0.11
  -7   0   7   -0.04    0.19
   7   0  -7    0.18    0.11
  -6   0   7   -0.13    0.16
   6   0  -7    0.02    0.10
  -6   0   7   -0.05    0.12
   6   0  -7   -0.12    0.09
   5   0  -7    0.43    0.11
  -5   0   7    0.59    0.17
   5   0  -7    0.07    0.11
  -5   0   7    0.07    0.20
   4   0  -7   -0.21    0.08
  -4   0   7   -0.17    0.15
  -4   0   7   -0.08    0.10
   4   0  -7   -0.11    0.06
   3   0  -7    0.00    0.07
  -3   0   7    0.48    0.16
  -3   0   7   -0.39    0.12
   3   0  -7   -0.27    0.08
   2   0  -7   -0.02    0.09
   2   0  -7    0.11    0.05
  -2   0   7    0.63    0.14
  -2   0   7    0.13    0.16
   1   0  -7   -0.02    0.12
  -1   0   7   -0.03    0.17
  -1   0   7    0.65    0.15
   0   0  -7    0.03    0.11
   0   0   7    0.09    0.10
   0   0   7   -0.17    0.14
  -1   0  -7    0.57    0.17
   1   0   7    0.30    0.13
   1   0   7    0.14    0.18
  -2   0  -7   -0.14    0.12
  -2   0  -7   -0.17    0.11
   2   0   7   -0.02    0.11
   2   0   7   -0.07    0.05
  -3   0  -7    0.27    0.19
   3   0   7    0.14    0.07
   3   0   7    0.03    0.11
  -3   0  -7    0.03    0.11
   4   0   7    0.06    0.11
   4   0   7    0.07    0.08
  -4   0  -7    0.18    0.14
  -4   0  -7    0.04    0.17
  -5   0  -7    0.33    0.24
   5   0   7    0.01    0.10
  -5   0  -7    0.26    0.15
   5   0   7    0.11    0.15
   6   0   7    0.20    0.16
  -6   0  -7    0.14    0.24
   7   0   7    0.21    0.19
  -7   0  -7    0.38    0.30
   8   0   7    0.13    0.19
  -8   0  -7    0.14    0.30
   9   0   7   -0.11    0.20
  -9   0  -7    0.39    0.36
 -10   0  -7    0.36    0.43
  10   0   7    0.25    0.25
  11   0   7    0.18    0.28
 -14  -1   7   46.16    3.03
  13  -1  -7   13.32    0.95
 -13  -1   7   16.16    1.43
 -13   1   7   14.63    1.47
  13   1  -7   12.52    0.94
 -12  -1   7  130.73    6.79
  12  -1  -7  129.05    6.33
  12   1  -7  127.67    6.34
 -12   1   7  136.86    6.94
  11  -1  -7   59.49    2.93
 -11  -1   7   55.00    3.28
 -11   1   7   59.07    3.41
  11   1  -7   57.40    2.93
 -10  -1   7  110.24    5.64
  10  -1  -7  107.54    5.27
  10   1  -7  109.05    5.29
 -10   1   7  110.79    5.74
   9  -1  -7   25.79    1.40
  -9  -1   7   25.79    1.69
   9  -1  -7   26.61    1.42
  -9  -1   7   28.60    1.48
   9   1  -7   26.24    1.43
  -9   1   7   25.66    1.76
  -8  -1   7  180.36    8.39
   8  -1  -7  172.32    8.33
   8  -1  -7  177.36    8.33
  -8  -1   7  166.80    8.60
   8   1  -7  186.01    8.54
  -8   1   7  177.17    8.72
   8   1  -7  173.91    8.34
  -7  -1   7    2.08    0.29
   7  -1  -7    1.76    0.23
  -7  -1   7    1.59    0.36
   7  -1  -7    1.90    0.25
  -7   1   7    1.53    0.42
   7   1  -7    1.78    0.24
   7   1  -7    1.83    0.25
   6  -1  -7  294.84   13.57
   6  -1  -7  302.16   13.54
  -6  -1   7  290.86   13.62
  -6  -1   7  281.12   13.77
  -6   1   7  246.13   13.53
   6   1  -7  297.03   13.55
  -6   1   7  288.90   13.89
   6   1  -7  315.72   13.59
  -5  -1   7   29.20    1.61
   5  -1  -7   29.18    1.50
  -5  -1   7   29.43    1.71
   5  -1  -7   31.49    1.56
   5   1  -7   30.92    1.56
  -5   1   7   30.55    1.83
   5   1  -7   30.08    1.51
  -5   1   7   30.65    1.52
  -4  -1   7  213.38   10.20
   4  -1  -7  213.06    9.96
   4  -1  -7  217.66   10.03
  -4   1   7  216.51   10.32
  -4   1   7  212.96    9.98
   4   1  -7  211.94   10.04
   4   1  -7  208.13    9.97
  -3  -1   7  120.32    5.82
  -3  -1   7  119.84    5.72
   3  -1  -7  119.72    5.56
   3  -1  -7  116.90    5.65
  -3   1   7  113.27    5.60
   3   1  -7  118.97    5.68
   3   1  -7  121.54    5.58
  -3   1   7  121.29    5.94
  -2  -1   7  201.79    9.78
   2  -1  -7  203.67    9.73
   2  -1  -7  201.24    9.62
  -2  -1   7  196.27    9.87
   2   1  -7  216.08    9.77
   2   1  -7  213.00    9.65
  -2   1   7  191.66    9.97
  -2   1   7  230.26    9.70
  -1  -1   7   21.10    1.33
  -1  -1   7   24.13    1.27
   1  -1  -7   24.55    1.11
   1  -1  -7   23.21    1.22
   1   1  -7   23.96    1.14
  -1   1   7   24.13    1.20
  -1   1   7   23.58    1.46
   1   1  -7   22.08    1.26
   0  -1  -7  378.25   18.92
   0  -1   7  381.61   19.07
   0  -1   7  405.52   18.90
   0  -1   7  442.45   18.98
   0   1   7  422.70   18.92
   0   1   7  373.46   19.16
   0   1  -7  435.43   19.00
   1  -1   7   32.52    1.62
  -1  -1  -7   33.49    1.72
   1  -1   7   35.72    1.75
   1   1   7   31.59    1.91
  -1   1  -7   29.99    1.75
  -1   1  -7   37.07    1.80
   1   1   7   36.14    1.72
   1   1   7   35.07    1.61
  -2  -1  -7  299.28   14.94
  -2  -1  -7  286.87   14.81
   2  -1   7  337.81   14.73
   2  -1   7  330.77   14.85
  -2   1  -7  317.55   14.91
   2   1   7  361.24   14.73
   2   1   7  328.57   14.82
  -2   1  -7  269.53   14.85
  -3  -1  -7   46.27    2.60
   3  -1   7   48.40    2.61
   3  -1   7   56.06    2.53
  -3  -1  -7   53.63    2.76
   3   1   7   54.60    2.62
   3   1   7   58.19    2.54
  -3   1  -7   56.70    2.74
  -3   1  -7   49.08    2.65
  -4  -1  -7  105.11    5.18
   4  -1   7  104.31    5.02
  -4  -1  -7   98.32    4.99
   4  -1   7  115.48    4.94
   4   1   7  101.89    5.01
  -4   1  -7  106.10    5.16
   4   1   7  109.53    4.93
  -4   1  -7   92.21    5.04
  -5  -1  -7    4.55    0.52
   5  -1   7    3.88    0.32
   5  -1   7    3.49    0.38
   5   1   7    4.03    0.38
  -5   1  -7    3.96    0.42
  -5   1  -7    4.47    0.53
  -6  -1  -7  110.35    5.54
   6  -1   7  108.66    5.31
  -6   1  -7  110.34    5.52
   6   1   7  109.66    5.32
   7  -1   7   10.22    0.72
  -7  -1  -7    9.60    0.90
  -7   1  -7   11.07    0.93
   7   1   7    9.93    0.73
  -8  -1  -7  109.35    5.71
   8  -1   7  110.85    5.41
  -8   1  -7  113.68    5.74
   8   1   7  109.75    5.42
   9  -1   7   34.76    1.85
  -9  -1  -7   31.41    2.14
   9   1   7   32.24    1.85
  -9   1  -7   33.56    2.18
  10  -1   7   84.13    4.21
 -10  -1  -7   84.36    4.62
  10   1   7   83.36    4.23
 -10   1  -7   82.67    4.62
 -11   1  -7    0.50    0.59
  11   1   7    0.59    0.33
 -13  -2   7   66.13    3.95
  13  -2  -7   70.66    3.53
 -13   2   7   69.31    4.14
  13   2  -7   70.24    3.55
  12  -2  -7   45.66    2.40
 -12  -2   7   43.22    2.76
  12   2  -7   47.81    2.44
 -12   2   7   45.75    2.93
  11  -2  -7  125.43    5.98
 -11  -2   7  122.16    6.33
 -11   2   7  122.53    6.50
  11   2  -7  123.82    6.00
  10  -2  -7   42.20    2.17
 -10  -2   7   45.59    2.24
 -10  -2   7   39.75    2.44
  10   2  -7   42.38    2.19
 -10   2   7   38.04    2.56
   9  -2  -7  195.72    9.00
  -9  -2   7  199.51    9.07
   9  -2  -7  187.58    8.99
  -9  -2   7  180.18    9.24
   9   2  -7  183.94    9.01
  -9   2   7  192.09    9.47
   8  -2  -7   30.79    1.52
   8  -2  -7   27.56    1.52
  -8  -2   7   30.77    1.60
  -8  -2   7   28.12    1.72
   8   2  -7   28.06    1.53
  -8   2   7   27.53    1.88
  -7  -2   7  394.14   17.02
   7  -2  -7  369.72   16.94
  -7  -2   7  350.50   17.12
   7  -2  -7  356.37   16.90
  -7   2   7  340.19   17.30
   7   2  -7  373.45   16.95
   7   2  -7  347.23   16.92
  -6  -2   7   10.87    0.71
  -6  -2   7    9.24    0.74
   6  -2  -7   10.34    0.60
   6  -2  -7   10.10    0.64
   6   2  -7    9.71    0.62
   6   2  -7   10.91    0.67
  -6   2   7   10.13    0.93
   5  -2  -7  173.28    8.49
  -5  -2   7  178.72    8.68
  -5  -2   7  179.80    8.63
   5  -2  -7  185.53    8.56
   5   2  -7  181.51    8.53
   5   2  -7  176.55    8.58
  -5   2   7  194.23    8.96
   4  -2  -7   46.48    2.37
  -4  -2   7   47.78    2.46
  -4  -2   7   49.71    2.49
   4  -2  -7   43.35    2.30
  -4   2   7   47.90    2.70
   4   2  -7   47.30    2.41
  -4   2   7   50.38    2.28
   4   2  -7   49.87    2.34
   3  -2  -7  257.97   11.59
  -3  -2   7  254.78   11.79
  -3  -2   7  221.28   11.75
   3  -2  -7  253.24   11.69
   3   2  -7  258.86   11.73
  -3   2   7  238.11   12.00
  -3   2   7  257.04   11.60
   3   2  -7  247.29   11.63
   2  -2  -7   63.57    2.79
   2  -2  -7   63.73    2.90
  -2  -2   7   59.24    2.98
  -2  -2   7   52.59    2.96
   2   2  -7   53.37    2.92
  -2   2   7   56.85    3.17
  -2   2   7   60.56    2.82
   2   2  -7   59.96    2.83
   1  -2  -7  516.36   23.99
  -1  -2   7  523.55   24.08
  -1  -2   7  483.72   24.07
   1  -2  -7  522.15   23.95
   1   2  -7  531.37   24.06
  -1   2   7  463.03   24.25
  -1   2   7  560.90   24.09
   1   2  -7  515.59   23.99
   0  -2  -7  170.61    7.83
   0  -2  -7  175.23    7.94
   0  -2   7  185.22    8.03
   0  -2   7  150.65    8.00
   0  -2   7  175.39    7.87
   0   2   7  171.23    8.23
   0   2  -7  142.06    7.98
   0   2   7  174.15    7.91
   1  -2   7  297.48   13.05
  -1  -2  -7  287.67   13.11
   1  -2   7  279.61   13.17
   1   2   7  294.55   13.04
   1   2   7  286.32   13.11
  -1   2  -7  276.76   13.15
  -1   2  -7  243.41   13.17
   1   2   7  271.57   13.38
   2  -2   7    0.43    0.10
   2  -2   7    0.69    0.18
  -2  -2  -7    0.49    0.14
  -2   2  -7    0.47    0.19
   2   2   7    0.38    0.14
   2   2   7    0.51    0.25
  -2   2  -7    0.48    0.17
  -3  -2  -7  146.61    7.32
  -3  -2  -7  153.07    7.13
   3  -2   7  137.85    7.07
   3  -2   7  156.76    7.19
   3   2   7  171.24    7.10
   3   2   7  144.66    7.14
  -3   2  -7  155.62    7.25
  -3   2  -7  139.73    7.23
   4  -2   7    1.06    0.17
   4  -2   7    1.11    0.23
  -4  -2  -7    1.01    0.19
  -4  -2  -7    1.02    0.28
   4   2   7    0.97    0.18
   4   2   7    1.01    0.22
  -4   2  -7    0.57    0.22
  -4   2  -7    1.34    0.30
   5  -2   7  275.84   12.74
  -5  -2  -7  258.06   13.00
   5  -2   7  278.19   12.83
   5   2   7  267.95   12.81
  -5   2  -7  268.47   12.90
  -5   2  -7  283.37   12.99
  -6  -2  -7   38.71    2.22
   6  -2   7   35.56    1.98
   6  -2   7   39.99    1.94
  -6   2  -7   39.15    2.20
  -6   2  -7   37.97    2.06
   6   2   7   36.96    2.00
  -7  -2  -7  126.37    6.33
   7  -2   7  127.92    6.08
  -7   2  -7  127.46    6.34
   7   2   7  120.66    6.07
   8  -2   7   11.13    0.82
  -8  -2  -7   12.56    1.10
  -8   2  -7   14.03    1.14
   8   2   7   11.66    0.85
   9  -2   7  143.08    6.85
  -9  -2  -7  138.57    7.20
  -9   2  -7  143.36    7.24
   9   2   7  140.25    6.88
 -10  -2  -7    2.17    0.58
 -10   2  -7    2.60    0.64
  10   2   7    2.16    0.41
  13  -3  -7   10.90    0.85
 -13  -3   7   11.23    1.15
 -13   3   7    9.73    1.38
  13   3  -7   10.76    0.85
 -12  -3   7    2.97    0.63
  12  -3  -7    3.69    0.48
  12   3  -7    3.32    0.48
 -12   3   7    2.41    0.76
 -11  -3   7    6.08    0.61
  11  -3  -7    6.36    0.57
 -11  -3   7    5.78    0.80
 -11   3   7    5.54    0.93
  11   3  -7    5.52    0.57
  10  -3  -7   36.53    1.91
 -10  -3   7   35.05    2.14
  10  -3  -7   37.66    1.94
 -10  -3   7   36.62    1.99
  10   3  -7   32.88    1.92
 -10   3   7   39.12    2.45
   9  -3  -7    2.31    0.34
  -9  -3   7    2.56    0.47
   9  -3  -7    2.97    0.36
  -9  -3   7    2.80    0.41
  -9   3   7    2.38    0.62
   9   3  -7    2.90    0.38
  -9   3   7    2.86    0.41
  -8  -3   7   50.64    2.77
   8  -3  -7   50.13    2.59
  -8  -3   7   52.54    2.69
   8   3  -7   54.30    2.64
  -8   3   7   54.42    2.69
  -8   3   7   49.12    3.03
  -7  -3   7   35.79    2.00
  -7  -3   7   37.28    1.96
   7  -3  -7   35.19    1.84
  -7   3   7   37.23    2.29
   7   3  -7   37.88    1.89
  -7   3   7   34.97    1.92
   6  -3  -7    0.76    0.16
  -6  -3   7    1.07    0.27
  -6  -3   7    1.60    0.30
   6   3  -7    0.59    0.18
  -6   3   7    1.49    0.46
  -6   3   7    0.71    0.21
   6   3  -7    0.61    0.20
  -5  -3   7   24.24    1.45
   5  -3  -7   25.44    1.32
  -5  -3   7   26.10    1.45
   5   3  -7   24.56    1.41
  -5   3   7   28.51    1.79
   5   3  -7   28.07    1.38
  -5   3   7   26.64    1.44
   4  -3  -7   25.55    1.31
  -4  -3   7   27.64    1.49
  -4  -3   7   24.33    1.41
  -4   3   7   24.32    1.69
   4   3  -7   26.66    1.42
  -4   3   7   24.54    1.41
   4   3  -7   28.20    1.36
  -3  -3   7    2.71    0.31
  -3  -3   7    2.80    0.40
   3  -3  -7    2.65    0.22
   3  -3  -7    2.54    0.29
  -3   3   7    2.32    0.48
  -3   3   7    2.52    0.20
   3   3  -7    2.74    0.26
   3   3  -7    2.71    0.36
   2  -3  -7   39.07    1.85
  -2  -3   7   40.41    2.06
   2  -3  -7   39.46    1.95
  -2  -3   7   34.72    1.93
  -2   3   7   35.64    2.22
   2   3  -7   39.39    1.90
  -2   3   7   36.90    1.85
   2   3  -7   38.91    2.00
  -1  -3   7    1.64    0.31
  -1  -3   7    1.21    0.20
   1  -3  -7    0.90    0.13
   1  -3  -7    0.99    0.21
  -1   3   7    0.86    0.33
   1   3  -7    0.79    0.22
  -1   3   7    1.11    0.16
   1   3  -7    0.70    0.15
   0  -3  -7    4.59    0.38
   0  -3   7    4.94    0.46
   0  -3  -7    5.16    0.30
   0   3   7    4.19    0.33
   0   3  -7    4.96    0.35
   0   3  -7    3.79    0.32
   0   3  -7    4.68    0.45
   0   3   7    3.92    0.59
   1  -3   7    2.75    0.25
   1  -3   7    3.06    0.35
  -1  -3  -7    3.16    0.31
  -1   3  -7    2.90    0.41
   1   3   7    2.92    0.28
   1   3   7    2.70    0.24
  -1   3  -7    2.67    0.28
   1   3   7    3.92    0.57
  -2  -3  -7   60.61    2.92
   2  -3   7   60.02    3.00
   2  -3   7   58.37    2.87
   2   3   7   59.91    3.21
   2   3   7   57.72    2.92
   2   3   7   62.73    2.89
  -2   3  -7   60.68    2.96
  -2   3  -7   56.41    3.04
   3  -3   7    2.93    0.27
  -3  -3  -7    2.74    0.28
  -3  -3  -7    3.53    0.50
   3  -3   7    2.25    0.32
  -3   3  -7    2.97    0.36
   3   3   7    3.11    0.32
  -3   3  -7    3.22    0.44
   3   3   7    3.42    0.29
   4  -3   7   41.98    2.18
   4  -3   7   43.11    2.09
  -4  -3  -7   43.25    2.34
   4   3   7   45.25    2.24
   4   3   7   39.36    2.14
  -4   3  -7   41.50    2.25
  -4   3  -7   40.46    2.27
   5  -3   7    0.41    0.19
  -5  -3  -7    0.00    0.19
   5  -3   7    0.33    0.15
  -5   3  -7    0.16    0.22
   5   3   7    0.90    0.23
  -5   3  -7    0.33    0.22
  -6  -3  -7   11.76    0.99
   6  -3   7   12.84    0.82
   6  -3   7   13.17    0.77
  -6   3  -7   13.18    0.94
  -6   3  -7   11.28    0.96
   6   3   7   11.64    0.81
  -7  -3  -7   23.74    1.61
   7  -3   7   23.35    1.36
   7   3   7   23.65    1.39
  -7   3  -7   25.59    1.62
   8  -3   7    8.42    0.67
  -8  -3  -7    8.50    0.89
  -8   3  -7   10.41    0.98
   8   3   7    7.38    0.69
  -9  -3  -7    0.93    0.43
   9   3   7    1.20    0.35
  -9   3  -7    0.97    0.47
 -10  -3  -7   23.76    1.83
 -10   3  -7   25.13    1.87
  10   3   7   25.58    1.55
  12  -4  -7   43.68    2.32
 -12  -4   7   43.31    2.39
  12   4  -7   40.33    2.33
 -12   4   7   45.27    2.97
 -11  -4   7   37.57    2.08
  11  -4  -7   36.15    1.99
 -11   4   7   34.39    2.52
  11   4  -7   37.79    2.04
 -10  -4   7    0.66    0.29
  10  -4  -7    0.83    0.26
  10   4  -7    0.84    0.27
 -10   4   7    0.74    0.29
 -10   4   7    0.64    0.50
  -9  -4   7  134.82    6.25
   9  -4  -7  128.01    6.14
  -9   4   7  123.72    6.70
  -9   4   7  124.75    6.23
   9   4  -7  125.57    6.18
  -8  -4   7   13.85    0.91
   8  -4  -7   12.74    0.79
  -8   4   7   11.58    0.87
   8   4  -7   12.18    0.82
  -8   4   7   12.61    1.23
  -7  -4   7   63.21    3.14
   7  -4  -7   63.20    3.02
  -7   4   7   62.60    3.55
  -7   4   7   58.55    3.11
   7   4  -7   58.04    3.04
   6  -4  -7   20.52    1.12
  -6  -4   7   22.18    1.28
  -6   4   7   22.49    1.63
   6   4  -7   20.13    1.16
  -6   4   7   19.85    1.22
   6   4  -7   20.80    1.21
  -5  -4   7   36.65    2.06
   5  -4  -7   40.88    1.93
  -5   4   7   36.31    2.03
   5   4  -7   38.08    1.97
   5   4  -7   38.17    2.03
  -5   4   7   41.04    2.45
   4  -4  -7    4.77    0.37
  -4  -4   7    6.03    0.54
  -4   4   7    5.10    0.48
  -4   4   7    4.85    0.76
   4   4  -7    6.12    0.51
   4   4  -7    5.24    0.42
   3  -4  -7  168.56    7.83
  -3  -4   7  174.68    8.04
  -3   4   7  157.69    7.94
  -3   4   7  167.57    8.32
   3   4  -7  173.15    7.88
   3   4  -7  157.32    7.97
  -2  -4   7   22.52    1.29
   2  -4  -7   19.34    1.07
  -2   4   7   20.94    1.06
  -2   4   7   21.57    1.20
  -2   4   7   21.15    1.47
   2   4  -7   20.54    1.23
   2   4  -7   20.27    1.13
  -1  -4   7   22.34    1.25
   1  -4  -7   18.39    1.02
  -1   4   7   20.32    1.15
   1   4  -7   18.56    1.19
   1   4  -7   19.27    1.08
  -1   4   7   20.75    1.04
  -1   4   7   20.16    1.41
   0  -4  -7   26.36    1.34
   0  -4   7   27.87    1.54
   0  -4  -7   26.81    1.42
   0   4  -7   25.68    1.39
   0   4  -7   24.16    1.52
   0   4   7   26.94    1.71
   0   4   7   26.10    1.37
   0   4   7   29.03    1.39
   1  -4   7   78.61    3.69
   1  -4   7   76.84    3.84
  -1  -4  -7   78.29    3.73
   1   4   7   72.03    3.69
  -1   4  -7   75.19    3.87
   1   4   7   76.78    3.70
   1   4   7   78.08    4.04
   2  -4   7    1.32    0.29
  -2  -4  -7    1.52    0.24
   2  -4   7    1.42    0.22
   2   4   7    1.54    0.24
   2   4   7    1.30    0.22
   2   4   7    1.81    0.42
  -2   4  -7    1.17    0.31
  -3  -4  -7  148.76    7.24
  -3  -4  -7  141.88    7.00
   3  -4   7  146.14    7.00
   3  -4   7  153.13    7.12
  -3   4  -7  142.46    7.20
   3   4   7  138.06    7.03
   3   4   7  164.25    7.04
  -4  -4  -7    1.25    0.34
   4  -4   7    2.00    0.28
   4  -4   7    1.99    0.33
  -4   4  -7    2.37    0.43
   4   4   7    2.53    0.34
   5  -4   7   88.17    4.39
   5  -4   7   87.39    4.45
  -5  -4  -7   89.16    4.64
   5   4   7   96.68    4.46
  -5   4  -7   91.89    4.61
   6  -4   7    1.66    0.31
   6  -4   7    1.63    0.29
  -6  -4  -7    1.23    0.41
  -6   4  -7    2.12    0.43
   6   4   7    1.82    0.34
   7  -4   7   43.08    2.44
   7  -4   7   39.28    2.16
  -7  -4  -7   41.52    2.43
  -7   4  -7   40.88    2.32
   7   4   7   40.52    2.20
  -8  -4  -7   33.87    2.20
   8   4   7   36.13    1.97
  -9  -4  -7   36.07    2.35
   9   4   7   37.96    2.10
  12  -5  -7   90.88    4.67
 -12  -5   7   92.69    4.76
 -12   5   7  102.12    5.49
  12   5  -7   88.87    5.09
 -11  -5   7   42.87    2.40
  11  -5  -7   43.11    2.31
  11   5  -7   41.14    2.34
 -11   5   7   44.90    2.98
 -11   5   7   43.60    2.88
 -10  -5   7  153.27    7.61
  10  -5  -7  166.97    7.53
 -10   5   7  151.23    7.64
 -10   5   7  163.42    8.23
  10   5  -7  146.58    7.54
   9  -5  -7   77.06    3.85
  -9  -5   7   79.40    3.98
   9   5  -7   78.93    3.91
  -9   5   7   74.88    3.98
  -9   5   7   78.35    4.49
   8  -5  -7  194.72    9.05
  -8  -5   7  186.85    9.16
  -8   5   7  185.46    9.17
   8   5  -7  185.11    9.08
  -8   5   7  200.09    9.73
  -7  -5   7    3.74    0.50
   7  -5  -7    2.29    0.32
  -7   5   7    2.59    0.65
   7   5  -7    3.02    0.40
  -7   5   7    2.56    0.42
   6  -5  -7  279.47   13.29
  -6  -5   7  266.51   13.42
  -6   5   7  297.46   13.94
  -6   5   7  275.28   13.43
   6   5  -7  297.84   13.61
   6   5  -7  282.57   13.34
   5  -5  -7   20.20    1.11
  -5  -5   7   19.80    1.25
   5   5  -7   21.90    1.24
  -5   5   7   17.10    1.52
  -5   5   7   19.34    1.23
   5   5  -7   21.05    1.16
  -4  -5   7   85.01    4.28
   4  -5  -7   87.11    4.10
  -4   5   7   82.11    4.61
  -4   5   7   84.87    4.24
   4   5  -7   85.81    4.15
   4   5  -7   84.77    4.25
  -3  -5   7   42.40    2.25
   3  -5  -7   38.51    2.04
   3   5  -7   41.28    2.11
  -3   5   7   40.88    2.51
   3   5  -7   39.41    2.20
  -3   5   7   44.05    2.20
  -2  -5   7  143.18    7.01
   2  -5  -7  138.27    6.80
  -2   5   7  144.28    6.93
  -2   5   7  153.01    7.31
   2   5  -7  140.21    6.98
   2   5  -7  144.45    6.86
   1  -5  -7   42.90    2.29
  -1  -5   7   50.41    2.54
   1   5  -7   46.15    2.50
   1   5  -7   46.87    2.37
  -1   5   7   44.76    2.42
  -1   5   7   50.49    2.74
  -1   5   7   46.57    2.30
   0  -5   7  414.83   19.17
   0  -5  -7  392.39   19.14
   0  -5   7  440.66   19.38
   0   5   7  431.87   19.59
   0   5   7  401.25   19.15
   0   5   7  405.93   19.25
   0   5  -7  389.40   19.19
   0   5  -7  406.38   19.36
   1  -5   7   36.97    1.98
   1  -5   7   34.80    1.82
  -1  -5  -7   34.09    1.84
   1   5   7   35.27    2.12
  -1   5  -7   33.04    1.99
   1   5   7   35.28    1.83
   1   5   7   37.03    1.82
  -2  -5  -7  248.96   10.96
   2  -5   7  220.70   11.04
   2  -5   7  236.85   10.93
   2   5   7  244.52   11.29
   2   5   7  239.05   10.96
  -2   5  -7  213.72   11.11
   2   5   7  219.53   10.93
  -3  -5  -7    0.57    0.29
   3  -5   7    0.69    0.26
   3  -5   7    1.27    0.24
  -3   5  -7    0.53    0.30
   3   5   7    0.38    0.19
   3   5   7    0.48    0.20
  -4  -5  -7  169.91    8.20
   4  -5   7  164.98    7.97
   4  -5   7  161.76    8.04
  -4   5  -7  174.49    8.22
   4   5   7  166.75    8.00
   5  -5   7   20.96    1.29
   5  -5   7   22.70    1.26
  -5  -5  -7   21.85    1.47
  -5   5  -7   21.07    1.44
   5   5   7   23.55    1.31
   6  -5   7  146.36    7.06
  -6  -5  -7  147.72    7.32
  -6   5  -7  145.68    7.29
   6   5   7  148.16    7.11
   7  -5   7    8.07    0.68
  -7  -5  -7    8.10    0.87
   7   5   7    7.98    0.70
  -7   5  -7    7.33    0.79
  -8  -5  -7  114.03    6.10
   8   5   7  122.58    5.86
  -9  -5  -7    2.77    0.64
   9   5   7    2.92    0.59
 -11  -6   7   52.74    2.81
  11  -6  -7   51.55    2.69
  11   6  -7   47.00    2.79
 -11   6   7   50.21    2.85
 -11   6   7   49.83    3.37
  10  -6  -7   18.04    1.17
 -10  -6   7   18.73    1.29
  10   6  -7   18.74    1.21
 -10   6   7   19.07    1.34
 -10   6   7   15.96    1.67
   9  -6  -7   61.41    3.06
  -9  -6   7   57.62    3.17
  -9   6   7   59.18    3.23
   9   6  -7   60.21    3.10
  -9   6   7   59.84    3.73
   8  -6  -7    2.09    0.35
  -8  -6   7    0.94    0.34
  -8   6   7    2.04    0.46
   8   6  -7    1.70    0.36
  -8   6   7    1.52    0.61
   7  -6  -7   38.11    1.91
  -7  -6   7   35.18    2.04
  -7   6   7   32.00    2.03
   7   6  -7   35.92    1.94
  -7   6   7   37.85    2.52
  -6  -6   7    1.54    0.39
   6  -6  -7    1.92    0.30
  -6   6   7    1.66    0.39
  -6   6   7    1.43    0.55
   6   6  -7    1.67    0.32
   5  -6  -7   71.78    3.62
  -5  -6   7   68.52    3.77
  -5   6   7   70.64    3.78
   5   6  -7   76.03    3.69
  -5   6   7   78.84    4.26
   5   6  -7   78.32    3.77
  -4  -6   7   11.77    0.91
   4  -6  -7   11.64    0.73
  -4   6   7   10.69    0.86
   4   6  -7   12.77    0.89
   4   6  -7   11.47    0.78
  -4   6   7    9.42    1.08
   3  -6  -7   92.24    4.53
  -3  -6   7   84.78    4.69
   3   6  -7   98.50    4.72
  -3   6   7   90.79    4.67
  -3   6   7   99.44    5.06
   3   6  -7   97.53    4.60
   2  -6  -7   11.47    0.74
  -2  -6   7   11.72    0.93
   2   6  -7   12.43    0.92
   2   6  -7   11.88    0.81
  -2   6   7   12.32    0.88
  -2   6   7   13.28    1.14
   1  -6  -7   20.32    1.20
  -1  -6   7   25.01    1.45
   1   6  -7   22.70    1.42
  -1   6   7   23.60    1.60
  -1   6   7   21.74    1.34
   1   6  -7   21.58    1.27
   0  -6   7    2.36    0.34
   0  -6  -7    2.13    0.29
   0  -6   7    2.16    0.43
   0   6   7    1.81    0.27
   0   6   7    2.07    0.52
   0   6  -7    2.28    0.45
   0   6   7    1.69    0.34
   1  -6   7  187.72    9.32
   1  -6   7  195.87    9.18
   1   6   7  195.21    9.20
   1   6   7  205.83    9.53
   1   6   7  190.79    9.24
  -1   6  -7  192.53    9.38
   1   6   7  185.09    9.14
   2  -6   7   63.51    3.21
  -2  -6  -7   59.19    3.08
   2  -6   7   60.64    3.07
  -2   6  -7   58.41    3.28
   2   6   7   59.75    3.07
   2   6   7   66.43    3.41
   2   6   7   62.89    3.12
   3  -6   7   93.08    4.36
   3  -6   7   88.13    4.45
  -3  -6  -7   88.12    4.55
   3   6   7   87.81    4.36
  -3   6  -7   86.23    4.57
   4  -6   7    7.70    0.61
  -4  -6  -7    7.47    0.77
   4  -6   7    7.35    0.67
   4   6   7    8.23    0.65
  -4   6  -7    6.61    0.77
  -5  -6  -7    3.87    0.59
   5  -6   7    3.55    0.45
  -5   6  -7    3.22    0.62
   5   6   7    3.42    0.46
  -6  -6  -7    8.85    0.90
   6  -6   7    9.74    0.73
   6   6   7    8.43    0.74
  -6   6  -7    8.46    0.90
  -7  -6  -7   35.46    2.26
   7  -6   7   37.12    2.05
   7   6   7   37.59    2.08
  -7   6  -7   37.14    2.27
  -8  -6  -7   25.03    1.73
   8   6   7   23.12    1.51
  10  -7  -7   10.96    0.87
 -10   7   7    9.69    1.43
 -10   7   7   10.43    1.03
   9  -7  -7    3.53    0.49
  -9  -7   7    3.46    0.60
   9   7  -7    3.29    0.50
  -9   7   7    3.03    0.60
  -9   7   7    2.94    0.82
  -8  -7   7    8.22    0.82
   8  -7  -7    7.42    0.66
  -8   7   7    7.50    0.83
  -8   7   7    8.33    1.22
   8   7  -7    7.15    0.69
  -7  -7   7    3.49    0.59
   7  -7  -7    3.71    0.48
   7   7  -7    4.02    0.53
  -7   7   7    3.89    0.84
  -7   7   7    4.13    0.64
   6  -7  -7    1.38    0.30
  -6  -7   7    1.88    0.43
   6   7  -7    1.15    0.32
  -6   7   7    0.79    0.36
  -6   7   7    1.29    0.59
  -5  -7   7    8.08    0.76
   5  -7  -7    7.60    0.60
  -5   7   7    7.02    0.74
   5   7  -7    7.11    0.64
  -5   7   7    6.72    1.02
   4  -7  -7   52.37    2.67
  -4  -7   7   45.10    2.82
   4   7  -7   55.31    2.85
   4   7  -7   52.27    2.73
  -4   7   7   60.06    3.26
  -4   7   7   51.86    2.85
  -3  -7   7    0.95    0.33
   3  -7  -7    0.61    0.21
  -3   7   7    0.84    0.44
  -3   7   7    1.03    0.34
   3   7  -7    1.02    0.35
   3   7  -7    0.77    0.27
  -2  -7   7   19.07    1.23
   2  -7  -7   15.49    0.98
   2   7  -7   15.44    1.16
  -2   7   7   18.04    1.39
   2   7  -7   16.55    1.06
  -2   7   7   15.18    1.12
   1  -7  -7    0.11    0.18
  -1  -7   7    0.88    0.36
   1   7  -7    0.23    0.22
  -1   7   7    0.18    0.34
  -1   7   7    0.24    0.25
   1   7  -7    0.27    0.29
   0  -7  -7    3.90    0.42
   0  -7   7    4.71    0.63
   0  -7   7    4.71    0.49
   0   7   7    3.95    0.54
   0   7   7    3.95    0.68
   0   7  -7    4.42    0.63
   1  -7   7    4.17    0.59
   1  -7   7    3.41    0.44
   1   7   7    4.04    0.66
   1   7   7    3.82    0.50
  -1   7  -7    3.46    0.60
   1   7   7    4.17    0.55
   2  -7   7   49.17    2.86
  -2  -7  -7   50.21    2.91
   2  -7   7   58.93    2.80
  -2   7  -7   51.81    2.98
   2   7   7   54.00    2.76
   2   7   7   58.40    2.83
   3  -7   7    8.52    0.80
  -3  -7  -7   10.51    0.92
   3  -7   7   11.26    0.78
  -3   7  -7   10.28    0.98
   3   7   7    9.25    0.74
   4  -7   7    3.15    0.44
  -4  -7  -7    2.23    0.53
  -4   7  -7    2.04    0.52
   4   7   7    2.84    0.43
   5  -7   7    5.44    0.60
  -5   7  -7    6.89    0.91
   5   7   7    6.52    0.63
   6  -7   7    5.41    0.60
  -6   7  -7    4.36    0.74
   6   7   7    5.51    0.64
   7  -7   7    3.08    0.56
  -7   7  -7    1.56    0.53
   7   7   7    1.33    0.58
   8  -8  -7   13.30    0.97
  -8  -8   7   13.46    1.52
   8   8  -7   12.82    1.02
  -8   8   7   13.59    1.20
   7  -8  -7  159.60    8.12
  -7  -8   7  172.08    8.32
  -7   8   7  171.85    8.41
   7   8  -7  171.27    8.19
   6  -8  -7    1.20    0.31
  -6  -8   7    1.49    0.46
   6   8  -7    1.44    0.38
  -6   8   7    1.10    0.47
   5  -8  -7   91.98    4.72
  -5  -8   7   92.45    4.91
  -5   8   7   94.89    4.96
   5   8  -7  103.91    4.83
  -4  -8   7   36.92    2.20
   4  -8  -7   36.54    2.00
   4   8  -7   37.73    2.08
  -4   8   7   36.26    2.21
   4   8  -7   38.45    2.20
  -3  -8   7   32.71    2.02
   3  -8  -7   32.49    1.82
   3   8  -7   33.09    2.02
  -3   8   7   33.36    2.02
   3   8  -7   35.88    1.93
  -2  -8   7   12.41    1.00
   2  -8  -7   10.13    0.77
   2   8  -7   10.13    0.83
  -2   8   7   10.33    0.93
   2   8  -7   10.18    0.95
   1  -8  -7  228.60   10.99
  -1  -8   7  228.81   11.19
  -1  -8   7  251.57   11.05
   1   8  -7  236.17   11.07
   1   8  -7  214.76   11.20
  -1   8   7  227.11   11.15
   0  -8   7   30.22    1.60
   0  -8  -7   24.22    1.50
   0  -8   7   27.25    1.71
   0   8  -7   24.65    1.72
   0   8   7   26.86    1.66
   1  -8   7  229.51   10.19
   1  -8   7  199.90   10.28
  -1  -8  -7  211.73   10.13
  -1   8  -7  208.53   10.40
   2  -8   7    5.43    0.60
  -2   8  -7    4.92    0.76
  -3  -8  -7   81.95    4.02
   3  -8   7   83.37    4.00
  -3   8  -7   70.55    4.21
  -4  -8  -7   12.44    1.01
   4  -8   7   16.48    1.05
  -4   8  -7   13.14    1.24
  -5  -8  -7  101.49    5.14
   5  -8   7  110.16    5.11
  -5   8  -7   93.61    5.35
  -5  -9   7    2.35    0.56
   5  -9  -7    1.80    0.39
  -5   9   7    2.20    0.60
   5   9  -7    1.49    0.40
  -4  -9   7   64.35    3.53
   4  -9  -7   62.28    3.31
  -4   9   7   66.56    3.59
   4   9  -7   64.51    3.40
  -3  -9   7    3.85    0.68
   3  -9  -7    7.01    0.64
   3   9  -7    5.19    0.66
   3   9  -7    4.45    0.70
  -3   9   7    5.37    0.79
  -2  -9   7  106.63    5.14
   2  -9  -7   90.71    4.85
   2   9  -7   92.96    5.09
  -2   9   7  101.37    5.11
   2   9  -7  100.27    4.97
  -1  -9   7   34.07    1.85
  -1  -9   7   33.91    1.99
   1  -9  -7   29.33    1.76
  -1   9   7   28.98    1.93
   1   9  -7   29.79    1.99
   0  -9   7   49.94    2.51
   0  -9   7   48.05    2.66
   0  -9  -7   41.49    2.42
   0   9   7   44.58    2.60
   0   9  -7   43.55    2.68
   1  -9   7   11.08    0.88
  -1   9  -7    9.80    1.06
   2  -9   7   99.21    4.59
  -2   9  -7   80.44    4.87
 -14   0   8    3.13    1.17
  13   0  -8  136.16    6.72
 -13   0   8  141.01    7.32
 -12   0   8    4.51    0.82
  12   0  -8    4.91    0.52
  11   0  -8  155.35    7.33
 -11   0   8  150.01    7.78
  10   0  -8   17.18    1.01
 -10   0   8   16.53    1.34
  -9   0   8  233.59   11.61
   9   0  -8  242.88   11.24
  -8   0   8   57.76    3.14
   8   0  -8   58.26    2.79
   8   0  -8   54.28    2.79
   7   0  -8  400.30   17.76
  -7   0   8  370.67   18.06
   7   0  -8  392.07   17.73
  -7   0   8  355.26   17.79
   6   0  -8    0.97    0.19
  -6   0   8    0.86    0.20
  -6   0   8    1.00    0.32
   6   0  -8    0.99    0.16
  -5   0   8   65.08    3.57
   5   0  -8   68.77    3.32
   5   0  -8   69.89    3.26
  -5   0   8   68.00    3.36
  -4   0   8    0.84    0.30
   4   0  -8    1.79    0.24
  -4   0   8    0.98    0.20
   4   0  -8    1.47    0.16
   3   0  -8  539.79   26.77
   3   0  -8  574.11   26.83
  -3   0   8  556.57   27.03
  -3   0   8  627.82   26.80
  -2   0   8   88.39    4.08
   2   0  -8   77.80    4.07
  -2   0   8   80.75    4.29
   2   0  -8   88.42    3.95
  -1   0   8  657.08   33.21
   1   0  -8  661.73   33.01
  -1   0   8  810.53   33.34
   0   0   8   35.27    1.99
   0   0  -8   30.50    1.77
   0   0   8   38.57    1.78
   1   0   8   76.55    3.75
  -1   0  -8   80.36    3.80
   1   0   8   74.89    3.97
  -2   0  -8   67.21    3.46
   2   0   8   69.77    3.35
  -2   0  -8   68.00    3.38
  -3   0  -8  288.70   13.80
   3   0   8  301.03   13.67
  -3   0  -8  283.06   13.69
  -4   0  -8    1.09    0.28
   4   0   8    1.67    0.27
  -4   0  -8    1.58    0.28
  -5   0  -8  419.14   18.71
   5   0   8  412.95   18.51
  -5   0  -8  352.15   18.47
   6   0   8   17.75    1.08
  -6   0  -8   17.86    1.27
  -7   0  -8  108.87    5.61
   7   0   8  110.59    5.36
   8   0   8   24.69    1.43
  -8   0  -8   23.56    1.69
  -9   0  -8   84.85    4.57
   9   0   8   83.25    4.22
 -10   0  -8   16.53    1.47
  10   0   8   16.99    1.15
 -13  -1   8    5.35    0.97
  13  -1  -8    5.91    0.59
 -13   1   8    5.09    0.93
  13   1  -8    5.84    0.59
  12  -1  -8  102.25    4.87
 -12  -1   8   97.66    5.33
 -12   1   8   98.25    5.41
  12   1  -8   97.04    4.87
  11  -1  -8   28.30    1.55
 -11  -1   8   27.71    1.92
  11   1  -8   28.43    1.57
 -11   1   8   27.77    2.00
  10  -1  -8   92.56    4.40
 -10  -1   8   88.39    4.76
  10   1  -8   89.19    4.41
 -10   1   8   91.13    4.87
  -9  -1   8   11.59    0.76
  -9  -1   8    9.37    0.89
   9  -1  -8   10.88    0.68
   9  -1  -8    9.90    0.67
   9   1  -8    9.92    0.67
  -9   1   8   10.39    0.99
   8  -1  -8   16.57    0.96
  -8  -1   8   16.59    1.20
  -8  -1   8   16.43    1.01
   8  -1  -8   17.67    0.95
   8   1  -8   16.85    0.96
   8   1  -8   17.40    0.97
  -8   1   8   15.08    1.24
  -7  -1   8    0.70    0.28
   7  -1  -8    0.97    0.20
  -7  -1   8    1.09    0.24
   7  -1  -8    1.28    0.19
   7   1  -8    1.20    0.22
   7   1  -8    1.78    0.23
  -7   1   8    1.20    0.38
   6  -1  -8   85.63    4.07
   6  -1  -8   83.96    4.01
  -6  -1   8   82.90    4.28
  -6  -1   8   85.15    4.14
   6   1  -8   88.21    4.08
  -6   1   8   79.09    4.02
   6   1  -8   82.80    4.02
  -6   1   8   84.42    4.40
   5  -1  -8    7.29    0.44
  -5  -1   8    5.73    0.52
  -5  -1   8    7.02    0.65
   5  -1  -8    7.00    0.50
  -5   1   8    7.86    0.47
   5   1  -8    7.74    0.52
  -5   1   8    7.69    0.74
   5   1  -8    7.33    0.45
  -4  -1   8  262.39   12.45
   4  -1  -8  262.99   12.25
  -4  -1   8  231.42   12.30
   4  -1  -8  270.95   12.16
   4   1  -8  265.36   12.28
  -4   1   8  271.01   12.21
   4   1  -8  261.34   12.17
   3  -1  -8    2.79    0.28
   3  -1  -8    2.63    0.19
  -3  -1   8    2.90    0.33
  -3  -1   8    2.31    0.39
   3   1  -8    2.54    0.20
   3   1  -8    2.56    0.29
  -3   1   8    2.40    0.44
  -3   1   8    2.54    0.24
  -2  -1   8   62.34    3.28
   2  -1  -8   68.62    2.98
  -2  -1   8   60.20    3.15
   2  -1  -8   59.96    3.09
   2   1  -8   67.72    3.15
  -2   1   8   61.19    3.37
   2   1  -8   63.43    3.00
  -2   1   8   63.47    3.06
  -1  -1   8   27.88    1.46
  -1  -1   8   24.44    1.55
  -1   1   8   25.19    1.64
  -1   1   8   26.86    1.38
   1   1  -8   29.07    1.48
   1   1  -8   28.18    1.31
   0  -1   8  210.64   11.13
   0  -1  -8  248.02   11.00
   0  -1   8  232.61   10.86
   0  -1   8  255.71   11.04
   0   1  -8  221.90   11.03
   0   1   8  222.79   11.25
   0   1   8  242.65   10.97
   1  -1   8   11.33    0.58
  -1  -1  -8   12.48    0.71
   1  -1   8   12.48    0.73
   1   1   8    9.69    0.86
   1   1   8   11.12    0.68
  -1   1  -8   11.83    0.76
  -1   1  -8   11.76    0.75
   2  -1   8  141.72    6.72
  -2  -1  -8  134.06    6.83
   2  -1   8  151.00    6.59
  -2   1  -8  141.12    6.79
   2   1   8  128.86    6.93
   2   1   8  146.12    6.70
  -2   1  -8  140.65    6.76
   3  -1   8   18.58    1.04
  -3  -1  -8   18.66    1.18
  -3  -1  -8   16.77    1.03
  -3   1  -8   18.25    1.08
  -3   1  -8   17.99    1.13
   3   1   8   19.43    1.04
  -4  -1  -8    5.49    0.44
   4  -1   8    4.46    0.42
  -4  -1  -8    4.67    0.54
  -4   1  -8    3.55    0.42
   4   1   8    4.50    0.41
  -4   1  -8    5.53    0.55
  -5  -1  -8    8.29    0.78
   5  -1   8    9.24    0.64
  -5   1  -8    8.46    0.66
   5   1   8    8.50    0.63
  -5   1  -8    9.09    0.78
  -6  -1  -8   76.61    4.04
   6  -1   8   74.43    3.81
  -6   1  -8   79.63    4.04
   6   1   8   77.73    3.82
  -7  -1  -8    2.34    0.53
   7  -1   8    1.48    0.32
   7   1   8    1.46    0.32
  -7   1  -8    2.08    0.46
   8  -1   8   58.80    3.19
  -8  -1  -8   65.77    3.53
  -8   1  -8   64.46    3.51
   8   1   8   63.40    3.22
   9  -1   8   27.34    1.62
  -9  -1  -8   29.02    1.95
  -9   1  -8   27.24    1.93
   9   1   8   28.30    1.64
  10  -1   8   34.04    2.03
 -10  -1  -8   36.79    2.42
  10   1   8   37.28    2.08
 -10   1  -8   39.70    2.49
  13  -2  -8   16.68    1.08
 -13  -2   8   16.87    1.48
  13   2  -8   15.93    1.09
 -13   2   8   16.23    1.57
  12  -2  -8    2.55    0.39
 -12  -2   8    3.18    0.68
  12   2  -8    1.72    0.35
 -12   2   8    1.93    0.66
 -11  -2   8    7.07    0.87
  11  -2  -8    8.60    0.64
  11   2  -8    7.71    0.64
 -11   2   8    8.52    1.01
 -10  -2   8   46.13    2.32
  10  -2  -8   41.95    2.21
 -10  -2   8   42.94    2.52
 -10   2   8   43.43    2.70
  10   2  -8   40.54    2.22
  -9  -2   8   19.35    1.38
   9  -2  -8   20.41    1.16
   9  -2  -8   20.19    1.15
  -9  -2   8   22.25    1.26
   9   2  -8   20.69    1.17
  -9   2   8   19.45    1.54
   8  -2  -8   14.09    0.84
  -8  -2   8   17.43    0.99
  -8  -2   8   13.76    1.05
   8  -2  -8   13.81    0.87
   8   2  -8   14.98    0.88
  -8   2   8   13.45    1.22
  -7  -2   8    3.15    0.48
  -7  -2   8    2.43    0.37
   7  -2  -8    3.16    0.29
   7  -2  -8    3.32    0.34
  -7   2   8    3.03    0.60
   7   2  -8    3.13    0.36
   7   2  -8    2.84    0.33
  -6  -2   8    2.91    0.39
   6  -2  -8    3.16    0.33
   6  -2  -8    3.22    0.27
  -6  -2   8    3.33    0.47
   6   2  -8    2.87    0.29
  -6   2   8    2.61    0.55
   6   2  -8    3.33    0.35
   5  -2  -8   50.84    2.38
  -5  -2   8   46.37    2.53
  -5  -2   8   48.27    2.59
   5  -2  -8   48.32    2.46
   5   2  -8   48.79    2.49
   5   2  -8   51.63    2.42
  -5   2   8   49.23    2.83
  -4  -2   8   17.80    1.05
  -4  -2   8   16.61    1.07
   4  -2  -8   16.69    0.95
   4  -2  -8   16.29    0.86
  -4   2   8   15.15    1.22
   4   2  -8   17.36    0.90
  -4   2   8   16.61    0.85
   4   2  -8   15.90    0.98
  -3  -2   8   76.21    3.70
   3  -2  -8   70.74    3.48
   3  -2  -8   74.53    3.59
  -3  -2   8   74.84    3.72
  -3   2   8   75.11    3.50
   3   2  -8   70.61    3.63
   3   2  -8   72.88    3.52
  -3   2   8   73.80    3.94
   2  -2  -8    8.81    0.46
  -2  -2   8    8.25    0.65
  -2  -2   8    8.82    0.64
   2  -2  -8    8.64    0.57
  -2   2   8    9.66    0.52
   2   2  -8    9.24    0.63
  -2   2   8    7.56    0.78
   2   2  -8    7.92    0.49
  -1  -2   8   35.24    1.86
   1  -2  -8   34.45    1.65
   1  -2  -8   35.69    1.78
  -1  -2   8   33.51    1.87
  -1   2   8   33.71    2.06
   1   2  -8   36.16    1.85
   1   2  -8   33.97    1.70
  -1   2   8   34.74    1.73
   0  -2   8   12.06    0.87
   0  -2  -8   14.17    0.81
   0  -2   8   14.08    0.71
   0  -2   8   13.86    0.87
   0  -2  -8   13.37    0.67
   0   2   8   12.72    1.03
   0   2  -8   14.19    0.88
   0   2   8   14.06    0.77
  -1  -2  -8   95.57    4.46
   1  -2   8   95.32    4.53
   1  -2   8   92.30    4.36
  -1   2  -8   80.49    4.50
   1   2   8  100.28    4.45
  -1   2  -8   89.03    4.49
   1   2   8   95.09    4.76
   2  -2   8    1.70    0.17
  -2  -2  -8    0.76    0.18
   2  -2   8    1.87    0.29
  -2   2  -8    0.92    0.23
   2   2   8    1.66    0.41
  -2   2  -8    1.15    0.26
   2   2   8    1.43    0.23
   3  -2   8    5.25    0.36
   3  -2   8    5.16    0.45
  -3  -2  -8    6.29    0.60
  -3  -2  -8    5.46    0.43
  -3   2  -8    5.08    0.51
  -3   2  -8    5.68    0.51
   3   2   8    5.79    0.45
   4  -2   8    7.86    0.57
  -4  -2  -8    5.94    0.51
  -4  -2  -8    7.43    0.70
  -4   2  -8    7.77    0.64
  -4   2  -8    7.82    0.65
   4   2   8    7.73    0.56
   5  -2   8   25.02    1.40
  -5  -2  -8   24.18    1.56
  -5   2  -8   23.89    1.51
  -5   2  -8   23.46    1.45
   5   2   8   27.17    1.41
   6  -2   8    5.66    0.51
  -6  -2  -8    5.77    0.68
   6   2   8    5.47    0.51
  -6   2  -8    4.68    0.64
  -6   2  -8    5.07    0.55
   7  -2   8   19.21    1.21
  -7  -2  -8   21.09    1.45
   7   2   8   20.88    1.24
  -7   2  -8   20.31    1.43
   8  -2   8    0.17    0.21
  -8  -2  -8    0.02    0.30
  -8   2  -8    0.19    0.33
   8   2   8    0.33    0.26
  -9  -2  -8    5.98    0.88
   9  -2   8    6.86    0.64
  -9   2  -8    6.40    0.90
   9   2   8    6.17    0.64
 -10  -2  -8   28.94    2.09
 -10   2  -8   30.65    2.16
  10   2   8   31.19    1.80
  13  -3  -8   26.01    1.54
  13   3  -8   26.11    1.57
 -13   3   8   25.80    2.11
 -12  -3   8  180.31    9.56
  12  -3  -8  202.21    9.25
  12   3  -8  189.45    9.26
 -12   3   8  199.37    9.93
  11  -3  -8    0.99    0.26
 -11  -3   8    1.04    0.41
 -11  -3   8    1.21    0.34
  11   3  -8    1.18    0.31
 -11   3   8    0.86    0.54
 -10  -3   8  173.10    7.97
 -10  -3   8  149.90    8.09
  10  -3  -8  170.33    7.86
  10  -3  -8  160.10    7.86
 -10   3   8  171.01    8.48
  10   3  -8  162.46    7.88
   9  -3  -8    6.19    0.51
  -9  -3   8    6.44    0.68
  -9  -3   8    7.09    0.63
   9  -3  -8    6.32    0.55
  -9   3   8    7.00    1.00
   9   3  -8    6.96    0.54
  -8  -3   8  140.34    7.04
   8  -3  -8  142.32    6.89
  -8  -3   8  145.49    6.97
   8  -3  -8  144.91    6.84
  -8   3   8  145.91    7.41
   8   3  -8  143.19    6.87
   7  -3  -8   29.86    1.65
   7  -3  -8   32.53    1.60
  -7  -3   8   30.30    1.76
  -7  -3   8   27.68    1.70
   7   3  -8   30.99    1.66
   7   3  -8   32.40    1.64
  -7   3   8   33.19    2.12
   6  -3  -8  273.49   12.36
  -6  -3   8  258.79   12.53
  -6  -3   8  260.68   12.51
   6  -3  -8  264.90   12.44
   6   3  -8  273.28   12.46
   6   3  -8  248.05   12.39
  -6   3   8  267.88   12.93
   5  -3  -8    1.22    0.24
   5  -3  -8    1.00    0.16
  -5  -3   8    0.89    0.25
  -5  -3   8    1.69    0.30
  -5   3   8    0.84    0.40
   5   3  -8    1.07    0.24
   5   3  -8    0.83    0.18
   4  -3  -8  335.31   14.99
  -4  -3   8  297.94   15.06
   4  -3  -8  308.72   14.87
  -4  -3   8  330.06   15.05
   4   3  -8  315.26   14.91
  -4   3   8  309.38   15.40
   4   3  -8  334.88   15.03
  -3  -3   8    1.60    0.32
   3  -3  -8    0.86    0.20
  -3  -3   8    1.32    0.26
   3  -3  -8    1.10    0.14
   3   3  -8    1.03    0.24
   3   3  -8    0.94    0.17
  -3   3   8    1.10    0.14
  -3   3   8    0.69    0.31
   2  -3  -8  364.09   16.97
   2  -3  -8  345.55   16.85
  -2  -3   8  359.13   17.00
  -2  -3   8  374.47   17.11
   2   3  -8  363.20   16.91
   2   3  -8  379.65   17.04
  -2   3   8  377.70   16.88
  -2   3   8  332.09   17.31
   1  -3  -8   79.22    3.64
  -1  -3   8   62.64    3.61
  -1  -3   8   75.36    3.74
   1  -3  -8   77.49    3.51
   1   3  -8   73.96    3.70
   1   3  -8   76.09    3.57
  -1   3   8   74.36    3.97
  -1   3   8   74.44    3.56
   0  -3   8  103.38    5.19
   0  -3  -8  113.34    5.11
   0  -3   8  111.51    5.02
   0  -3  -8  106.94    4.98
   0   3   8  103.09    5.04
   0   3  -8  107.29    5.07
   0   3   8  103.85    5.43
   0   3  -8   97.79    5.16
   1  -3   8   93.69    4.45
  -1  -3  -8   98.28    4.53
   1  -3   8   91.19    4.61
   1   3   8   96.36    4.85
  -1   3  -8   85.61    4.61
   1   3   8  103.05    4.50
  -1   3  -8   87.95    4.51
   1   3   8   93.45    4.50
   2  -3   8  206.13    9.63
  -2  -3  -8  200.39    9.54
   2  -3   8  218.42    9.49
   2   3   8  205.10    9.88
   2   3   8  188.10    9.53
  -2   3  -8  204.02    9.59
  -2   3  -8  193.21    9.67
  -3  -3  -8    0.95    0.20
  -3  -3  -8    1.48    0.35
   3  -3   8    1.23    0.19
   3  -3   8    1.79    0.30
  -3   3  -8    1.49    0.28
  -3   3  -8    0.68    0.26
   3   3   8    0.91    0.20
   4  -3   8  209.86    9.16
  -4  -3  -8  187.07    9.41
   4  -3   8  187.57    9.25
   4   3   8  199.78    9.22
  -4   3  -8  194.65    9.32
  -4   3  -8  185.48    9.34
   5  -3   8    1.90    0.33
  -5  -3  -8    2.08    0.45
  -5   3  -8    2.07    0.40
   5   3   8    1.82    0.30
  -5   3  -8    2.07    0.40
  -6  -3  -8  125.04    6.25
   6  -3   8  122.31    6.01
  -6   3  -8  127.90    6.20
   6   3   8  123.00    6.01
  -6   3  -8  121.46    6.11
  -7  -3  -8   97.93    5.31
   7  -3   8  101.19    5.06
   7   3   8  105.50    5.08
  -7   3  -8  107.72    5.32
   8  -3   8  170.13    8.37
  -8  -3  -8  171.29    8.69
  -8   3  -8  181.93    8.70
   8   3   8  173.73    8.40
  -9  -3  -8    5.66    0.86
  -9   3  -8    6.98    0.95
   9   3   8    7.11    0.66
 -12  -4   8    6.40    0.72
  12  -4  -8    6.74    0.63
 -12   4   8    5.64    1.06
  12   4  -8    5.60    0.64
 -11  -4   8  176.72    8.48
  11  -4  -8  177.67    8.36
 -11   4   8  171.08    9.05
  11   4  -8  170.98    8.40
  10  -4  -8   45.96    2.38
 -10  -4   8   46.29    2.45
  10  -4  -8   43.23    2.32
 -10   4   8   41.01    2.86
  10   4  -8   44.91    2.37
   9  -4  -8   88.95    4.24
  -9  -4   8   84.59    4.36
  -9   4   8   87.39    4.87
  -9   4   8   84.74    4.35
   9   4  -8   87.02    4.29
   8  -4  -8    0.40    0.19
  -8  -4   8    0.42    0.28
   8   4  -8    0.76    0.22
  -8   4   8    0.29    0.40
  -8   4   8    0.50    0.24
  -7  -4   8   45.44    2.45
   7  -4  -8   47.66    2.31
  -7   4   8   45.48    2.43
  -7   4   8   42.61    2.83
   7   4  -8   46.69    2.36
   6  -4  -8    1.41    0.22
  -6  -4   8    1.17    0.31
   6   4  -8    1.29    0.25
   6   4  -8    1.29    0.28
  -6   4   8    1.08    0.48
  -6   4   8    1.09    0.28
   5  -4  -8  298.70   13.33
  -5  -4   8  272.54   13.50
  -5   4   8  294.73   13.97
  -5   4   8  274.38   13.45
   5   4  -8  281.95   13.37
   5   4  -8  285.61   13.44
   4  -4  -8    2.02    0.24
  -4  -4   8    2.30    0.40
   4   4  -8    1.72    0.25
  -4   4   8    2.21    0.56
  -4   4   8    2.40    0.37
   4   4  -8    1.87    0.34
   3  -4  -8  240.86   11.42
  -3  -4   8  259.39   11.68
   3   4  -8  253.85   11.61
  -3   4   8  240.92   11.56
  -3   4   8  226.70   11.93
   3   4  -8  242.03   11.48
  -2  -4   8    2.59    0.42
   2  -4  -8    3.01    0.25
   2  -4  -8    2.63    0.32
  -2   4   8    3.03    0.59
   2   4  -8    2.45    0.39
   2   4  -8    2.33    0.29
  -2   4   8    2.63    0.24
   1  -4  -8   80.95    3.77
  -1  -4   8   78.48    3.91
   1  -4  -8   73.85    3.65
   1   4  -8   70.80    3.84
  -1   4   8   78.40    4.13
   1   4  -8   75.37    3.71
  -1   4   8   78.57    3.68
   0  -4  -8   55.26    2.70
   0  -4   8   55.46    2.63
   0  -4   8   51.08    2.80
   0  -4  -8   53.66    2.59
   0   4   8   52.72    2.63
   0   4  -8   50.71    2.79
   0   4   8   56.48    3.07
   1  -4   8  234.07   10.79
   1  -4   8  206.83   10.93
  -1  -4  -8  243.47   10.86
   1   4   8  214.63   10.80
   1   4   8  233.14   11.20
  -1   4  -8  221.23   10.99
   1   4   8  255.61   10.89
   2  -4   8   29.51    1.49
   2  -4   8   26.47    1.61
  -2  -4  -8   31.42    1.54
   2   4   8   29.10    1.53
   2   4   8   28.13    1.82
  -2   4  -8   27.27    1.68
  -3  -4  -8   48.28    2.34
   3  -4   8   48.85    2.32
   3  -4   8   42.98    2.41
  -3  -4  -8   46.78    2.56
  -3   4  -8   45.11    2.52
   3   4   8   45.42    2.36
  -4  -4  -8   12.40    1.01
   4  -4   8   12.71    0.90
   4  -4   8   14.69    0.82
   4   4   8   14.14    0.88
  -4   4  -8   13.31    1.01
   5  -4   8   55.29    2.98
  -5  -4  -8   57.86    3.17
  -5   4  -8   59.22    3.13
   5   4   8   60.93    2.98
   6  -4   8    3.17    0.44
  -6  -4  -8    3.83    0.62
  -6   4  -8    3.58    0.56
   6   4   8    3.22    0.43
   7  -4   8  148.95    7.19
  -7  -4  -8  149.52    7.47
  -7   4  -8  146.25    7.46
   7   4   8  150.02    7.21
  -8  -4  -8   11.25    1.10
   8   4   8   10.87    0.86
  -9  -4  -8   79.99    4.39
   9   4   8   79.88    4.10
 -12  -5   8    0.34    0.34
  12  -5  -8    0.26    0.27
 -12   5   8    0.40    0.58
 -11  -5   8    2.96    0.51
  11  -5  -8    3.06    0.45
  11   5  -8    3.83    0.51
 -11   5   8    2.41    0.78
 -11   5   8    3.03    0.53
 -10  -5   8    1.10    0.38
  10  -5  -8    0.93    0.29
 -10   5   8    0.56    0.32
  10   5  -8    0.99    0.32
 -10   5   8    0.62    0.56
  -9  -5   8    0.10    0.27
   9  -5  -8    0.42    0.24
  -9   5   8    0.32    0.28
   9   5  -8    0.18    0.23
  -9   5   8    0.48    0.43
  -8  -5   8    1.29    0.35
   8  -5  -8    0.97    0.25
   8   5  -8    0.99    0.27
  -8   5   8    0.96    0.55
  -8   5   8    1.41    0.37
  -7  -5   8    0.06    0.24
   7  -5  -8    0.28    0.18
  -7   5   8    0.61    0.27
  -7   5   8    0.22    0.42
   7   5  -8    0.16    0.18
   6  -5  -8    9.70    0.65
  -6  -5   8   10.79    0.83
  -6   5   8    9.20    1.11
   6   5  -8    9.21    0.68
   6   5  -8   10.55    0.78
  -6   5   8    9.39    0.77
  -5  -5   8    0.12    0.23
   5  -5  -8    0.36    0.16
   5   5  -8    0.33    0.23
  -5   5   8    0.44    0.39
   5   5  -8    0.46    0.18
  -5   5   8    0.19    0.22
  -4  -5   8    8.76    0.74
   4  -5  -8    7.84    0.54
  -4   5   8    7.91    1.06
   4   5  -8    8.31    0.70
   4   5  -8    8.70    0.60
  -4   5   8    7.81    0.67
  -3  -5   8   22.56    1.39
   3  -5  -8   21.95    1.16
   3   5  -8   21.80    1.22
  -3   5   8   22.56    1.31
  -3   5   8   20.29    1.60
   3   5  -8   20.52    1.33
   2  -5  -8   51.92    2.59
  -2  -5   8   54.21    2.85
   2   5  -8   52.10    2.80
  -2   5   8   54.42    3.12
   2   5  -8   53.01    2.66
  -2   5   8   52.54    2.74
  -1  -5   8    5.29    0.56
   1  -5  -8    4.38    0.35
   1   5  -8    4.36    0.41
  -1   5   8    4.32    0.47
  -1   5   8    4.22    0.36
  -1   5   8    4.61    0.72
   1   5  -8    4.76    0.59
   0  -5   8    0.97    0.30
   0  -5  -8    0.67    0.15
   0  -5   8    1.03    0.21
   0  -5  -8    0.90    0.24
   0   5   8    1.11    0.43
   0   5   8    1.16    0.21
   0   5  -8    0.87    0.31
   1  -5   8    8.04    0.71
   1  -5   8    8.48    0.57
  -1  -5  -8    8.08    0.60
   1   5   8    8.21    0.85
  -1   5  -8    6.87    0.71
   1   5   8    7.76    0.56
  -2  -5  -8   11.65    0.79
   2  -5   8   12.79    0.91
   2  -5   8   12.20    0.76
   2   5   8   13.37    1.10
  -2   5  -8   12.84    0.98
   2   5   8   11.92    0.78
  -3  -5  -8    0.48    0.29
   3  -5   8    0.18    0.16
   3  -5   8    1.65    0.34
  -3   5  -8    0.21    0.24
   3   5   8    0.13    0.17
  -4  -5  -8    2.47    0.50
   4  -5   8    3.67    0.39
   4  -5   8    3.46    0.47
   4   5   8    3.57    0.41
  -4   5  -8    3.68    0.57
  -5  -5  -8    1.74    0.45
   5  -5   8    1.37    0.33
   5   5   8    1.99    0.35
  -5   5  -8    1.84    0.45
  -6  -5  -8    0.81    0.40
   6  -5   8    0.39    0.31
  -6   5  -8    0.33    0.34
   6   5   8    1.79    0.35
  -7  -5  -8    0.39    0.38
   7   5   8    0.67    0.30
  -7   5  -8    0.12    0.32
  -8  -5  -8    2.16    0.55
   8   5   8    2.90    0.50
  11  -6  -8   98.21    4.79
 -11  -6   8   96.76    4.94
  11   6  -8   95.08    5.23
 -11   6   8   94.69    5.58
 -11   6   8   93.69    4.95
  10  -6  -8    5.41    0.61
 -10  -6   8    5.78    0.73
 -10   6   8    5.32    0.73
  10   6  -8    5.61    0.62
 -10   6   8    5.68    1.15
  -9  -6   8   70.04    3.62
   9  -6  -8   69.28    3.46
  -9   6   8   65.97    4.16
  -9   6   8   66.99    3.63
   9   6  -8   68.23    3.50
   8  -6  -8    2.79    0.39
  -8  -6   8    3.08    0.54
   8   6  -8    3.15    0.44
  -8   6   8    3.52    0.57
  -8   6   8    2.57    0.73
   7  -6  -8  100.06    4.80
  -7  -6   8   97.68    4.97
  -7   6   8   96.74    4.97
   7   6  -8   95.50    4.84
  -7   6   8  102.67    5.55
   6  -6  -8    1.99    0.30
  -6  -6   8    1.49    0.39
  -6   6   8    1.04    0.32
   6   6  -8    1.46    0.31
  -6   6   8    1.30    0.56
   5  -6  -8  106.63    5.24
  -5  -6   8  114.92    5.48
  -5   6   8   97.27    5.38
  -5   6   8  107.73    5.89
   5   6  -8  113.31    5.41
   5   6  -8  112.89    5.31
   4  -6  -8   12.59    0.78
  -4  -6   8   10.78    0.93
   4   6  -8   12.87    0.85
   4   6  -8   14.36    0.97
  -4   6   8   12.34    1.24
  -4   6   8   12.20    0.92
   3  -6  -8  187.60    9.47
  -3  -6   8  213.70    9.75
  -3   6   8  213.37   10.11
   3   6  -8  202.94    9.56
   3   6  -8  200.59    9.69
  -3   6   8  189.01    9.63
   2  -6  -8   29.94    1.65
  -2  -6   8   36.72    1.94
  -2   6   8   31.84    1.81
  -2   6   8   34.02    2.16
   2   6  -8   30.01    1.85
   2   6  -8   30.18    1.72
   1  -6  -8  117.00    5.99
  -1  -6   8  133.95    6.26
  -1   6   8  134.23    6.51
  -1   6   8  121.36    6.14
   1   6  -8  122.54    6.22
   1   6  -8  126.50    6.07
   0  -6   8    7.29    0.55
   0  -6   8    6.87    0.70
   0  -6  -8    6.25    0.49
   0   6   8    7.94    0.87
   0   6   8    6.47    0.55
   0   6  -8    6.75    0.71
   0   6   8    6.52    0.62
   1  -6   8   74.37    3.71
   1  -6   8   74.64    3.53
  -1  -6  -8   69.41    3.55
   1   6   8   67.12    3.50
   1   6   8   78.65    3.94
  -1   6  -8   63.82    3.70
   2  -6   8   14.37    1.06
  -2  -6  -8   14.88    1.03
   2  -6   8   16.99    0.96
   2   6   8   15.12    0.95
   2   6   8   15.97    1.26
  -2   6  -8   14.14    1.14
   3  -6   8   84.83    4.40
  -3  -6  -8   84.53    4.51
   3  -6   8   94.14    4.31
  -3   6  -8   85.58    4.53
   3   6   8   86.75    4.30
  -4  -6  -8    2.24    0.48
   4  -6   8    1.76    0.39
   4  -6   8    2.31    0.36
  -4   6  -8    2.25    0.49
   4   6   8    2.28    0.37
   5  -6   8   95.42    4.62
  -5  -6  -8   89.94    4.78
   5   6   8   89.94    4.57
  -5   6  -8   93.18    4.81
  -6  -6  -8   12.07    1.11
  -6   6  -8   14.31    1.18
   6   6   8   13.52    0.97
  -7  -6  -8   77.97    4.22
   7   6   8   80.20    3.99
  -7   6  -8   75.05    4.17
  -9  -7   8   11.10    0.99
   9  -7  -8   10.25    0.83
  -9   7   8   11.47    1.54
  -9   7   8   10.70    1.01
   9   7  -8   10.16    0.85
   8  -7  -8   67.77    3.50
  -8  -7   8   71.09    3.69
  -8   7   8   73.84    4.33
   8   7  -8   69.76    3.56
  -8   7   8   65.61    3.71
   7  -7  -8    0.49    0.26
  -7  -7   8    0.40    0.34
  -7   7   8    0.47    0.36
  -7   7   8    0.80    0.55
   7   7  -8    0.48    0.28
   6  -7  -8   74.22    3.64
  -6  -7   8   71.49    3.83
  -6   7   8   70.96    3.84
   6   7  -8   72.72    3.70
  -6   7   8   75.38    4.35
   5  -7  -8    5.79    0.54
  -5  -7   8    4.49    0.66
   5   7  -8    6.77    0.61
  -5   7   8    8.19    1.17
  -5   7   8    5.55    0.69
   5   7  -8    6.36    0.67
  -4  -7   8  199.03    9.62
   4  -7  -8  184.62    9.36
   4   7  -8  193.74    9.56
  -4   7   8  221.90   10.09
  -4   7   8  191.80    9.57
   4   7  -8  197.73    9.45
   3  -7  -8   14.46    0.90
  -3  -7   8   13.83    1.11
  -3   7   8   13.42    1.05
   3   7  -8   15.21    1.11
   3   7  -8   14.50    0.98
  -3   7   8   17.36    1.42
  -2  -7   8  244.25   12.69
   2  -7  -8  257.98   12.47
  -2   7   8  297.37   13.06
  -2   7   8  265.40   12.65
   2   7  -8  267.59   12.55
   2   7  -8  256.81   12.69
  -1  -7   8   34.62    1.95
   1  -7  -8   30.28    1.69
  -1   7   8   31.18    1.84
   1   7  -8   29.67    1.76
   1   7  -8   30.44    1.92
  -1   7   8   35.78    2.19
   0  -7   8  163.60    7.30
   0  -7   8  154.32    7.46
   0  -7  -8  140.83    7.22
   0   7   8  169.63    7.73
   0   7  -8  142.32    7.47
   0   7   8  139.34    7.35
  -1  -7  -8   19.19    1.21
   1  -7   8   20.30    1.19
   1  -7   8   19.50    1.34
   1   7   8   17.99    1.24
  -1   7  -8   18.70    1.37
   1   7   8   20.60    1.50
   2  -7   8   72.82    3.55
   2  -7   8   70.87    3.38
  -2  -7  -8   64.27    3.56
  -2   7  -8   62.56    3.58
   2   7   8   63.02    3.34
   3  -7   8   10.41    0.76
  -3  -7  -8    8.81    0.90
   3  -7   8    9.19    0.82
   3   7   8    9.26    0.72
  -3   7  -8    8.13    0.91
   4  -7   8   86.40    3.93
  -4  -7  -8   78.22    4.13
  -4   7  -8   72.04    4.15
   4   7   8   73.92    3.90
   5  -7   8    2.88    0.49
  -5  -7  -8    3.15    0.58
  -5   7  -8    2.55    0.59
   5   7   8    2.90    0.46
  -6  -7  -8  115.94    6.91
  -6   7  -8  123.97    6.38
   6   7   8  129.30    6.13
   8  -8  -8    0.37    0.29
  -7  -8   8    3.81    0.66
   7  -8  -8    3.09    0.46
   7   8  -8    5.23    0.62
  -7   8   8    3.96    0.69
   6  -8  -8   -0.01    0.23
  -6  -8   8    0.36    0.37
  -6   8   8    0.54    0.39
   6   8  -8    0.43    0.30
   5  -8  -8   29.79    1.68
  -5  -8   8   30.45    1.91
   5   8  -8   31.38    1.76
  -5   8   8   27.87    1.88
  -4  -8   8    3.59    0.61
   4  -8  -8    2.52    0.38
  -4   8   8    2.57    0.55
   4   8  -8    2.56    0.45
   4   8  -8    2.54    0.53
   3  -8  -8   14.90    0.99
  -3  -8   8   15.09    1.21
   3   8  -8   16.60    1.22
  -3   8   8   14.84    1.18
   3   8  -8   16.55    1.07
   2  -8  -8    0.24    0.22
  -2  -8   8    0.25    0.35
   2   8  -8    0.03    0.24
   2   8  -8    0.59    0.37
  -2   8   8    0.11    0.29
   1  -8  -8    2.13    0.36
  -1  -8   8    3.21    0.48
  -1  -8   8    2.91    0.56
  -1   8   8    2.54    0.51
   1   8  -8    3.37    0.61
   0  -8   8   20.41    1.22
   0  -8   8   18.84    1.36
   0   8   8   20.78    1.33
   0   8  -8   15.02    1.33
   1  -8   8    9.38    0.75
   1  -8   8    8.57    0.88
  -1   8  -8    8.15    0.93
   2  -8   8    0.60    0.30
  -2   8  -8    0.03    0.36
   3  -8   8    9.55    0.78
  -3  -8  -8    9.22    0.84
  -3   8  -8    8.40    0.98
   4  -8   8    2.50    0.46
   4   8   8    2.30    0.42
  -4   8  -8    2.19    0.59
   5  -9  -8    8.75    0.79
  -5  -9   8    9.31    1.12
   5   9  -8   10.29    0.88
   4  -9  -8   38.78    2.14
  -4  -9   8   38.24    2.37
  -4   9   8   37.78    2.38
   4   9  -8   41.34    2.24
   3  -9  -8   12.70    0.92
  -3  -9   8   13.29    1.17
   3   9  -8   13.28    1.16
   3   9  -8   13.11    1.01
  -3   9   8   12.27    1.13
  -2  -9   8   49.97    2.63
   2  -9  -8   42.01    2.34
   2   9  -8   40.33    2.40
   2   9  -8   43.49    2.59
  -2   9   8   43.14    2.56
  -1  -9   8    3.73    0.53
  -1  -9   8    4.71    0.73
  -1   9   8    3.63    0.63
   1   9  -8    2.90    0.64
   0  -9   8   47.61    2.50
   0  -9   8   48.42    2.66
   0   9  -8   39.48    2.64
   1  -9   8    1.36    0.38
  -1   9  -8    0.35    0.51
 -13   0   9    0.02    0.42
  13   0  -9    0.24    0.24
  12   0  -9   -0.09    0.19
 -12   0   9   -0.11    0.35
  11   0  -9    0.21    0.20
 -11   0   9   -0.19    0.32
 -10   0   9    0.14    0.31
  10   0  -9    0.07    0.17
   9   0  -9    0.02    0.14
   9   0  -9    0.30    0.17
  -9   0   9    0.03    0.29
   8   0  -9    0.07    0.13
   8   0  -9   -0.03    0.12
  -8   0   9    0.77    0.34
  -7   0   9    0.50    0.19
  -7   0   9   -0.02    0.23
   7   0  -9    0.08    0.11
   7   0  -9    0.07    0.14
  -6   0   9    0.19    0.23
  -6   0   9    0.25    0.15
   6   0  -9    0.87    0.20
   6   0  -9   -0.01    0.09
  -5   0   9    0.35    0.16
   5   0  -9    0.60    0.12
  -5   0   9    0.55    0.27
   5   0  -9    0.00    0.13
   4   0  -9    0.39    0.09
   4   0  -9   -0.07    0.11
  -4   0   9    0.13    0.12
  -4   0   9   -0.05    0.18
   3   0  -9    0.09    0.13
   3   0  -9    0.27    0.07
  -3   0   9    0.27    0.13
  -3   0   9    0.19    0.22
  -2   0   9    0.04    0.17
   2   0  -9    0.30    0.15
  -2   0   9    0.48    0.15
   2   0  -9    0.18    0.05
  -1   0   9    0.22    0.13
  -1   0   9    0.17    0.21
   1   0  -9    0.13    0.13
   0   0   9    0.13    0.12
   0   0   9    0.07    0.19
   0   0  -9    0.10    0.12
   1   0   9    0.01    0.13
  -1   0  -9    0.06    0.14
   1   0   9   -0.06    0.19
  -2   0  -9    0.49    0.22
  -2   0  -9   -0.03    0.13
   2   0   9    0.07    0.13
  -3   0  -9    0.20    0.16
   3   0   9    0.29    0.16
  -3   0  -9    0.11    0.21
   4   0   9    0.27    0.17
  -4   0  -9    0.09    0.17
  -4   0  -9    0.05    0.21
  -5   0  -9    0.33    0.25
   5   0   9    0.53    0.22
  -6   0  -9    0.01    0.27
   6   0   9    0.34    0.19
   7   0   9    0.27    0.23
  -7   0  -9    0.18    0.31
  -8   0  -9    1.10    0.47
   8   0   9    0.48    0.25
   9   0   9    0.24    0.25
  -9   0  -9    0.62    0.44
  10   0   9    0.34    0.29
 -10   0  -9    0.17    0.49
  13  -1  -9   87.57    4.29
 -13  -1   9   87.14    4.81
 -13   1   9   84.02    4.91
  13   1  -9   84.71    4.29
  12  -1  -9   32.44    1.80
 -12  -1   9   32.75    2.22
  12   1  -9   33.39    1.82
 -12   1   9   33.48    2.34
 -11  -1   9   28.81    2.02
  11  -1  -9   31.25    1.66
  11   1  -9   30.26    1.66
 -11   1   9   31.27    2.14
  10  -1  -9   53.26    2.74
 -10  -1   9   56.69    3.15
  10   1  -9   56.43    2.78
 -10   1   9   52.82    3.21
  -9  -1   9   12.77    1.12
  -9  -1   9   15.48    1.23
   9  -1  -9   14.53    0.88
   9  -1  -9   13.95    0.85
   9   1  -9   14.83    0.87
  -9   1   9   14.62    1.23
  -8  -1   9   63.66    3.26
   8  -1  -9   66.86    3.14
  -8  -1   9   59.47    3.44
   8  -1  -9   63.61    3.18
   8   1  -9   64.76    3.16
  -8   1   9   62.65    3.59
   8   1  -9   67.58    3.20
  -7  -1   9  117.91    6.09
  -7  -1   9  121.98    6.30
   7  -1  -9  130.04    5.97
   7  -1  -9  127.32    6.03
   7   1  -9  126.45    5.99
  -7   1   9  127.66    6.44
   7   1  -9  129.70    6.05
   6  -1  -9  119.85    5.61
  -6  -1   9  116.68    5.93
   6  -1  -9  117.03    5.68
  -6  -1   9  113.56    5.75
  -6   1   9  120.29    5.65
   6   1  -9  125.24    5.63
  -6   1   9  120.55    6.08
   6   1  -9  114.61    5.69
  -5  -1   9  231.51   10.97
  -5  -1   9  225.81   11.13
   5  -1  -9  225.84   10.89
   5  -1  -9  247.51   10.80
   5   1  -9  230.01   10.81
  -5   1   9  230.62   10.84
   5   1  -9  226.23   10.91
  -5   1   9  230.34   11.27
   4  -1  -9   56.75    2.87
  -4  -1   9   62.68    3.13
  -4  -1   9   52.47    2.93
   4  -1  -9   58.99    2.76
  -4   1   9   61.13    2.83
   4   1  -9   56.38    2.90
   4   1  -9   58.55    2.78
  -4   1   9   57.61    3.22
   3  -1  -9  135.29    6.04
   3  -1  -9  131.33    6.17
  -3  -1   9  114.29    6.21
  -3  -1   9  134.08    6.40
   3   1  -9  129.71    6.06
  -3   1   9  125.19    6.49
   3   1  -9  127.92    6.20
  -3   1   9  134.71    6.13
   2  -1  -9   37.28    1.73
  -2  -1   9   38.20    2.09
   2  -1  -9   36.27    1.87
  -2  -1   9   34.72    1.91
  -2   1   9   37.22    1.84
   2   1  -9   37.05    1.92
   2   1  -9   38.18    1.76
  -2   1   9   32.46    2.13
   1  -1  -9  180.06    8.09
  -1  -1   9  185.51    8.14
  -1  -1   9  167.45    8.28
   1   1  -9  160.70    7.94
  -1   1   9  172.58    8.05
  -1   1   9  151.55    8.33
   1   1  -9  174.52    8.14
   0  -1  -9   46.10    2.19
   0  -1   9   40.64    2.33
   0  -1   9   43.76    2.20
   0   1   9   37.68    2.40
   0   1   9   43.83    2.14
   0   1  -9   42.52    2.22
   1  -1   9   77.65    3.68
  -1  -1  -9   70.53    3.64
   1   1   9   77.16    3.63
   1   1   9   67.00    3.87
  -1   1  -9   74.00    3.72
  -1   1  -9   79.77    3.71
  -2  -1  -9  140.91    6.73
  -2  -1  -9  135.18    6.58
   2  -1   9  137.11    6.59
  -2   1  -9  139.96    6.63
  -2   1  -9  136.41    6.66
   2   1   9  135.58    6.56
  -3  -1  -9   71.92    3.70
  -3  -1  -9   77.14    3.86
   3  -1   9   79.26    3.71
  -3   1  -9   72.07    3.73
  -3   1  -9   74.53    3.80
   3   1   9   75.33    3.68
   4  -1   9   66.61    3.34
  -4  -1  -9   65.07    3.32
  -4  -1  -9   72.51    3.53
  -4   1  -9   67.41    3.47
  -4   1  -9   59.84    3.35
   4   1   9   70.50    3.34
   5  -1   9  112.94    5.26
  -5  -1  -9  107.25    5.45
   5   1   9  109.16    5.25
  -5   1  -9  111.12    5.43
  -5   1  -9   98.58    5.27
  -6  -1  -9   15.78    1.18
   6  -1   9   15.79    1.00
   6   1   9   14.39    0.98
  -6   1  -9   16.79    1.20
   7  -1   9  150.71    7.52
  -7  -1  -9  150.18    7.77
  -7   1  -9  160.86    7.80
   7   1   9  161.71    7.54
   8  -1   9   16.13    1.07
  -8  -1  -9   17.94    1.37
  -8   1  -9   15.84    1.32
   8   1   9   15.29    1.07
   9  -1   9   51.53    2.82
  -9  -1  -9   57.27    3.21
   9   1   9   52.55    2.83
  -9   1  -9   52.91    3.17
  10  -1   9   26.59    1.62
 -10   1  -9   27.51    2.03
  10   1   9   26.30    1.63
  13  -2  -9   45.72    2.50
 -13  -2   9   50.55    2.99
  13   2  -9   46.75    2.53
 -13   2   9   48.33    3.17
  12  -2  -9   31.05    1.75
 -12  -2   9   31.65    2.13
  12   2  -9   32.76    1.78
 -12   2   9   31.89    2.33
 -11  -2   9   37.53    2.37
  11  -2  -9   39.29    2.04
  11   2  -9   38.73    2.06
 -11   2   9   38.26    2.58
 -10  -2   9   91.37    4.21
  10  -2  -9   85.06    4.08
  10  -2  -9   83.20    4.11
 -10  -2   9   76.78    4.37
 -10   2   9   81.09    4.62
  10   2  -9   80.61    4.09
   9  -2  -9  132.12    6.47
  -9  -2   9  147.99    6.58
  -9  -2   9  128.82    6.73
   9  -2  -9  133.98    6.44
  -9   2   9  132.81    6.99
   9   2  -9  132.45    6.46
  -8  -2   9   81.32    3.83
   8  -2  -9   77.84    3.68
   8  -2  -9   73.38    3.72
  -8  -2   9   71.54    3.93
   8   2  -9   76.60    3.82
  -8   2   9   69.64    4.14
   8   2  -9   77.95    3.71
  -7  -2   9  218.38   11.42
  -7  -2   9  223.51   11.54
   7  -2  -9  244.72   11.36
   7  -2  -9  251.16   11.29
  -7   2   9  247.18   11.85
   7   2  -9  242.53   11.31
   7   2  -9  255.39   11.39
   6  -2  -9   79.65    3.70
   6  -2  -9   77.95    3.60
  -6  -2   9   69.68    3.76
  -6  -2   9   71.93    3.85
  -6   2   9   75.31    4.12
   6   2  -9   76.69    3.72
   6   2  -9   72.96    3.62
  -5  -2   9   59.22    3.27
   5  -2  -9   61.12    3.12
  -5  -2   9   65.58    3.24
   5  -2  -9   59.31    3.02
  -5   2   9   66.35    3.57
   5   2  -9   66.11    3.06
   5   2  -9   64.96    3.17
   4  -2  -9  349.62   15.20
  -4  -2   9  325.12   15.48
  -4  -2   9  323.35   15.42
   4  -2  -9  325.78   15.31
  -4   2   9  332.34   15.21
  -4   2   9  306.77   15.71
   4   2  -9  325.48   15.36
   4   2  -9  319.86   15.23
   3  -2  -9   77.25    3.73
  -3  -2   9   76.72    3.97
   3  -2  -9   82.47    3.87
  -3  -2   9   77.67    4.01
   3   2  -9   79.43    3.77
  -3   2   9   76.23    4.23
   3   2  -9   81.37    3.92
  -3   2   9   81.64    3.78
   2  -2  -9  284.86   13.04
   2  -2  -9  299.22   13.20
  -2  -2   9  266.40   13.27
  -2  -2   9  282.93   13.32
   2   2  -9  260.73   13.22
  -2   2   9  295.46   13.12
  -2   2   9  266.60   13.54
   2   2  -9  285.43   13.08
   1  -2  -9   62.31    2.96
   1  -2  -9   60.89    2.80
  -1  -2   9   55.01    3.06
  -1  -2   9   60.27    3.04
  -1   2   9   55.35    3.24
   1   2  -9   61.34    3.02
  -1   2   9   59.67    2.90
   1   2  -9   60.20    2.85
   0  -2   9   31.93    1.78
   0  -2   9   34.58    1.61
   0  -2  -9   33.69    1.72
   0  -2   9   29.49    1.82
   0   2   9   31.89    1.68
   0   2   9   30.91    2.01
   0   2  -9   38.11    1.82
   1  -2   9   75.37    3.81
  -1  -2  -9   74.74    3.75
  -1   2  -9   80.80    3.85
  -1   2  -9   80.74    3.81
   1   2   9   75.87    3.73
   1   2   9   74.01    4.06
  -2  -2  -9   74.37    3.54
   2  -2   9   73.57    3.58
   2   2   9   70.79    3.84
  -2   2  -9   70.50    3.61
  -2   2  -9   72.84    3.61
   2   2   9   69.16    3.52
   3  -2   9  149.37    6.73
  -3  -2  -9  147.42    6.89
  -3  -2  -9  125.23    6.65
   3   2   9  139.93    6.67
  -3   2  -9  134.52    6.76
  -3   2  -9  141.85    6.78
   4  -2   9  180.53    8.21
  -4  -2  -9  172.85    8.38
  -4   2  -9  168.35    8.26
   4   2   9  167.59    8.16
  -4   2  -9  167.48    8.29
  -5  -2  -9   81.41    4.09
   5  -2   9   76.88    3.87
  -5   2  -9   72.96    3.93
  -5   2  -9   78.59    4.02
   5   2   9   79.39    3.86
   6  -2   9  150.27    7.09
  -6  -2  -9  138.77    7.29
   6   2   9  152.84    7.08
  -6   2  -9  143.30    7.26
  -7  -2  -9   10.42    1.00
   7  -2   9    9.81    0.76
  -7   2  -9   10.58    0.97
   7   2   9    9.87    0.77
  -8  -2  -9   62.91    3.62
   8  -2   9   65.04    3.34
  -8   2  -9   66.20    3.63
   8   2   9   64.98    3.34
  -9  -2  -9    2.99    0.68
   9  -2   9    3.09    0.47
  -9   2  -9    3.17    0.70
   9   2   9    4.57    0.58
  13  -3  -9    4.90    0.58
  13   3  -9    4.15    0.57
 -13   3   9    4.19    1.11
  12  -3  -9    0.51    0.26
 -12   3   9    0.26    0.51
  12   3  -9    0.49    0.28
 -11  -3   9   13.84    1.01
  11  -3  -9   13.27    0.88
 -11   3   9   12.87    1.38
  11   3  -9   11.85    0.88
  10  -3  -9    0.84    0.26
  10  -3  -9    1.17    0.26
 -10  -3   9    0.81    0.32
 -10  -3   9    1.19    0.40
 -10   3   9    0.77    0.50
  10   3  -9    0.89    0.27
   9  -3  -9    4.56    0.48
  -9  -3   9    4.24    0.62
   9  -3  -9    5.23    0.45
  -9  -3   9    5.65    0.58
  -9   3   9    3.63    0.75
   9   3  -9    5.51    0.49
   8  -3  -9   34.28    1.78
  -8  -3   9   36.16    1.95
   8  -3  -9   33.54    1.84
  -8  -3   9   34.68    2.00
   8   3  -9   34.12    1.82
  -8   3   9   34.64    2.35
   7  -3  -9   10.02    0.63
  -7  -3   9    9.22    0.80
   7  -3  -9   10.28    0.71
  -7  -3   9   10.75    0.80
   7   3  -9    9.65    0.67
   7   3  -9   11.29    0.74
  -7   3   9   10.39    1.08
   6  -3  -9  105.46    5.08
  -6  -3   9  101.34    5.28
   6  -3  -9  109.85    5.18
  -6  -3   9  108.73    5.29
   6   3  -9  108.17    5.20
   6   3  -9  106.18    5.12
  -6   3   9  106.81    5.68
   5  -3  -9   17.72    0.98
  -5  -3   9   18.23    1.17
  -5  -3   9   19.73    1.20
   5  -3  -9   19.86    1.10
   5   3  -9   19.16    1.04
  -5   3   9   17.04    1.44
   5   3  -9   19.06    1.12
   4  -3  -9    1.18    0.25
  -4  -3   9    1.34    0.33
  -4  -3   9    1.02    0.27
   4  -3  -9    0.87    0.14
   4   3  -9    1.32    0.28
  -4   3   9    0.99    0.41
   4   3  -9    1.04    0.18
  -3  -3   9   14.91    0.98
   3  -3  -9   15.81    0.80
  -3  -3   9   16.09    1.04
   3   3  -9   16.11    0.85
   3   3  -9   16.94    1.00
  -3   3   9   14.00    0.80
  -3   3   9   12.87    1.19
   2  -3  -9    0.46    0.10
  -2  -3   9    0.47    0.20
  -2  -3   9    0.51    0.22
   2  -3  -9    0.32    0.17
   2   3  -9    0.32    0.12
  -2   3   9    0.29    0.11
  -2   3   9    0.48    0.30
   2   3  -9    0.73    0.24
   1  -3  -9    1.04    0.21
  -1  -3   9    0.95    0.29
   1  -3  -9    1.01    0.12
  -1  -3   9    0.80    0.22
  -1   3   9    1.41    0.39
   1   3  -9    1.03    0.17
   1   3  -9    0.50    0.22
  -1   3   9    0.70    0.16
   0  -3  -9   20.25    1.17
   0  -3   9   21.63    1.28
   0  -3   9   22.02    1.09
   0   3   9   19.79    1.13
   0   3   9   19.81    1.47
   0   3  -9   23.34    1.29
   0   3  -9   20.98    1.16
   1  -3   9    1.43    0.18
   1  -3   9    1.38    0.29
  -1  -3  -9    1.27    0.23
   1   3   9    1.03    0.20
  -1   3  -9    0.70    0.24
   1   3   9    0.98    0.36
  -1   3  -9    0.85    0.21
   2  -3   9    4.08    0.43
  -2  -3  -9    4.05    0.39
   2   3   9    4.33    0.39
  -2   3  -9    4.37    0.51
  -2   3  -9    3.95    0.42
   2   3   9    3.75    0.62
  -3  -3  -9   45.74    2.28
  -3  -3  -9   43.90    2.49
   3  -3   9   44.50    2.35
  -3   3  -9   45.86    2.37
   3   3   9   46.85    2.30
  -3   3  -9   41.09    2.40
  -4  -3  -9   11.81    0.97
   4  -3   9   11.73    0.82
   4   3   9   12.36    0.80
  -4   3  -9   11.61    0.91
  -4   3  -9   11.79    0.87
  -5  -3  -9   11.83    0.99
   5  -3   9   11.21    0.81
  -5   3  -9   11.55    0.92
  -5   3  -9   10.74    0.89
   5   3   9   12.49    0.82
  -6  -3  -9   33.12    2.08
   6  -3   9   31.69    1.87
  -6   3  -9   33.20    1.98
   6   3   9   36.00    1.90
  -6   3  -9   38.09    2.08
  -7  -3  -9    5.10    0.77
   7  -3   9    4.77    0.54
  -7   3  -9    4.85    0.73
   7   3   9    5.62    0.57
  -8  -3  -9    2.38    0.60
   8  -3   9    1.69    0.37
  -8   3  -9    1.54    0.51
   8   3   9    2.34    0.44
  -9  -3  -9   14.31    1.31
  -9   3  -9   13.25    1.27
   9   3   9   13.84    1.03
  12  -4  -9   51.20    2.62
 -12  -4   9   50.22    2.75
 -12   4   9   46.97    3.28
  12   4  -9   48.01    2.64
  11  -4  -9   10.95    0.78
 -11  -4   9   11.57    0.92
  11   4  -9    9.28    0.79
 -11   4   9    8.13    1.26
 -10  -4   9   54.04    2.95
  10  -4  -9   55.59    2.87
  10  -4  -9   55.53    2.81
 -10   4   9   57.76    3.52
  10   4  -9   53.49    2.84
   9  -4  -9   46.41    2.31
  -9  -4   9   44.95    2.45
   9  -4  -9   44.58    2.37
   9   4  -9   43.32    2.33
  -9   4   9   43.21    2.92
   8  -4  -9   19.75    1.11
   8  -4  -9   19.81    1.19
  -8  -4   9   19.99    1.27
  -8   4   9   18.41    1.62
   8   4  -9   18.35    1.14
   7  -4  -9   85.77    4.28
  -7  -4   9   89.41    4.38
   7  -4  -9   85.47    4.18
   7   4  -9   86.57    4.38
   7   4  -9   86.37    4.23
  -7   4   9   84.10    4.84
  -6  -4   9   49.87    2.83
   6  -4  -9   52.48    2.75
   6  -4  -9   54.67    2.64
  -6   4   9   57.68    3.33
   6   4  -9   54.92    2.76
   6   4  -9   53.05    2.69
   5  -4  -9   20.70    1.18
  -5  -4   9   24.96    1.44
   5  -4  -9   23.49    1.31
  -5   4   9   23.09    1.77
   5   4  -9   22.13    1.24
   5   4  -9   22.84    1.33
  -4  -4   9   45.88    2.48
   4  -4  -9   46.19    2.36
   4  -4  -9   45.99    2.23
   4   4  -9   43.58    2.38
   4   4  -9   45.85    2.29
  -4   4   9   45.14    2.82
   3  -4  -9    9.69    0.67
  -3  -4   9   10.44    0.80
   3  -4  -9    9.12    0.54
  -3   4   9    7.38    0.90
   3   4  -9    9.30    0.60
   3   4  -9    7.61    0.68
   2  -4  -9   53.65    2.79
   2  -4  -9   57.35    2.67
  -2  -4   9   60.23    2.97
  -2   4   9   53.11    3.20
  -2   4   9   52.59    2.68
   2   4  -9   50.12    2.85
   2   4  -9   59.75    2.74
   1  -4  -9   98.54    4.52
  -1  -4   9   95.42    4.65
   1  -4  -9   93.06    4.38
   1   4  -9   87.98    4.44
   1   4  -9   88.13    4.60
  -1   4   9   90.38    4.42
  -1   4   9   92.98    4.91
   0  -4   9   21.47    1.11
   0  -4   9   21.47    1.31
   0  -4  -9   21.21    1.18
   0   4   9   17.98    1.10
   0   4   9   23.30    1.57
   0   4  -9   19.85    1.28
   1  -4   9   24.36    1.48
   1  -4   9   26.89    1.31
  -1  -4  -9   24.74    1.37
   1   4   9   27.13    1.74
   1   4   9   23.32    1.33
  -1   4  -9   23.30    1.50
   2  -4   9   82.27    3.79
  -2  -4  -9   79.69    3.84
   2  -4   9   75.33    3.94
  -2   4  -9   72.85    3.99
   2   4   9   73.06    3.81
   2   4   9   87.41    4.27
  -3  -4  -9    2.66    0.47
   3  -4   9    2.83    0.41
  -3   4  -9    2.49    0.48
   3   4   9    2.51    0.34
  -4  -4  -9   77.81    4.05
   4  -4   9   75.19    3.87
  -4   4  -9   80.03    4.01
   4   4   9   75.17    3.81
   5  -4   9   53.42    2.87
  -5  -4  -9   52.39    3.05
   5   4   9   58.73    2.86
  -5   4  -9   56.76    3.02
   6  -4   9   11.91    0.87
  -6  -4  -9   10.74    1.03
   6   4   9   12.39    0.86
  -6   4  -9   11.17    0.97
   7  -4   9    7.33    0.67
  -7  -4  -9    7.44    0.95
   7   4   9    7.94    0.70
  -8  -4  -9   37.78    2.45
   8   4   9   41.15    2.23
 -11  -5   9   41.03    2.27
  11  -5  -9   36.95    2.09
  11  -5  -9   39.45    2.18
 -11   5   9   36.51    2.76
  11   5  -9   38.07    2.14
  10  -5  -9   71.65    3.63
  10  -5  -9   70.48    3.54
 -10  -5   9   72.82    3.72
 -10   5   9   69.10    4.29
  10   5  -9   66.94    3.57
   9  -5  -9  137.90    6.63
  -9  -5   9  147.03    6.82
  -9   5   9  141.29    7.44
  -9   5   9  133.57    6.78
   9   5  -9  129.37    6.66
   8  -5  -9  113.81    5.49
  -8  -5   9  120.37    5.69
  -8   5   9  107.22    5.63
  -8   5   9  112.92    6.25
   8   5  -9  113.36    5.53
  -7  -5   9   51.64    2.84
   7  -5  -9   54.23    2.67
  -7   5   9   52.68    3.36
   7   5  -9   52.07    2.71
  -7   5   9   54.25    2.83
  -6  -5   9   91.19    4.79
   6  -5  -9   93.67    4.57
  -6   5   9   96.74    5.32
  -6   5   9   92.06    4.73
   6   5  -9   98.02    4.72
   6   5  -9   96.66    4.63
   5  -5  -9  160.36    7.29
  -5  -5   9  136.78    7.48
   5   5  -9  157.38    7.34
  -5   5   9  152.91    7.45
   5   5  -9  157.66    7.46
  -5   5   9  155.86    8.01
   4  -5  -9  126.66    5.64
  -4  -5   9  121.29    5.89
   4   5  -9  110.69    5.68
  -4   5   9  111.91    5.78
  -4   5   9  114.60    6.27
   4   5  -9  123.20    5.83
   3  -5  -9  178.17    8.73
  -3  -5   9  191.15    9.02
   3  -5  -9  189.79    8.88
   3   5  -9  175.71    8.93
   3   5  -9  192.27    8.81
  -3   5   9  188.36    8.91
  -3   5   9  182.06    9.35
   2  -5  -9   71.65    3.59
  -2  -5   9   73.23    3.86
   2  -5  -9   79.91    3.74
   2   5  -9   73.55    3.66
   2   5  -9   72.74    3.82
  -2   5   9   76.83    4.18
   1  -5  -9   56.85    3.19
  -1  -5   9   65.40    3.33
   1  -5  -9   64.40    3.18
  -1   5   9   62.65    3.13
   1   5  -9   60.96    3.29
  -1   5   9   67.05    3.61
   1   5  -9   63.36    3.12
   0  -5   9    9.57    0.83
   0  -5  -9   10.19    0.71
   0  -5   9   10.60    0.66
   0   5   9   10.28    1.03
   0   5  -9    8.64    0.80
   0   5   9    9.21    0.63
  -1  -5  -9   89.17    4.47
   1  -5   9   84.53    4.59
   1  -5   9   98.35    4.43
   1   5   9   91.57    4.44
  -1   5  -9   88.89    4.65
   1   5   9   95.73    4.88
   2  -5   9  161.88    7.26
  -2  -5  -9  146.33    7.28
   2  -5   9  150.96    7.42
  -2   5  -9  141.18    7.47
   2   5   9  157.31    7.70
   2   5   9  155.89    7.28
  -3  -5  -9  114.46    5.93
   3  -5   9  112.85    5.79
  -3   5  -9  119.06    5.91
   3   5   9  123.43    5.71
  -4  -5  -9   66.30    3.59
   4  -5   9   63.09    3.41
  -4   5  -9   67.22    3.56
   4   5   9   68.96    3.36
  -5  -5  -9  133.77    6.95
   5  -5   9  132.64    6.75
   5   5   9  150.66    6.75
  -5   5  -9  136.73    6.92
   6  -5   9   13.07    0.97
  -6  -5  -9   13.84    1.18
  -6   5  -9   13.08    1.09
   6   5   9   13.79    0.97
  -7  -5  -9  107.55    5.65
   7   5   9  110.26    5.39
  -7   5  -9  107.13    5.55
  -8  -5  -9   15.21    1.34
  10  -6  -9    2.57    0.42
 -10  -6   9    0.98    0.41
  10   6  -9    1.60    0.39
 -10   6   9    0.70    0.38
 -10   6   9    0.29    0.57
   9  -6  -9    9.33    0.73
  -9  -6   9    9.48    0.89
  -9   6   9   10.27    0.90
   9   6  -9    8.99    0.76
  -9   6   9    7.03    1.22
  -8  -6   9    1.88    0.45
   8  -6  -9    2.93    0.41
  -8   6   9    2.51    0.74
   8   6  -9    2.23    0.39
  -8   6   9    2.03    0.46
  -7  -6   9   20.59    1.31
   7  -6  -9   17.90    1.08
  -7   6   9   17.66    1.71
   7   6  -9   18.08    1.13
  -7   6   9   16.34    1.22
  -6  -6   9  123.87    6.48
   6  -6  -9  132.72    6.27
  -6   6   9  138.58    7.09
   6   6  -9  127.79    6.31
  -6   6   9  130.66    6.46
   5  -6  -9   55.64    2.77
  -5  -6   9   54.02    3.00
  -5   6   9   53.85    2.94
   5   6  -9   56.21    2.83
  -5   6   9   55.02    3.44
   5   6  -9   56.30    2.95
  -4  -6   9   37.59    2.10
   4  -6  -9   35.62    1.84
   4   6  -9   33.49    1.89
  -4   6   9   34.55    2.01
  -4   6   9   35.40    2.43
   4   6  -9   36.02    2.04
   3  -6  -9    1.99    0.28
  -3  -6   9    1.51    0.40
  -3   6   9    2.32    0.61
   3   6  -9    2.03    0.43
   3   6  -9    2.21    0.34
  -3   6   9    1.80    0.39
   2  -6  -9   16.13    0.95
  -2  -6   9   17.08    1.21
   2   6  -9   15.37    1.16
  -2   6   9   17.21    1.12
  -2   6   9   16.12    1.40
   2   6  -9   17.64    1.04
   1  -6  -9   15.36    1.01
  -1  -6   9   15.23    1.13
  -1   6   9   15.70    1.34
   1   6  -9   14.24    1.11
   1   6  -9   15.25    0.96
   0  -6   9   46.36    2.45
   0  -6  -9   41.27    2.27
   0  -6   9   43.08    2.22
   0   6  -9   39.65    2.40
   0   6   9   44.26    2.66
   1  -6   9   41.96    2.11
  -1  -6  -9   41.12    2.16
   1  -6   9   40.73    2.30
   1   6   9   40.84    2.10
   1   6   9   42.54    2.53
  -1   6  -9   35.20    2.29
   2  -6   9   36.11    1.89
   2  -6   9   32.84    2.03
   2   6   9   37.17    2.28
   2   6   9   36.19    1.90
  -2   6  -9   34.65    2.11
   3  -6   9   15.01    1.10
  -3  -6  -9   15.24    1.19
  -3   6  -9   16.29    1.23
   3   6   9   16.22    1.02
   4  -6   9   16.33    1.17
  -4  -6  -9   16.47    1.31
   4   6   9   18.41    1.13
  -4   6  -9   19.22    1.36
  -5  -6  -9   12.89    1.17
  -5   6  -9   13.36    1.17
   5   6   9   16.34    1.03
  -6  -6  -9   28.48    1.98
   6   6   9   32.97    1.80
  -6   6  -9   29.87    1.98
  -7  -6  -9    2.12    0.56
  -7   6  -9    1.17    0.47
   7   6   9    2.02    0.64
  -9  -7   9    0.74    0.40
   9  -7  -9    0.39    0.29
  -9   7   9    0.91    0.68
  -9   7   9    0.62    0.39
   9   7  -9    0.52    0.31
   8  -7  -9    0.27    0.25
  -8  -7   9    0.11    0.33
   8   7  -9    0.41    0.29
  -8   7   9    0.26    0.52
  -8   7   9    0.19    0.34
  -7  -7   9   21.62    1.54
   7  -7  -9   23.98    1.35
  -7   7   9   22.32    1.55
  -7   7   9   24.27    2.05
   7   7  -9   22.96    1.39
  -6  -7   9   27.94    1.79
   6  -7  -9   27.47    1.55
  -6   7   9   31.56    2.30
  -6   7   9   26.21    1.74
   6   7  -9   27.72    1.60
  -5  -7   9   21.94    1.48
   5  -7  -9   21.58    1.24
  -5   7   9   24.20    1.89
   5   7  -9   22.36    1.43
  -5   7   9   19.92    1.42
   5   7  -9   19.08    1.28
  -4  -7   9    1.31    0.41
   4  -7  -9    1.60    0.29
  -4   7   9    1.82    0.43
   4   7  -9    1.63    0.44
  -4   7   9    1.11    0.53
   4   7  -9    1.69    0.35
   3  -7  -9    1.89    0.31
  -3  -7   9    3.18    0.57
  -3   7   9    2.48    0.68
  -3   7   9    2.18    0.43
   3   7  -9    1.66    0.43
   3   7  -9    1.74    0.34
  -2  -7   9    1.75    0.45
   2   7  -9    1.23    0.41
  -2   7   9    0.91    0.33
  -2   7   9    2.85    0.67
   2   7  -9    1.51    0.34
  -1  -7   9   27.34    1.44
  -1  -7   9   27.25    1.66
   1   7  -9   21.60    1.41
  -1   7   9   23.53    1.52
  -1   7   9   27.26    1.88
   1   7  -9   21.37    1.57
   0  -7  -9   51.31    2.73
   0  -7   9   54.47    2.69
   0  -7   9   53.46    2.89
   0   7   9   52.55    3.08
   0   7  -9   46.69    2.86
   1  -7   9   15.02    1.16
  -1  -7  -9   14.23    1.01
   1  -7   9   16.67    1.01
   1   7   9   15.89    1.34
  -1   7  -9   14.26    1.19
   2  -7   9    0.76    0.36
  -2  -7  -9    1.14    0.41
   2  -7   9    0.91    0.30
   2   7   9    0.95    0.29
  -2   7  -9    1.16    0.43
   3  -7   9   19.09    1.26
  -3  -7  -9   15.76    1.29
  -3   7  -9   16.98    1.34
   3   7   9   17.14    1.12
  -4  -7  -9    0.93    0.42
   4   7   9    0.68    0.30
  -4   7  -9    0.61    0.41
  -5  -7  -9    0.69    0.38
   5   7   9    0.64    0.31
  -5   7  -9    0.82    0.41
  -7  -8   9   49.28    2.86
   7  -8  -9   51.01    2.60
  -7   8   9   47.24    2.85
   7   8  -9   48.06    2.64
   6  -8  -9   53.63    2.88
  -6  -8   9   55.10    3.14
   6   8  -9   58.00    2.97
  -6   8   9   56.82    3.16
  -5  -8   9   48.25    2.56
   5  -8  -9   42.55    2.25
   5   8  -9   39.93    2.31
  -5   8   9   39.52    2.47
   4  -8  -9  112.07    5.53
  -4  -8   9  117.30    5.83
  -4   8   9  111.29    5.77
   4   8  -9  112.45    5.75
   4   8  -9  114.32    5.62
  -3  -8   9   81.92    4.38
  -3   8   9   81.07    4.33
   3   8  -9   86.32    4.20
   3   8  -9   82.00    4.34
  -2  -8   9   79.90    4.01
  -2   8   9   70.89    3.91
   2   8  -9   72.01    3.95
   2   8  -9   74.89    3.80
  -1  -8   9    7.47    0.67
  -1  -8   9    7.63    0.84
   1   8  -9    6.17    0.81
  -1   8   9    6.09    0.75
   0  -8   9   70.43    3.23
   0  -8  -9   58.18    3.23
   0  -8   9   63.74    3.40
   0   8   9   61.94    3.32
   0   8  -9   55.46    3.38
   1  -8   9   35.86    1.86
   1  -8   9   34.95    2.04
  -1   8  -9   26.46    2.00
   2  -8   9   77.02    3.68
   2  -8   9   73.91    3.96
  -2   8  -9   64.38    3.89
  -3   8  -9   79.71    4.34
  -3  -9   9   53.80    3.06
   3   9  -9   52.93    3.03
  -3   9   9   52.30    3.03
   3   9  -9   53.43    2.87
  -2  -9   9   21.27    1.35
  -2  -9   9   21.98    1.56
  -2   9   9   19.34    1.47
   2   9  -9   19.38    1.51
  -1  -9   9   38.82    2.42
  -1  -9   9   47.22    2.31
  -1   9   9   39.17    2.39
   1   9  -9   36.10    2.43
   0  -9   9   59.53    3.13
   0  -9   9   58.81    3.30
 -13   0  10   33.48    2.31
  13   0 -10   29.22    1.72
  12   0 -10   52.60    2.66
 -12   0  10   49.13    3.14
  11   0 -10    1.22    0.28
 -11   0  10    2.22    0.62
  10   0 -10  273.78   12.28
 -10   0  10  245.06   12.71
  -9   0  10    0.46    0.37
   9   0 -10    0.41    0.18
   9   0 -10    0.23    0.18
   8   0 -10  204.57    9.28
   8   0 -10  199.34    9.33
  -8   0  10  184.62    9.69
  -7   0  10    0.72    0.22
   7   0 -10    1.03    0.19
  -7   0  10    0.83    0.37
   7   0 -10    1.11    0.24
  -6   0  10  156.55    8.22
   6   0 -10  183.57    8.13
   6   0 -10  176.14    8.22
  -6   0  10  174.87    8.58
  -5   0  10    3.61    0.37
   5   0 -10    3.62    0.27
  -5   0  10    4.31    0.65
   5   0 -10    3.32    0.36
  -4   0  10  276.33   13.21
   4   0 -10  265.58   12.87
   4   0 -10  282.49   12.74
  -4   0  10  268.60   12.87
   3   0 -10    4.37    0.42
  -3   0  10    5.05    0.42
  -3   0  10    5.11    0.70
   3   0 -10    4.43    0.27
  -2   0  10  304.01   14.92
   2   0 -10  312.39   14.64
  -2   0  10  316.46   14.62
  -1   0  10    1.32    0.24
   1   0 -10    1.10    0.25
  -1   0  10    2.73    0.49
   0   0 -10  173.92    9.31
   0   0  10  222.22    9.32
   0   0  10  192.59    9.56
  -1   0 -10    6.83    0.55
   1   0  10    6.78    0.52
   1   0  10    5.89    0.65
  -2   0 -10  145.79    6.95
  -2   0 -10  142.88    7.04
   2   0  10  144.24    6.91
  -3   0 -10  107.15    5.58
  -3   0 -10  117.40    5.48
  -4   0 -10  341.42   16.87
   4   0  10  376.32   16.87
  -4   0 -10  357.63   17.02
   5   0  10   29.71    1.64
  -5   0 -10   29.31    1.82
  -6   0 -10  123.40    6.29
   6   0  10  125.65    6.08
   7   0  10   20.05    1.25
  -7   0 -10   19.83    1.47
  -8   0 -10   57.67    3.25
   8   0  10   54.87    2.95
   9   0  10    1.16    0.34
  -9   0 -10    0.91    0.50
  13  -1 -10   98.98    4.79
 -13  -1  10   92.79    5.29
 -13   1  10  101.05    5.47
  13   1 -10   94.19    4.79
  12  -1 -10    5.96    0.58
 -12  -1  10    7.30    1.00
 -12   1  10    7.93    1.13
  12   1 -10    6.54    0.59
  11  -1 -10   19.87    1.15
 -11  -1  10   17.34    1.48
  11   1 -10   20.39    1.17
 -11   1  10   20.03    1.65
  10  -1 -10    9.57    0.65
 -10  -1  10   10.68    1.01
 -10   1  10    7.95    0.98
  10   1 -10    9.13    0.66
   9  -1 -10   67.56    3.33
   9  -1 -10   68.38    3.29
  -9  -1  10   62.49    3.64
   9   1 -10   69.34    3.31
  -9   1  10   65.27    3.79
   8  -1 -10    0.71    0.18
  -8  -1  10    0.54    0.32
  -8  -1  10    0.39    0.22
   8  -1 -10    0.66    0.20
   8   1 -10    1.16    0.26
  -8   1  10    0.56    0.37
   8   1 -10    0.74    0.19
  -7  -1  10  192.81    9.76
   7  -1 -10  197.94    9.38
   7  -1 -10  191.62    9.45
  -7  -1  10  191.76    9.54
   7   1 -10  206.15    9.40
   7   1 -10  218.16    9.50
  -7   1  10  197.57    9.91
   6  -1 -10    0.32    0.17
   6  -1 -10    0.12    0.10
  -6  -1  10    0.24    0.25
  -6  -1  10    0.34    0.21
   6   1 -10    0.51    0.14
  -6   1  10    0.06    0.28
   5  -1 -10   12.19    0.60
  -5  -1  10    8.67    0.74
  -5  -1  10   10.88    0.92
   5  -1 -10   10.65    0.70
  -5   1  10    9.33    0.97
   5   1 -10   11.02    0.73
   5   1 -10   10.99    0.62
  -5   1  10   10.42    0.65
   4  -1 -10   20.60    0.96
  -4  -1  10   17.81    1.29
  -4  -1  10   15.75    1.11
   4  -1 -10   19.10    1.08
   4   1 -10   19.89    1.13
  -4   1  10   16.57    1.36
  -4   1  10   20.76    1.05
   4   1 -10   19.36    0.98
   3  -1 -10   40.27    1.94
  -3  -1  10   38.92    2.16
  -3  -1  10   30.64    1.94
   3  -1 -10   39.57    1.77
  -3   1  10   38.94    1.88
   3   1 -10   38.39    1.79
  -3   1  10   36.82    2.25
   3   1 -10   31.92    1.93
  -2  -1  10   30.33    1.82
  -2  -1  10   31.37    1.66
   2  -1 -10   30.28    1.61
  -2   1  10   27.92    1.89
   2   1 -10   29.95    1.48
  -2   1  10   32.27    1.58
   2   1 -10   29.03    1.64
  -1  -1  10  199.70    9.29
   1  -1 -10  201.58    9.26
  -1  -1  10  194.76    9.48
  -1   1  10  199.65    9.21
  -1   1  10  176.46    9.53
   1   1 -10  196.70    9.30
   0  -1  10    2.74    0.46
   0  -1  10    3.50    0.38
   0  -1 -10    2.84    0.34
   0   1  10    4.27    0.35
   0   1  10    2.97    0.56
   0   1 -10    2.73    0.38
  -1  -1 -10  108.79    5.55
   1  -1  10  114.97    5.57
  -1   1 -10  125.32    5.65
  -1   1 -10  121.69    5.61
   1   1  10  113.28    5.52
   1   1  10  105.61    5.81
  -2  -1 -10   12.66    0.82
  -2  -1 -10   11.37    0.89
  -2   1 -10   13.95    0.86
   2   1  10   12.74    0.79
  -2   1 -10   10.29    0.84
   3  -1  10   80.36    3.92
  -3  -1 -10   67.61    3.89
  -3  -1 -10   82.33    4.09
  -3   1 -10   78.51    4.02
   3   1  10   84.51    3.91
  -3   1 -10   82.04    3.96
  -4  -1 -10    0.79    0.33
  -4  -1 -10    0.94    0.25
   4  -1  10    0.71    0.22
  -4   1 -10    0.86    0.26
  -4   1 -10    1.17    0.33
   4   1  10    1.46    0.29
   5  -1  10   25.95    1.49
  -5  -1 -10   25.28    1.66
  -5   1 -10   28.91    1.67
   5   1  10   25.08    1.46
  -5   1 -10   25.10    1.52
  -6  -1 -10    6.36    0.75
   6  -1  10    5.79    0.56
   6   1  10    5.51    0.55
  -6   1 -10    4.58    0.70
  -7  -1 -10   56.35    3.21
   7  -1  10   55.40    2.96
  -7   1 -10   57.38    3.20
   7   1  10   57.91    2.96
   8  -1  10    1.37    0.34
  -8  -1 -10    1.77    0.56
   8   1  10    1.98    0.40
  -8   1 -10    1.33    0.50
  -9  -1 -10   15.69    1.41
   9  -1  10   17.12    1.17
  -9   1 -10   17.50    1.47
   9   1  10   17.09    1.18
 -13  -2  10    0.74    0.46
  13  -2 -10    0.33    0.27
 -13   2  10    0.05    0.51
  13   2 -10    0.14    0.23
  12  -2 -10    5.70    0.55
 -12  -2  10    6.33    0.92
 -12   2  10    4.06    0.86
  12   2 -10    5.52    0.56
  11  -2 -10    2.97    0.39
 -11  -2  10    2.64    0.61
  11   2 -10    2.05    0.35
 -11   2  10    2.79    0.75
  10  -2 -10    0.94    0.26
  10  -2 -10    1.13    0.24
 -10  -2  10    0.51    0.36
  10   2 -10    0.69    0.23
 -10   2  10    0.62    0.43
   9  -2 -10    3.55    0.41
   9  -2 -10    3.91    0.39
  -9  -2  10    3.16    0.57
  -9  -2  10    3.71    0.52
  -9   2  10    3.24    0.71
   9   2 -10    3.71    0.39
   8  -2 -10   79.11    4.06
   8  -2 -10   87.16    4.01
  -8  -2  10   84.43    4.18
  -8  -2  10   76.30    4.29
  -8   2  10   81.90    4.58
   8   2 -10   89.15    4.11
   8   2 -10   79.28    4.02
  -7  -2  10    0.50    0.24
   7  -2 -10    0.75    0.17
  -7  -2  10    0.73    0.33
   7  -2 -10    1.07    0.25
   7   2 -10    0.77    0.24
   7   2 -10    0.53    0.16
  -7   2  10    0.55    0.38
  -6  -2  10   20.65    1.36
  -6  -2  10   19.47    1.25
   6  -2 -10   20.13    1.16
   6  -2 -10   19.43    1.05
   6   2 -10   20.31    1.19
   6   2 -10   20.71    1.10
  -6   2  10   20.70    1.56
   5  -2 -10   42.37    2.00
  -5  -2  10   41.03    2.32
  -5  -2  10   43.37    2.25
   5  -2 -10   39.06    2.11
  -5   2  10   40.27    2.54
   5   2 -10   41.63    2.17
   5   2 -10   39.21    2.03
  -4  -2  10    3.85    0.50
  -4  -2  10    3.68    0.53
   4  -2 -10    4.86    0.43
   4  -2 -10    4.38    0.28
  -4   2  10    4.47    0.32
  -4   2  10    3.99    0.70
   4   2 -10    3.76    0.31
   4   2 -10    4.04    0.42
  -3  -2  10    0.04    0.19
   3  -2 -10    0.07    0.13
  -3  -2  10    0.03    0.19
   3  -2 -10    0.17    0.07
   3   2 -10    0.14    0.09
   3   2 -10    0.22    0.17
  -3   2  10    0.19    0.26
  -3   2  10    0.30    0.12
   2  -2 -10   75.65    3.63
  -2  -2  10   75.75    3.73
  -2  -2  10   72.06    3.78
   2   2 -10   76.84    3.51
  -2   2  10   75.69    3.56
  -2   2  10   67.22    3.98
   2   2 -10   70.69    3.67
  -1  -2  10   42.04    2.47
  -1  -2  10   44.42    2.42
   1  -2 -10   48.00    2.36
  -1   2  10   45.72    2.30
   1   2 -10   50.34    2.43
   0  -2  10    3.85    0.42
   0  -2 -10    2.86    0.34
   0  -2  10    3.13    0.45
   0   2  10    2.93    0.55
   0   2 -10    3.27    0.43
   0   2  10    2.92    0.31
   1  -2  10   21.27    1.30
  -1  -2 -10   23.71    1.27
   1   2  10   19.89    1.51
  -1   2 -10   22.60    1.31
   1   2  10   23.24    1.24
  -1   2 -10   23.35    1.34
   2  -2  10   17.90    1.08
  -2  -2 -10   16.49    1.02
   2   2  10   16.47    1.29
   2   2  10   17.59    1.02
  -2   2 -10   18.64    1.12
  -2   2 -10   17.26    1.09
  -3  -2 -10    1.06    0.35
   3  -2  10    1.04    0.25
  -3  -2 -10    1.32    0.28
  -3   2 -10    1.23    0.31
   3   2  10    0.91    0.23
  -3   2 -10    0.91    0.28
   4  -2  10   42.98    2.35
  -4  -2 -10   44.68    2.53
  -4   2 -10   40.51    2.39
  -4   2 -10   47.28    2.47
   4   2  10   48.73    2.35
  -5  -2 -10    0.84    0.36
   5  -2  10    0.71    0.26
  -5   2 -10    0.47    0.29
   5   2  10    0.59    0.25
  -5   2 -10    0.44    0.27
  -6  -2 -10   29.61    1.92
   6  -2  10   29.28    1.71
  -6   2 -10   32.04    1.90
   6   2  10   29.90    1.70
   7  -2  10    9.08    0.73
  -7  -2 -10    8.64    0.91
  -7   2 -10    7.39    0.88
   7   2  10    8.03    0.71
  -8  -2 -10   14.34    1.28
   8  -2  10   13.60    1.00
  -8   2 -10   13.79    1.23
   8   2  10   13.99    1.00
   9  -2  10    0.12    0.25
  -9  -2 -10    0.27    0.44
  -9   2 -10    0.00    0.38
   9   2  10    0.31    0.29
  13  -3 -10   80.12    3.98
  13   3 -10   77.60    4.02
  12  -3 -10    6.91    0.62
  12   3 -10    6.09    0.63
 -12   3  10    6.85    1.16
  11  -3 -10  180.48    8.51
 -11  -3  10  188.41    8.69
 -11   3  10  171.59    9.21
  11   3 -10  170.13    8.52
 -10  -3  10   21.31    1.32
  10  -3 -10   19.54    1.16
  10  -3 -10   19.97    1.21
  10   3 -10   18.69    1.18
 -10   3  10   19.61    1.73
   9  -3 -10  159.41    7.78
   9  -3 -10  165.20    7.72
  -9  -3  10  179.97    7.93
  -9   3  10  150.24    8.36
   9   3 -10  154.57    7.75
   8  -3 -10    2.12    0.34
  -8  -3  10    1.30    0.37
   8  -3 -10    2.53    0.30
   8   3 -10    1.57    0.29
  -8   3  10    0.96    0.52
  -7  -3  10  123.15    6.45
   7  -3 -10  133.49    6.26
   7  -3 -10  133.36    6.36
   7   3 -10  137.04    6.31
   7   3 -10  128.28    6.37
  -7   3  10  135.41    6.97
  -6  -3  10    0.42    0.27
   6  -3 -10    0.14    0.12
   6  -3 -10    0.49    0.21
   6   3 -10    0.35    0.16
   6   3 -10    0.35    0.21
  -6   3  10   -0.18    0.27
   5  -3 -10  365.66   17.11
   5  -3 -10  375.95   16.98
  -5  -3  10  335.72   17.22
   5   3 -10  366.71   17.03
  -5   3  10  353.08   17.65
   5   3 -10  385.76   17.16
   4  -3 -10   19.86    1.11
   4  -3 -10   19.04    0.97
  -4  -3  10   17.57    1.20
   4   3 -10   17.80    1.14
   4   3 -10   19.36    1.02
  -4   3  10   18.51    1.49
   3  -3 -10  106.42    5.07
  -3  -3  10  105.07    5.34
   3  -3 -10  118.19    5.22
   3   3 -10   99.40    5.24
  -3   3  10  107.74    5.08
  -3   3  10  101.06    5.62
   3   3 -10  110.49    5.10
   2  -3 -10    9.56    0.64
  -2  -3  10    7.57    0.70
   2   3 -10    7.89    0.67
  -2   3  10    7.35    0.99
   2   3 -10    8.97    0.52
  -2   3  10    7.62    0.52
  -1  -3  10  189.25   10.25
   1  -3 -10  222.52   10.15
  -1  -3  10  222.71   10.28
  -1   3  10  206.08   10.55
   1   3 -10  214.87   10.04
  -1   3  10  208.58   10.07
   1   3 -10  233.83   10.25
   0  -3  10    0.56    0.23
   0   3  10    0.16    0.30
   0   3 -10    0.33    0.22
   0   3  10    0.38    0.15
   1  -3  10  313.10   14.77
  -1  -3 -10  312.71   14.67
  -1   3 -10  323.34   14.79
   1   3  10  298.29   15.04
   1   3  10  311.11   14.64
   2  -3  10   22.33    1.26
  -2  -3 -10   17.48    1.12
  -2   3 -10   20.38    1.21
   2   3  10   21.04    1.15
  -2   3 -10   19.06    1.26
   2   3  10   20.25    1.47
  -3  -3 -10  141.02    7.55
   3  -3  10  161.85    7.66
  -3  -3 -10  160.68    7.82
  -3   3 -10  149.01    7.70
   3   3  10  166.72    7.59
  -3   3 -10  172.81    7.68
   4  -3  10   34.96    1.86
  -4  -3 -10   32.21    2.00
  -4   3 -10   31.83    1.88
  -4   3 -10   29.55    1.90
   4   3  10   36.21    1.81
  -5  -3 -10  102.58    5.11
   5  -3  10   97.67    4.87
  -5   3 -10   98.46    4.97
   5   3  10  100.33    4.84
  -5   3 -10   92.59    4.95
   6  -3  10    2.00    0.39
  -6  -3 -10    1.61    0.48
  -6   3 -10    1.95    0.44
   6   3  10    2.30    0.39
  -6   3 -10    1.20    0.39
  -7  -3 -10   79.52    4.27
   7  -3  10   77.63    3.99
   7   3  10   78.89    4.00
  -7   3 -10   79.13    4.28
  -8  -3 -10    2.55    0.63
   8  -3  10    1.82    0.40
   8   3  10    2.13    0.43
  12  -4 -10   82.83    4.18
 -12  -4  10   90.67    4.38
 -12   4  10   82.16    4.98
  12   4 -10   77.44    4.20
  11  -4 -10   14.92    1.03
  11  -4 -10   13.65    0.95
 -11  -4  10   16.88    1.15
  11   4 -10   12.90    0.98
 -11   4  10   13.76    1.56
  10  -4 -10   71.55    3.54
  10  -4 -10   71.74    3.62
 -10  -4  10   69.58    3.71
  10   4 -10   68.94    3.58
 -10   4  10   73.40    4.33
   9  -4 -10    0.62    0.26
  -9  -4  10    0.40    0.30
   9  -4 -10    0.36    0.20
   9   4 -10    0.37    0.22
  -9   4  10    0.19    0.43
  -8  -4  10  204.13    9.97
   8  -4 -10  197.23    9.76
   8  -4 -10  217.61    9.88
   8   4 -10  205.20    9.82
  -8   4  10  208.86   10.57
  -7  -4  10    2.47    0.44
   7  -4 -10    0.74    0.20
   7  -4 -10    0.77    0.25
   7   4 -10    0.99    0.29
  -7   4  10    1.21    0.56
   7   4 -10    0.60    0.22
   6  -4 -10  162.31    7.69
   6  -4 -10  158.72    7.81
  -6  -4  10  149.69    7.91
  -6   4  10  161.51    8.46
   6   4 -10  180.52    7.87
   6   4 -10  163.00    7.74
  -5  -4  10    0.81    0.32
   5  -4 -10    1.15    0.19
   5  -4 -10    0.89    0.26
   5   4 -10    1.27    0.31
   5   4 -10    0.92    0.21
  -5   4  10    1.08    0.52
  -4  -4  10   50.97    2.62
   4  -4 -10   49.05    2.47
   4  -4 -10   48.38    2.32
  -4   4  10   45.98    2.95
   4   4 -10   48.05    2.37
   4   4 -10   41.29    2.47
   3  -4 -10    0.44    0.21
  -3  -4  10    0.44    0.28
  -3   4  10    0.01    0.28
   3   4 -10    0.10    0.13
   3   4 -10    0.16    0.21
  -2  -4  10   93.83    4.72
   2  -4 -10   96.40    4.58
  -2   4  10   93.74    4.49
   2   4 -10   86.75    4.62
  -2   4  10   90.70    5.02
   2   4 -10   96.65    4.49
   1  -4 -10   18.79    1.14
  -1  -4  10   20.41    1.30
  -1   4  10   19.17    1.50
   1   4 -10   19.72    1.24
  -1   4  10   18.99    1.05
   1   4 -10   18.84    1.06
   0  -4  10  160.67    8.02
   0  -4 -10  170.68    7.90
   0   4 -10  167.77    8.03
   0   4  10  164.46    8.33
   0   4  10  161.93    7.83
   1  -4  10    2.29    0.41
  -1  -4 -10    2.78    0.36
   1   4  10    2.68    0.34
  -1   4 -10    2.85    0.47
   1   4  10    3.30    0.64
   2  -4  10  193.38    9.26
  -2  -4 -10  193.56    9.13
   2   4  10  188.13    9.12
  -2   4 -10  187.68    9.31
   2   4  10  198.49    9.58
  -3  -4 -10    1.08    0.39
   3  -4  10    1.15    0.31
   3   4  10    1.22    0.26
  -3   4 -10    2.03    0.45
  -4  -4 -10   69.94    3.76
   4  -4  10   68.78    3.58
   4   4  10   70.57    3.52
  -4   4 -10   70.39    3.69
  -5  -4 -10    2.03    0.50
   5  -4  10    1.39    0.34
   5   4  10    1.24    0.32
  -5   4 -10    2.34    0.49
   6  -4  10   53.47    2.97
  -6  -4 -10   60.27    3.25
   6   4  10   58.23    2.97
  -6   4 -10   55.86    3.11
  -7  -4 -10    6.44    0.89
   7  -4  10    6.40    0.65
   7   4  10    5.92    0.65
  -8  -4 -10   62.30    3.63
   8   4  10   65.16    3.47
 -11  -5  10   -0.05    0.32
  11  -5 -10    1.22    0.38
  11  -5 -10    0.28    0.25
 -11   5  10   -0.17    0.52
  11   5 -10   -0.01    0.25
 -10  -5  10    1.63    0.45
  10  -5 -10    1.57    0.39
  10  -5 -10    1.50    0.32
  10   5 -10    1.20    0.32
 -10   5  10    0.85    0.66
   9  -5 -10    0.97    0.26
   9  -5 -10    0.72    0.31
  -9  -5  10    0.88    0.36
  -9   5  10    1.06    0.61
   9   5 -10    0.57    0.25
  -8  -5  10    3.16    0.55
   8  -5 -10    2.93    0.46
   8  -5 -10    2.85    0.37
  -8   5  10    1.93    0.74
   8   5 -10    2.82    0.41
   7  -5 -10   19.82    1.16
  -7  -5  10   21.29    1.41
   7  -5 -10   22.16    1.30
   7   5 -10   20.74    1.22
  -7   5  10   18.69    1.77
   6  -5 -10    0.28    0.16
  -6  -5  10    0.29    0.26
   6  -5 -10    0.70    0.26
   6   5 -10    0.42    0.25
  -6   5  10    0.58    0.50
   6   5 -10    0.25    0.19
   5  -5 -10    4.51    0.50
  -5  -5  10    4.75    0.64
   5  -5 -10    4.07    0.36
   5   5 -10    3.79    0.51
   5   5 -10    3.02    0.39
  -5   5  10    4.74    0.92
   4  -5 -10    0.83    0.28
  -4  -5  10    0.29    0.30
   4  -5 -10    0.45    0.16
   4   5 -10    0.68    0.21
   4   5 -10    0.96    0.32
  -4   5  10    1.62    0.58
  -3  -5  10    1.44    0.37
   3  -5 -10    1.58    0.33
  -3   5  10    1.45    0.53
   3   5 -10    1.33    0.26
   3   5 -10    1.32    0.36
   2  -5 -10    1.07    0.28
  -2  -5  10    1.77    0.44
   2   5 -10    1.23    0.24
  -2   5  10    0.62    0.40
   2   5 -10    1.24    0.35
  -1  -5  10    0.65    0.32
   1  -5 -10    0.22    0.20
   1   5 -10    0.40    0.18
   1   5 -10    0.48    0.29
  -1   5  10    0.34    0.33
   0  -5  10    2.34    0.34
   0  -5 -10    1.57    0.32
   0  -5  10    1.97    0.44
   0   5 -10    1.79    0.40
   0   5  10    1.15    0.47
   0   5  10    1.86    0.28
   1  -5  10    2.06    0.43
  -1  -5 -10    2.09    0.35
   1   5  10    1.63    0.29
  -1   5 -10    2.03    0.46
   1   5  10    3.00    0.63
   2  -5  10    1.58    0.39
  -2  -5 -10    2.13    0.35
   2   5  10    1.95    0.32
  -2   5 -10    1.68    0.45
   2   5  10    1.98    0.52
  -3  -5 -10    0.65    0.33
   3  -5  10    0.82    0.32
  -3   5 -10    1.93    0.47
   3   5  10    0.33    0.22
  -4  -5 -10    7.28    0.83
   4  -5  10    7.18    0.70
  -4   5 -10    7.13    0.79
   4   5  10    6.84    0.62
   5  -5  10    0.24    0.26
  -5  -5 -10    0.52    0.37
  -5   5 -10    1.07    0.43
   5   5  10   -0.09    0.22
   6  -5  10    3.15    0.50
  -6  -5 -10    2.88    0.62
   6   5  10    3.55    0.50
  -6   5 -10    4.01    0.65
  -7  -5 -10   11.12    1.12
   7   5  10   11.18    0.91
  10  -6 -10  118.17    5.64
 -10  -6  10  118.35    5.84
  10  -6 -10  118.44    5.78
  10   6 -10  105.21    5.65
 -10   6  10  113.82    6.55
   9  -6 -10    3.80    0.48
   9  -6 -10    3.17    0.55
  -9  -6  10    3.41    0.59
   9   6 -10    3.14    0.45
  -9   6  10    3.36    0.90
  -9   6  10    4.05    0.64
   8  -6 -10   84.60    4.38
   8  -6 -10   88.57    4.25
  -8  -6  10   95.58    4.53
   8   6 -10   83.17    4.28
  -8   6  10   83.88    5.10
  -8   6  10   79.63    4.41
   7  -6 -10    1.69    0.31
  -7  -6  10    1.13    0.40
   7   6 -10    1.89    0.34
  -7   6  10    1.71    0.69
  -7   6  10    1.36    0.39
   6  -6 -10  117.02    5.43
  -6  -6  10  112.16    5.69
   6   6 -10  121.52    5.64
  -6   6  10  113.36    6.26
  -6   6  10  103.15    5.60
   6   6 -10  107.56    5.47
   5  -6 -10    0.15    0.17
  -5  -6  10    0.34    0.32
   5   6 -10   -0.13    0.17
  -5   6  10    0.21    0.27
  -5   6  10   -0.27    0.36
   5   6 -10    0.37    0.29
   4  -6 -10  136.14    6.04
  -4  -6  10  107.46    6.09
   4   6 -10  127.70    5.92
  -4   6  10  114.79    6.02
   4   6 -10  118.71    6.05
  -4   6  10  126.55    6.61
   3  -6 -10    1.42    0.35
  -3  -6  10    1.88    0.46
  -3   6  10    1.36    0.58
   3   6 -10    2.56    0.36
   3   6 -10    1.91    0.45
   2  -6 -10  101.82    5.16
  -2  -6  10  112.39    5.37
  -2   6  10  107.08    5.66
   2   6 -10   98.67    5.27
   2   6 -10  103.69    5.09
  -1  -6  10    0.27    0.31
   1  -6 -10    0.31    0.24
  -1  -6  10    0.22    0.19
   1   6 -10    0.02    0.18
  -1   6  10    0.20    0.37
   1   6 -10    0.08    0.28
   0  -6 -10  149.52    7.49
   0  -6  10  166.29    7.44
   0  -6  10  159.67    7.67
   0   6  10  167.25    8.00
   0   6 -10  134.87    7.61
  -1  -6 -10    5.08    0.53
   1  -6  10    5.45    0.70
  -1   6 -10    4.09    0.62
   1   6  10    5.34    0.49
   1   6  10    5.04    0.83
   2  -6  10  121.89    5.81
  -2  -6 -10  105.64    5.84
   2   6  10  124.36    6.11
  -2   6 -10  106.98    5.82
   2   6  10  118.80    5.62
  -3  -6 -10    2.21    0.52
   3  -6  10    2.56    0.49
   3   6  10    2.65    0.40
  -3   6 -10    2.56    0.56
   4  -6  10   78.42    4.24
  -4  -6 -10   85.05    4.44
  -4   6 -10   82.70    4.40
   4   6  10   85.44    4.17
  -5  -6 -10    0.97    0.45
   5  -6  10    0.89    0.45
   5   6  10    1.40    0.37
  -5   6 -10    1.34    0.47
  -6  -6 -10   53.52    3.22
  -6   6 -10   55.69    3.20
   6   6  10   58.78    3.00
   9  -7 -10  148.59    6.83
  -9   7  10  138.48    7.79
  -9   7  10  135.56    7.04
   9   7 -10  137.42    6.86
  -8  -7  10    1.13    0.47
   8  -7 -10    1.54    0.35
   8   7 -10    1.42    0.36
  -8   7  10    1.76    0.47
  -8   7  10    1.82    0.76
  -7  -7  10  140.69    6.88
   7  -7 -10  136.02    6.60
  -7   7  10  130.41    6.82
   7   7 -10  131.41    6.65
  -7   7  10  147.31    7.57
  -6  -7  10   -0.03    0.33
   6  -7 -10   -0.17    0.19
  -6   7  10   -0.01    0.45
   6   7 -10    0.49    0.25
  -6   7  10    0.11    0.29
  -5  -7  10   72.69    4.16
   5  -7 -10   85.20    4.21
  -5   7  10   83.97    4.71
   5   7 -10   80.02    4.13
   5   7 -10   77.60    3.98
  -5   7  10   77.26    4.13
  -4  -7  10   11.62    1.03
   4   7 -10   10.95    0.94
  -4   7  10   10.66    1.26
  -4   7  10    9.51    0.89
   4   7 -10   10.11    0.80
   3  -7 -10  100.15    5.13
  -3  -7  10  100.43    5.26
   3   7 -10  105.49    5.07
  -3   7  10  101.74    5.19
  -3   7  10  106.91    5.67
   3   7 -10  101.46    5.23
  -2  -7  10    3.20    0.57
   2  -7 -10    2.13    0.43
   2   7 -10    2.07    0.51
   2   7 -10    3.08    0.43
  -2   7  10    4.36    0.82
  -1  -7  10  134.32    6.51
  -1  -7  10  135.69    6.27
   1  -7 -10  124.66    6.34
   1   7 -10  115.46    6.44
  -1   7  10  137.38    6.85
   0  -7  10    4.56    0.68
   0  -7 -10    4.42    0.57
   0  -7  10    4.66    0.51
   0   7  10    4.52    0.84
   0   7 -10    4.86    0.71
   1  -7  10   98.17    5.04
  -1   7 -10   90.38    5.06
   1   7  10  107.74    5.36
  -2  -7 -10    5.45    0.76
   2  -7  10    4.15    0.62
  -2   7 -10    3.33    0.64
   3  -7  10  154.57    7.82
  -3  -7 -10  151.22    7.94
   3   7  10  172.89    7.71
  -3   7 -10  156.10    7.95
  -4  -7 -10    6.22    0.86
  -4   7 -10    6.05    0.86
   4   7  10    8.29    0.71
  -5  -7 -10  106.03    5.29
  -5   7 -10   93.41    5.24
   5   7  10  100.07    5.00
   7  -8 -10    2.97    0.46
   7   8 -10    2.28    0.46
  -6  -8  10   18.04    1.41
   6   8 -10   19.10    1.23
  -6   8  10   17.38    1.39
  -5  -8  10    0.05    0.36
  -5   8  10    0.17    0.33
   5   8 -10    0.26    0.26
  -4  -8  10    1.97    0.51
   4   8 -10    2.23    0.54
  -4   8  10    2.47    0.53
   4   8 -10    1.96    0.41
  -3  -8  10    1.66    0.50
  -3   8  10    1.61    0.46
   3   8 -10    2.13    0.41
   3   8 -10    2.45    0.56
  -2  -8  10    0.48    0.40
   2  -8 -10    0.85    0.36
  -2   8  10    0.59    0.36
   2   8 -10    0.99    0.33
   2   8 -10    0.46    0.38
   1  -8 -10    2.06    0.45
  -1  -8  10    2.50    0.42
  -1  -8  10    2.68    0.59
   1   8 -10    1.69    0.53
   0  -8  10   21.96    1.26
   0  -8 -10   17.71    1.28
   0  -8  10   18.73    1.43
   0   8 -10   19.31    1.45
   1  -8  10    0.33    0.37
  -1   8 -10    0.09    0.38
   2  -8  10   11.42    1.03
  -2   8 -10   10.96    1.11
  13   0 -11    0.49    0.26
 -13   0  11   -0.50    0.40
  12   0 -11    0.32    0.22
 -12   0  11    0.38    0.42
 -11   0  11    0.13    0.40
  11   0 -11    0.15    0.20
 -10   0  11    0.59    0.43
  10   0 -11    0.35    0.19
   9   0 -11    0.34    0.20
  -9   0  11    0.14    0.33
   9   0 -11    0.23    0.17
   8   0 -11    0.10    0.16
   8   0 -11    0.39    0.16
  -8   0  11   -0.15    0.27
   7   0 -11    0.55    0.15
   7   0 -11    0.19    0.18
  -7   0  11    0.08    0.19
  -7   0  11    0.32    0.33
  -6   0  11    0.22    0.26
   6   0 -11    0.23    0.11
   6   0 -11   -0.06    0.14
  -6   0  11    0.22    0.17
   5   0 -11   -0.03    0.14
  -5   0  11    0.35    0.18
  -5   0  11    0.35    0.28
   5   0 -11    0.09    0.09
  -4   0  11   -0.01    0.26
   4   0 -11    0.02    0.16
  -4   0  11    0.37    0.17
   3   0 -11    0.40    0.18
  -3   0  11    0.43    0.31
  -3   0  11    0.14    0.15
  -2   0  11    0.32    0.16
   2   0 -11    0.24    0.19
  -2   0  11    0.11    0.23
   1   0 -11    0.02    0.16
  -1   0  11    0.30    0.27
  -1   0  11    0.08    0.15
   0   0  11    0.14    0.14
   0   0  11    0.38    0.26
   0   0 -11    0.21    0.18
   1   0  11    0.20    0.17
  -1   0 -11    0.19    0.19
   1   0  11    0.08    0.21
   2   0  11    0.38    0.18
  -2   0 -11    0.22    0.23
  -2   0 -11    0.18    0.20
  -3   0 -11   -0.11    0.20
  -3   0 -11    0.29    0.20
   3   0  11    0.15    0.16
  -4   0 -11    0.05    0.25
  -4   0 -11   -0.06    0.19
   4   0  11    0.13    0.19
   5   0  11    0.25    0.21
  -5   0 -11    0.28    0.29
   6   0  11    0.13    0.23
  -6   0 -11    0.04    0.28
   7   0  11   -0.03    0.22
  -7   0 -11    0.08    0.34
   8   0  11    0.28    0.25
  -8   0 -11   -0.12    0.31
  13  -1 -11   79.22    3.95
 -13  -1  11   76.98    4.48
  13   1 -11   77.13    3.95
 -13   1  11   81.65    4.67
 -12  -1  11   17.53    1.49
  12  -1 -11   16.45    1.04
 -12   1  11   16.36    1.59
  12   1 -11   16.16    1.06
  11  -1 -11   81.37    4.01
 -11  -1  11   79.50    4.48
  11   1 -11   82.55    4.03
 -11   1  11   81.22    4.62
  10  -1 -11   16.37    1.10
  10  -1 -11   15.46    0.92
 -10  -1  11   12.23    1.23
  10   1 -11   15.82    0.94
 -10   1  11   14.24    1.34
   9  -1 -11   90.19    4.56
   9  -1 -11   95.65    4.51
  -9  -1  11   90.46    4.93
   9   1 -11  101.63    4.72
  -9   1  11   88.60    5.05
   9   1 -11   91.46    4.52
   8  -1 -11  107.08    4.93
  -8  -1  11  101.91    5.36
  -8  -1  11   99.08    5.09
   8  -1 -11   96.86    4.99
   8   1 -11  105.70    5.04
  -8   1  11  102.93    5.51
   8   1 -11  105.94    4.95
  -7  -1  11   78.50    4.23
  -7  -1  11   83.18    4.49
   7  -1 -11   81.97    4.16
   7  -1 -11   86.56    4.07
   7   1 -11   89.22    4.21
   7   1 -11   88.94    4.09
  -7   1  11   84.43    4.64
   6  -1 -11   67.94    3.25
  -6  -1  11   60.24    3.52
   6  -1 -11   65.42    3.12
  -6  -1  11   58.01    3.30
  -6   1  11   65.94    3.69
   6   1 -11   68.46    3.29
   6   1 -11   67.37    3.15
   5  -1 -11  149.56    6.99
  -5  -1  11  157.92    7.47
  -5  -1  11  131.71    7.17
   5  -1 -11  140.85    7.11
  -5   1  11  155.22    7.61
   5   1 -11  153.20    7.01
   5   1 -11  150.02    7.17
  -5   1  11  153.93    7.08
   4  -1 -11    1.64    0.28
  -4  -1  11    2.30    0.37
  -4  -1  11    1.26    0.38
   4   1 -11    2.47    0.21
  -4   1  11    1.52    0.47
   4   1 -11    2.75    0.37
  -4   1  11    1.82    0.26
   3  -1 -11   86.85    4.34
  -3  -1  11   87.70    4.61
  -3  -1  11   90.68    4.40
   3   1 -11   96.80    4.41
  -3   1  11   82.10    4.28
   2  -1 -11   28.25    1.53
  -2  -1  11   28.60    1.57
  -2  -1  11   27.21    1.73
  -2   1  11   25.37    1.79
  -2   1  11   27.58    1.47
   2   1 -11   28.80    1.57
  -1  -1  11   56.55    2.78
   1  -1 -11   55.77    2.75
  -1  -1  11   52.76    2.97
  -1   1  11   50.32    3.03
  -1   1  11   53.59    2.70
   1   1 -11   54.50    2.79
   0  -1 -11  179.69    9.19
   0  -1  11  219.47    9.26
   0  -1  11  178.38    9.40
   0   1  11  180.17    9.51
   0   1 -11  190.60    9.24
   0   1  11  209.85    9.18
   1  -1  11   77.42    3.92
   1   1  11   68.14    4.15
  -1   1 -11   78.86    3.95
   1   1  11   79.55    3.88
  -1   1 -11   89.57    4.02
  -2  -1 -11   44.78    2.52
   2  -1  11   45.31    2.39
  -2  -1 -11   44.91    2.39
  -2   1 -11   45.45    2.47
  -2   1 -11   50.50    2.45
   2   1  11   43.52    2.35
  -3  -1 -11   61.05    3.12
   3  -1  11   58.79    3.11
  -3  -1 -11   61.37    3.28
  -3   1 -11   61.08    3.15
  -3   1 -11   63.51    3.24
   3   1  11   62.07    3.10
  -4  -1 -11   53.62    2.88
   4  -1  11   52.74    2.69
   4   1  11   49.27    2.66
  -4   1 -11   50.23    2.81
  -4   1 -11   52.46    2.72
  -5  -1 -11   38.85    2.28
   5  -1  11   38.54    2.08
   5   1  11   37.34    2.05
  -5   1 -11   37.34    2.22
   6  -1  11   85.44    4.19
  -6  -1 -11   81.49    4.40
  -6   1 -11   81.58    4.38
   6   1  11   83.46    4.18
   7  -1  11   86.52    4.49
  -7  -1 -11   89.65    4.76
   7   1  11   91.91    4.50
  -7   1 -11   88.51    4.72
   8  -1  11   26.41    1.66
  -8  -1 -11   29.74    1.99
  -8   1 -11   28.40    1.95
   8   1  11   28.31    1.68
  13  -2 -11   10.25    0.82
 -13  -2  11   10.08    1.16
  13   2 -11   11.37    0.85
 -13   2  11   10.59    1.49
  12  -2 -11  123.49    6.02
 -12  -2  11  122.04    6.47
 -12   2  11  130.41    6.82
  12   2 -11  122.11    6.05
 -11  -2  11   48.42    2.96
  11  -2 -11   51.03    2.58
 -11   2  11   50.93    3.24
  11   2 -11   50.20    2.60
 -10  -2  11  141.40    7.22
  10  -2 -11  141.36    6.80
  10  -2 -11  146.34    6.87
 -10   2  11  138.96    7.49
  10   2 -11  142.44    6.84
  -9  -2  11   53.90    2.93
   9  -2 -11   56.77    2.75
   9  -2 -11   56.62    2.83
  -9  -2  11   55.20    3.12
   9   2 -11   55.58    2.78
  -9   2  11   50.89    3.33
   8  -2 -11   94.68    4.72
  -8  -2  11   91.39    4.82
  -8  -2  11   93.77    4.99
   8  -2 -11   93.76    4.63
   8   2 -11   99.99    4.76
  -8   2  11  102.19    5.33
   8   2 -11   99.77    4.67
   7  -2 -11   49.41    2.49
  -7  -2  11   47.67    2.73
  -7  -2  11   43.77    2.57
   7  -2 -11   50.86    2.38
   7   2 -11   46.89    2.51
  -7   2  11   48.67    3.00
   7   2 -11   48.82    2.41
   6  -2 -11  105.92    4.72
   6  -2 -11   96.10    4.83
  -6  -2  11  100.95    5.10
  -6  -2  11   94.91    4.94
   6   2 -11  100.38    4.75
  -6   2  11  103.88    5.41
   6   2 -11   92.51    4.86
   5  -2 -11   56.85    2.85
  -5  -2  11   55.60    3.07
   5  -2 -11   54.51    2.72
  -5  -2  11   58.64    2.98
   5   2 -11   57.88    2.75
  -5   2  11   53.57    3.31
   5   2 -11   55.71    2.89
  -4  -2  11  101.32    4.97
   4  -2 -11  100.81    4.86
  -4  -2  11  105.26    5.09
  -4   2  11  100.10    4.75
  -4   2  11  100.11    5.34
   4   2 -11  100.34    4.73
   4   2 -11   90.16    4.88
  -3  -2  11  127.84    6.52
   3  -2 -11  136.80    6.34
  -3  -2  11  135.16    6.45
  -3   2  11  123.24    6.75
   3   2 -11  139.74    6.40
  -3   2  11  125.21    6.24
  -2  -2  11  160.35    7.87
  -2  -2  11  162.71    7.78
   2  -2 -11  170.50    7.69
  -2   2  11  159.69    8.11
   2   2 -11  146.87    7.71
  -2   2  11  163.47    7.61
  -1  -2  11   79.78    3.98
   1  -2 -11   81.00    3.89
  -1  -2  11   72.59    4.03
  -1   2  11   76.31    4.27
   1   2 -11   86.08    3.98
  -1   2  11   76.74    3.83
   0  -2  11  162.70    8.66
   0  -2 -11  168.88    8.51
   0  -2  11  180.64    8.60
   0   2 -11  170.17    8.58
   0   2 -11  198.44    8.58
   0   2  11  193.35    8.49
   0   2  11  176.38    8.92
   1  -2  11   94.60    4.58
  -1  -2 -11   93.96    4.52
  -1   2 -11   92.05    4.56
   1   2  11   85.15    4.84
  -1   2 -11   95.53    4.60
   1   2  11   90.19    4.47
  -2  -2 -11   94.44    4.73
  -2  -2 -11   91.04    4.54
   2  -2  11   88.80    4.57
  -2   2 -11   93.30    4.61
  -2   2 -11  100.85    4.64
   2   2  11   83.28    4.85
   2   2  11   94.48    4.52
   3  -2  11  116.69    5.54
  -3  -2 -11  106.71    5.68
   3   2  11  113.74    5.48
  -3   2 -11  110.70    5.58
  -3   2 -11  115.29    5.57
   4  -2  11   93.00    4.79
  -4  -2 -11  103.47    5.03
  -4   2 -11   98.91    4.90
   4   2  11  102.42    4.78
  -4   2 -11   87.35    4.83
   5  -2  11   24.96    1.50
  -5  -2 -11   27.55    1.73
  -5   2 -11   24.57    1.63
   5   2  11   26.97    1.51
  -5   2 -11   24.59    1.57
  -6  -2 -11   62.08    3.38
   6  -2  11   57.94    3.12
  -6   2 -11   59.52    3.29
   6   2  11   61.12    3.12
   7  -2  11   27.06    1.61
  -7  -2 -11   26.31    1.86
  -7   2 -11   26.94    1.81
   7   2  11   27.21    1.61
   8  -2  11   54.78    2.98
  -8  -2 -11   54.06    3.28
  -8   2 -11   55.57    3.24
   8   2  11   58.71    3.00
  12  -3 -11    1.11    0.30
 -12   3  11    0.26    0.53
  12   3 -11    0.58    0.27
  11  -3 -11    2.45    0.38
 -11   3  11    2.76    0.82
  11   3 -11    2.38    0.39
  10  -3 -11   10.33    0.80
  10  -3 -11   10.87    0.75
 -10  -3  11   11.30    0.96
 -10   3  11    9.42    1.34
  10   3 -11   11.44    0.79
   9  -3 -11   36.46    1.84
   9  -3 -11   34.20    1.92
  -9  -3  11   38.95    2.08
  -9   3  11   32.91    2.47
   9   3 -11   32.73    1.86
   8  -3 -11    7.93    0.55
  -8  -3  11    7.94    0.74
   8  -3 -11    6.91    0.62
   8   3 -11    7.88    0.90
   8   3 -11    8.26    0.60
  -8   3  11    6.91    1.09
   7  -3 -11    5.27    0.51
   7  -3 -11    5.29    0.40
  -7  -3  11    4.08    0.57
  -7   3  11    4.22    0.87
   7   3 -11    5.34    0.45
   7   3 -11    4.97    0.52
   6  -3 -11   11.52    0.79
  -6  -3  11   10.58    0.89
   6  -3 -11   10.70    0.65
  -6   3  11    9.62    1.14
   6   3 -11   11.52    0.70
   6   3 -11   11.89    0.82
   5  -3 -11    1.00    0.26
  -5  -3  11    0.24    0.26
  -5   3  11    0.52    0.43
   5   3 -11    1.16    0.20
   5   3 -11    0.67    0.25
  -4  -3  11   24.68    1.69
   4  -3 -11   31.48    1.62
   4   3 -11   29.68    1.50
   4   3 -11   30.57    1.66
  -4   3  11   27.29    2.02
   3  -3 -11   38.32    2.05
  -3  -3  11   42.53    2.21
  -3   3  11   36.34    2.47
   3   3 -11   37.75    1.92
  -3   3  11   36.81    1.96
   3   3 -11   40.40    2.11
   2  -3 -11    2.11    0.34
  -2  -3  11    1.45    0.34
   2   3 -11    2.55    0.42
  -2   3  11    1.04    0.47
  -2   3  11    1.37    0.22
  -1  -3  11   28.44    1.66
   1  -3 -11   30.67    1.57
  -1   3  11   24.70    1.87
   1   3 -11   29.21    1.63
  -1   3  11   26.50    1.47
   0  -3  11    5.67    0.58
   0  -3 -11    6.56    0.53
   0   3 -11    4.87    0.56
   0   3  11    7.77    0.87
   0   3  11    5.75    0.46
  -1  -3 -11    5.32    0.48
   1  -3  11    4.87    0.53
   1   3  11    5.05    0.80
   1   3  11    6.00    0.48
  -1   3 -11    5.12    0.57
   2  -3  11    5.34    0.56
  -2  -3 -11    5.33    0.49
  -2   3 -11    4.91    0.58
   2   3  11    3.94    0.73
   2   3  11    4.96    0.47
   3  -3  11    3.23    0.46
  -3  -3 -11    2.03    0.46
  -3   3 -11    2.25    0.43
   3   3  11    2.62    0.38
  -4  -3 -11    5.56    0.77
   4  -3  11    5.76    0.58
  -4   3 -11    4.97    0.62
   4   3  11    5.36    0.53
  -5  -3 -11   16.44    1.28
   5  -3  11   16.02    1.10
  -5   3 -11   15.48    1.17
   5   3  11   17.03    1.07
   6  -3  11    7.49    0.71
  -6  -3 -11    7.14    0.84
   6   3  11    7.25    0.68
   7  -3  11    5.15    0.61
  -7  -3 -11    5.28    0.82
   7   3  11    5.87    0.63
  -8  -3 -11    3.85    0.92
   8  -3  11    3.79    0.55
   8   3  11    3.91    0.78
  12  -4 -11   11.58    0.87
 -12   4  11   12.78    1.84
  12   4 -11   11.31    0.89
 -11  -4  11   27.26    1.72
  11  -4 -11   27.89    1.54
  11  -4 -11   25.91    1.59
  11   4 -11   26.30    1.56
 -11   4  11   25.84    2.24
  10  -4 -11   58.15    3.14
 -10  -4  11   70.60    3.35
  10  -4 -11   58.22    3.05
 -10   4  11   57.68    3.83
  10   4 -11   59.20    3.11
   9  -4 -11   28.65    1.59
   9  -4 -11   29.30    1.71
  -9  -4  11   34.19    1.88
  -9   4  11   26.95    2.25
   9   4 -11   29.16    1.65
  -8  -4  11   84.28    4.14
   8  -4 -11   79.13    3.87
   8  -4 -11   78.84    3.99
   8   4 -11   76.49    3.91
  -8   4  11   76.80    4.65
   7  -4 -11   10.17    0.78
   7  -4 -11    9.39    0.65
  -7  -4  11    9.19    0.86
   7   4 -11   12.40    0.83
  -7   4  11   11.05    1.30
   7   4 -11    9.93    0.70
   6  -4 -11    3.90    0.35
   6  -4 -11    4.50    0.50
  -6  -4  11    2.84    0.50
   6   4 -11    4.35    0.41
   6   4 -11    4.67    0.52
  -6   4  11    3.10    0.79
   5  -4 -11   34.21    1.92
  -5  -4  11   35.05    2.07
   5   4 -11   38.10    1.99
  -5   4  11   33.84    2.45
   5   4 -11   35.05    1.83
   4  -4 -11   92.05    4.46
  -4  -4  11   89.33    4.61
   4   4 -11   90.41    4.51
  -4   4  11   90.30    5.03
   4   4 -11   88.08    4.35
  -3  -4  11   10.49    0.91
   3  -4 -11   11.60    0.80
  -3   4  11   10.45    1.16
   3   4 -11   10.75    0.68
   3   4 -11   10.53    0.83
  -2  -4  11  151.99    6.79
   2  -4 -11  135.68    6.58
   2   4 -11  132.66    6.65
  -2   4  11  123.22    7.02
  -1  -4  11   32.35    2.01
   1  -4 -11   35.88    1.90
  -1   4  11   34.37    1.80
  -1   4  11   34.06    2.30
   1   4 -11   37.61    2.00
   0  -4  11   29.28    1.85
   0  -4 -11   34.46    1.76
   0   4  11   30.70    2.13
   0   4 -11   31.49    1.86
   0   4  11   32.00    1.68
  -1  -4 -11   70.08    3.50
   1  -4  11   70.43    3.63
  -1   4 -11   71.00    3.65
   1   4  11   70.18    3.93
   1   4  11   67.63    3.45
  -2  -4 -11   25.50    1.49
   2  -4  11   27.87    1.63
  -2   4 -11   25.36    1.65
   2   4  11   29.44    1.93
   2   4  11   27.77    1.50
  -3  -4 -11    8.05    0.81
   3  -4  11    7.45    0.71
   3   4  11    7.80    0.63
  -3   4 -11    7.02    0.76
   4  -4  11   40.54    2.31
  -4  -4 -11   42.13    2.49
  -4   4 -11   40.94    2.40
   4   4  11   43.78    2.25
  -5  -4 -11   14.75    1.22
   5  -4  11   14.24    1.03
  -5   4 -11   13.41    1.11
   5   4  11   14.87    1.00
  -6  -4 -11   43.05    2.56
   6  -4  11   40.55    2.30
   6   4  11   42.75    2.28
  -6   4 -11   39.74    2.40
   7  -4  11    9.20    0.83
  -7  -4 -11    8.79    1.03
   7   4  11    9.69    0.83
  11  -5 -11  171.91    8.54
 -11  -5  11  197.77    8.82
  11  -5 -11  180.30    8.66
 -11   5  11  168.06    9.49
  11   5 -11  171.42    8.59
  10  -5 -11   42.95    2.41
  10  -5 -11   45.85    2.31
 -10  -5  11   48.26    2.57
  10   5 -11   39.93    2.33
 -10   5  11   40.32    3.08
   9  -5 -11   44.89    2.45
  -9  -5  11   47.84    2.61
   9  -5 -11   46.26    2.34
   9   5 -11   42.94    2.37
  -9   5  11   41.51    3.11
  -8  -5  11   54.97    3.07
   8  -5 -11   59.00    2.83
   8  -5 -11   57.29    2.96
  -8   5  11   51.81    3.60
   8   5 -11   54.48    2.86
   7  -5 -11   59.31    3.16
  -7  -5  11   62.78    3.30
   7  -5 -11   63.90    3.03
   7   5 -11   58.15    3.07
  -7   5  11   59.48    3.86
   6  -5 -11   38.79    2.08
  -6  -5  11   39.70    2.23
  -6   5  11   36.81    2.69
   6   5 -11   35.11    1.97
   6   5 -11   37.58    2.11
   5  -5 -11  202.98    9.69
  -5  -5  11  201.90    9.85
  -5   5  11  209.78   10.42
   5   5 -11  197.92    9.58
   5   5 -11  199.02    9.74
  -4  -5  11   64.06    3.48
   4  -5 -11   64.57    3.33
   4   5 -11   66.33    3.41
  -4   5  11   63.91    3.90
   4   5 -11   65.54    3.23
  -3  -5  11   96.77    4.92
   3  -5 -11   95.87    4.74
   3   5 -11   98.24    4.65
  -3   5  11   91.91    5.28
   3   5 -11   93.67    4.81
   2  -5 -11   83.33    3.88
  -2  -5  11   75.22    4.01
   2   5 -11   75.52    3.77
   2   5 -11   75.58    3.96
  -2   5  11   72.28    4.32
  -1  -5  11  194.08    9.01
   1  -5 -11  192.16    8.84
  -1   5  11  174.65    9.31
   1   5 -11  173.47    8.92
   0  -5  11   64.84    3.44
   0  -5 -11   66.01    3.30
   0   5  11   65.22    3.75
   0   5  11   62.39    3.20
   0   5 -11   64.99    3.45
  -1  -5 -11  131.87    6.27
   1  -5  11  129.34    6.42
   1   5  11  134.27    6.75
   1   5  11  124.06    6.20
  -1   5 -11  125.93    6.43
   2  -5  11  103.80    5.33
   2   5  11  111.31    5.68
  -2   5 -11  103.87    5.39
   2   5  11  105.46    5.16
  -3  -5 -11   58.53    3.22
   3  -5  11   57.95    3.07
  -3   5 -11   53.30    3.12
   3   5  11   58.38    2.94
   4  -5  11   47.36    2.60
  -4  -5 -11   45.33    2.75
  -4   5 -11   46.12    2.70
   4   5  11   49.92    2.52
   5  -5  11   29.25    1.97
  -5  -5 -11   38.69    2.27
  -5   5 -11   33.93    2.14
   5   5  11   38.40    1.99
  -6  -5 -11   13.67    1.25
   6  -5  11   12.65    1.04
   6   5  11   15.69    1.05
  -6   5 -11   14.08    1.18
 -10  -6  11   38.67    2.37
  10  -6 -11   42.41    2.28
  10  -6 -11   38.92    2.11
  10   6 -11   36.94    2.15
 -10   6  11   36.64    2.97
  -9  -6  11   10.07    0.98
   9  -6 -11    9.03    0.73
   9  -6 -11    9.45    0.85
   9   6 -11    8.10    0.73
  -9   6  11    8.43    1.44
   8  -6 -11   25.39    1.58
  -8  -6  11   23.56    1.65
   8  -6 -11   26.23    1.42
  -8   6  11   24.05    2.20
   8   6 -11   24.22    1.46
  -7  -6  11   36.40    2.09
   7  -6 -11   31.97    1.93
   7   6 -11   32.72    1.83
  -7   6  11   31.96    2.58
   6  -6 -11    5.20    0.62
  -6  -6  11    4.71    0.69
   6   6 -11    4.95    0.52
  -6   6  11    4.43    0.99
   6   6 -11    5.65    0.66
   5  -6 -11   15.99    1.10
  -5  -6  11   14.32    1.18
   5   6 -11   16.92    1.18
  -5   6  11   13.88    1.50
   5   6 -11   15.47    1.00
   4  -6 -11   56.77    3.16
  -4  -6  11   64.63    3.35
   4   6 -11   62.27    3.10
  -4   6  11   61.37    3.79
   4   6 -11   60.57    3.26
  -3  -6  11    3.16    0.60
   3  -6 -11    3.10    0.48
   3   6 -11    3.02    0.41
   3   6 -11    3.23    0.56
  -3   6  11    1.78    0.62
  -2  -6  11   28.33    1.75
   2  -6 -11   26.01    1.57
   2   6 -11   27.29    1.50
  -2   6  11   26.00    2.01
   2   6 -11   24.90    1.66
   1  -6 -11   65.97    3.44
  -1  -6  11   74.76    3.66
  -1   6  11   65.78    3.92
   1   6 -11   61.79    3.55
   0  -6 -11   18.17    1.22
   0  -6  11   21.36    1.41
   0   6 -11   19.66    1.39
   0   6  11   18.98    1.60
   1  -6  11   69.96    3.65
  -1  -6 -11   69.21    3.48
   1   6  11   65.17    3.48
  -1   6 -11   66.48    3.66
   1   6  11   70.34    3.95
   2  -6  11   28.72    1.78
  -2  -6 -11   26.13    1.84
   2   6  11   31.76    2.10
  -2   6 -11   28.85    1.84
   2   6  11   27.62    1.59
  -3  -6 -11    1.67    0.50
   3  -6  11    3.27    0.55
  -3   6 -11    1.02    0.43
   3   6  11    1.85    0.36
   4  -6  11    1.95    0.47
  -4  -6 -11    1.69    0.53
   4   6  11    1.73    0.38
  -4   6 -11    2.11    0.55
   5  -6  11   43.83    2.43
  -5  -6 -11   42.80    2.61
  -5   6 -11   38.40    2.50
   5   6  11   44.23    2.35
   8  -7 -11    6.40    0.76
  -8  -7  11    6.67    0.87
  -8   7  11    4.97    1.17
   8   7 -11    5.76    0.63
   7  -7 -11    5.60    0.72
  -7  -7  11    5.95    0.80
   7   7 -11    5.73    0.64
  -7   7  11    6.16    1.22
   6  -7 -11    5.97    0.71
  -6  -7  11    7.49    0.87
  -6   7  11    6.00    1.14
   6   7 -11    6.29    0.62
  -5  -7  11    8.64    0.93
   5  -7 -11    5.89    0.73
   5   7 -11    8.15    0.70
   5   7 -11    8.74    0.85
  -5   7  11    7.88    1.28
  -4  -7  11    3.09    0.60
   4  -7 -11    3.17    0.53
   4   7 -11    2.99    0.44
   4   7 -11    2.91    0.57
  -4   7  11    1.94    0.70
   3  -7 -11   24.79    1.59
  -3  -7  11   29.32    1.81
  -3   7  11   28.94    2.13
   3   7 -11   25.23    1.50
   3   7 -11   23.91    1.67
   2  -7 -11    1.15    0.35
  -2  -7  11    1.37    0.46
   2   7 -11    0.88    0.30
   2   7 -11    0.66    0.39
  -2   7  11    2.06    0.67
   1  -7 -11   10.65    0.88
  -1  -7  11   10.90    1.04
  -1   7  11   12.54    1.28
   1   7 -11    9.73    0.98
   0  -7 -11   37.54    2.16
   0  -7  11   37.78    2.32
   0   7  11   46.08    2.68
   0   7 -11   36.53    2.31
   1  -7  11   24.68    1.63
   1   7  11   23.54    1.85
  -1   7 -11   24.09    1.66
  -2  -7 -11    0.42    0.38
   2  -7  11    0.80    0.39
  -2   7 -11    0.53    0.43
   3  -7  11    7.41    0.81
  -3  -7 -11    7.79    0.93
   3   7  11    8.46    0.72
  -3   7 -11    6.56    0.89
  -4  -7 -11    0.06    0.38
  -4   7 -11   -0.13    0.37
   4   7  11    0.40    0.30
   6   8 -11  124.03    6.12
  -5  -8  11    6.73    0.91
   5  -8 -11    8.59    0.87
   5   8 -11    8.47    0.91
  -5   8  11    8.62    0.92
   5   8 -11    8.62    0.78
  -4  -8  11   79.71    4.18
   4  -8 -11   73.97    4.02
   4   8 -11   76.66    3.92
   4   8 -11   77.32    4.11
   3  -8 -11   31.54    1.96
  -3  -8  11   36.74    2.17
   3   8 -11   33.73    1.88
   3   8 -11   29.51    2.02
   2  -8 -11   57.77    3.14
  -2  -8  11   65.05    3.34
   2   8 -11   53.27    3.23
  -1  -8  11   31.09    2.10
   1  -8 -11   35.24    1.99
   1   8 -11   33.17    2.12
   0  -8  11   92.09    4.81
   0   8 -11   90.76    4.83
   1  -8  11   42.22    2.38
  -1   8 -11   33.24    2.82
  13   0 -12  168.97    8.32
 -13   0  12  178.59    9.05
 -12   0  12   14.31    1.39
  12   0 -12   11.44    0.84
 -11   0  12  153.90    7.74
  11   0 -12  143.60    7.10
  10   0 -12    4.55    0.43
 -10   0  12    4.36    0.78
   9   0 -12  167.51    8.39
  -9   0  12  169.41    8.87
   9   0 -12  187.90    8.32
  -8   0  12  112.69    5.99
   8   0 -12  112.74    5.54
   8   0 -12  115.46    5.44
   7   0 -12  100.93    5.01
   7   0 -12  103.96    4.89
  -7   0  12  102.01    5.44
  -6   0  12   58.92    3.41
  -6   0  12   60.26    3.02
   6   0 -12   58.42    3.01
  -5   0  12  164.37    7.94
   5   0 -12  159.98    7.94
  -5   0  12  174.17    8.37
  -4   0  12    3.98    0.42
  -4   0  12    3.72    0.66
   4   0 -12    3.93    0.45
   3   0 -12  481.19   22.30
  -3   0  12  473.40   22.66
  -3   0  12  471.95   22.28
   2   0 -12  110.57    5.32
  -2   0  12  107.05    5.27
  -2   0  12  107.82    5.61
  -1   0  12  109.89    5.20
  -1   0  12  102.01    5.50
   1   0 -12  107.22    5.23
   0   0 -12    2.53    0.40
   0   0  12    3.03    0.36
   0   0  12    3.60    0.62
   1   0  12  183.66    8.47
  -1   0 -12  185.10    8.53
   1   0  12  161.00    8.74
  -2   0 -12    5.34    0.56
   2   0  12    5.68    0.53
  -2   0 -12    5.37    0.63
  -3   0 -12  209.00   10.04
   3   0  12  209.86    9.88
  -3   0 -12  201.74    9.90
  -4   0 -12   35.76    2.05
   4   0  12   34.89    1.88
  -4   0 -12   31.18    1.88
  -5   0 -12  108.21    5.52
   5   0  12  107.29    5.32
   6   0  12   12.05    0.89
  -6   0 -12    9.93    1.02
  -7   0 -12  168.11    8.54
   7   0  12  172.42    8.28
   8   0  12    0.95    0.34
  -8   0 -12    1.37    0.54
 -13  -1  12    2.08    0.70
  13  -1 -12    1.46    0.34
 -13   1  12    2.32    0.77
  13   1 -12    2.15    0.41
  12  -1 -12   42.11    2.26
 -12  -1  12   44.32    2.81
 -12   1  12   42.85    2.91
  12   1 -12   43.09    2.28
  11  -1 -12    4.13    0.45
 -11  -1  12    3.44    0.74
 -11   1  12    4.61    0.92
  11   1 -12    4.46    0.48
  10  -1 -12   57.27    2.88
 -10  -1  12   53.18    3.27
  10  -1 -12   56.47    2.81
 -10   1  12   53.99    3.41
  10   1 -12   57.38    2.83
  -9  -1  12    9.80    1.08
   9  -1 -12   12.82    0.76
   9  -1 -12   11.81    0.83
   9   1 -12   13.37    0.79
  -9   1  12   10.83    1.22
   9   1 -12   12.23    0.87
   8  -1 -12   25.98    1.33
   8  -1 -12   25.34    1.43
  -8  -1  12   24.78    1.53
  -8  -1  12   22.77    1.72
   8   1 -12   23.94    1.46
  -8   1  12   25.35    1.90
   8   1 -12   27.02    1.36
   7  -1 -12    0.49    0.15
   7  -1 -12    0.19    0.20
  -7  -1  12    0.56    0.28
  -7  -1  12    0.46    0.34
   7   1 -12    0.71    0.18
  -7   1  12    0.69    0.43
   7   1 -12    0.34    0.22
  -6  -1  12   47.37    2.80
  -6  -1  12   43.21    2.52
   6  -1 -12   47.35    2.47
   6   1 -12   49.86    2.52
  -6   1  12   49.05    2.96
   6   1 -12   49.91    2.41
   5  -1 -12   64.63    3.31
  -5  -1  12   64.78    3.38
  -5  -1  12   67.65    3.64
  -5   1  12   68.49    3.26
   5   1 -12   67.36    3.35
  -5   1  12   61.89    3.73
  -4  -1  12   81.95    4.13
   4  -1 -12   82.01    4.07
  -4  -1  12   85.71    4.39
  -4   1  12   83.33    4.51
   4   1 -12   78.58    4.10
  -4   1  12   82.80    4.01
  -3  -1  12    5.67    0.78
   3  -1 -12    5.04    0.50
  -3  -1  12    6.11    0.56
  -3   1  12    5.79    0.47
   3   1 -12    5.04    0.51
  -3   1  12    5.38    0.79
  -2  -1  12  229.19   10.40
  -2  -1  12  210.00   10.59
   2  -1 -12  227.84   10.36
  -2   1  12  204.26   10.69
  -2   1  12  215.25   10.28
   2   1 -12  216.91   10.39
  -1  -1  12    8.28    0.68
   1  -1 -12    9.11    0.67
  -1  -1  12    7.98    0.82
   1   1 -12    9.22    0.71
  -1   1  12    8.71    0.62
  -1   1  12    8.29    0.92
   0  -1  12  117.17    5.09
   0  -1 -12  104.74    5.05
   0  -1  12   91.97    5.23
   0   1 -12  100.16    5.07
   0   1  12   96.45    5.34
   0   1  12  103.88    4.99
  -1  -1 -12    7.55    0.61
   1  -1  12    6.88    0.60
  -1   1 -12    7.43    0.65
   1   1  12    5.78    0.53
  -1   1 -12    6.04    0.60
   1   1  12    6.21    0.87
  -2  -1 -12    6.49    0.69
  -2  -1 -12    6.09    0.58
   2  -1  12    5.59    0.56
   2   1  12    6.18    0.55
  -2   1 -12    7.57    0.67
  -2   1 -12    6.07    0.60
   3  -1  12    9.59    0.75
  -3  -1 -12    9.19    0.87
  -3  -1 -12   10.08    0.76
  -3   1 -12    9.12    0.77
  -3   1 -12   11.19    0.87
   3   1  12    8.96    0.70
   4  -1  12   89.06    4.44
  -4  -1 -12   89.07    4.62
  -4   1 -12   91.88    4.59
   4   1  12   90.07    4.43
  -4   1 -12   84.62    4.45
   5  -1  12   13.72    0.99
  -5  -1 -12   15.29    1.20
   5   1  12   14.27    0.98
  -5   1 -12   13.51    1.11
   6  -1  12   46.66    2.66
  -6  -1 -12   51.27    2.92
   6   1  12   51.88    2.68
  -6   1 -12   50.92    2.89
   7  -1  12    0.09    0.25
  -7  -1 -12   -0.02    0.36
   7   1  12    0.34    0.28
  -7   1 -12   -0.08    0.33
   8  -1  12   28.67    1.77
  -8  -1 -12   31.44    2.27
  -8   1 -12   29.74    2.04
   8   1  12   29.31    1.83
 -12  -2  12    3.56    0.83
  12  -2 -12    4.19    0.48
 -12   2  12    4.33    0.99
  12   2 -12    4.04    0.49
 -11  -2  12   34.66    2.29
  11  -2 -12   34.66    1.87
  11   2 -12   35.90    1.91
 -11   2  12   34.99    2.56
  10  -2 -12   34.44    1.90
  10  -2 -12   36.03    1.83
 -10  -2  12   32.61    2.21
 -10   2  12   32.61    2.46
  10   2 -12   35.62    1.86
   9  -2 -12   23.14    1.23
  -9  -2  12   22.21    1.45
  -9  -2  12   22.37    1.61
   9  -2 -12   21.60    1.32
  -9   2  12   22.33    1.83
   9   2 -12   22.71    1.27
   8  -2 -12    9.81    0.73
  -8  -2  12    8.07    0.80
  -8  -2  12   10.16    0.98
   8  -2 -12   10.40    0.63
   8   2 -12   10.35    0.67
   8   2 -12    9.40    0.76
  -8   2  12    9.20    1.25
  -7  -2  12    4.17    0.56
  -7  -2  12    4.90    0.73
   7  -2 -12    4.56    0.48
   7   2 -12    4.70    0.52
  -7   2  12    3.15    0.75
   7   2 -12    5.11    0.41
  -6  -2  12    0.81    0.31
  -6  -2  12    0.71    0.34
   6  -2 -12    1.30    0.29
  -6   2  12    0.33    0.40
   6   2 -12    1.12    0.20
   6   2 -12    0.66    0.26
   5  -2 -12   10.95    0.79
  -5  -2  12   12.78    1.03
  -5  -2  12   10.67    0.88
   5   2 -12   12.57    0.87
  -5   2  12   11.38    1.16
   4  -2 -12   33.84    1.80
  -4  -2  12   35.28    1.93
  -4  -2  12   32.10    2.00
  -4   2  12   32.54    1.70
   4   2 -12   32.63    1.84
  -4   2  12   31.21    2.20
   3  -2 -12   31.20    1.72
  -3  -2  12   31.44    1.82
  -3  -2  12   33.17    1.94
   3   2 -12   30.19    1.77
  -3   2  12   33.71    1.65
  -3   2  12   28.36    2.09
  -2  -2  12    0.15    0.24
  -2  -2  12    0.59    0.27
   2  -2 -12    0.35    0.20
  -2   2  12    0.61    0.35
   2   2 -12    0.32    0.23
  -2   2  12    0.28    0.16
  -1  -2  12   39.62    2.07
   1  -2 -12   39.92    1.99
  -1  -2  12   33.78    2.10
  -1   2  12   34.58    2.33
  -1   2  12   34.39    1.90
   1   2 -12   37.74    2.03
   0  -2 -12    1.10    0.27
   0  -2  12    1.42    0.31
   0   2 -12    0.85    0.26
   0   2  12    0.76    0.41
   0   2 -12    0.93    0.31
   0   2  12    0.85    0.22
   1  -2  12    0.75    0.27
  -1  -2 -12    0.95    0.26
   1   2  12    0.94    0.41
  -1   2 -12    1.27    0.31
  -1   2 -12    0.82    0.31
   1   2  12    0.71    0.21
   2  -2  12    1.72    0.37
  -2  -2 -12    1.86    0.35
  -2  -2 -12    1.61    0.40
  -2   2 -12    1.93    0.39
   2   2  12    2.18    0.53
  -2   2 -12    1.96    0.38
   2   2  12    2.11    0.34
   3  -2  12   21.40    1.35
  -3  -2 -12   22.15    1.34
  -3  -2 -12   21.58    1.52
  -3   2 -12   23.81    1.42
  -3   2 -12   22.13    1.41
   3   2  12   22.50    1.32
  -4  -2 -12    7.41    0.83
   4  -2  12    7.61    0.69
   4   2  12    8.00    0.66
  -4   2 -12    8.25    0.77
  -4   2 -12    6.90    0.74
   5  -2  12   42.52    2.39
  -5  -2 -12   43.67    2.59
  -5   2 -12   40.61    2.48
   5   2  12   46.95    2.38
  -5   2 -12   46.05    2.53
   6  -2  12    0.45    0.27
  -6  -2 -12    0.28    0.37
   6   2  12    0.09    0.24
  -6   2 -12    0.70    0.37
   7  -2  12    1.05    0.33
  -7  -2 -12    0.97    0.45
  -7   2 -12   -0.01    0.36
   7   2  12    0.50    0.27
  12  -3 -12  170.12    7.98
  12   3 -12  160.12    8.02
 -12   3  12  168.64    8.91
  11  -3 -12    9.92    0.73
  11  -3 -12   10.22    0.82
 -11   3  12    8.27    1.35
  11   3 -12    9.98    0.77
 -10  -3  12   70.51    3.62
  10  -3 -12   69.48    3.39
  10  -3 -12   67.82    3.47
 -10   3  12   68.74    4.20
  10   3 -12   63.81    3.41
   9  -3 -12    3.77    0.49
  -9  -3  12    4.41    0.61
   9  -3 -12    2.73    0.36
  -9   3  12    3.03    0.80
   9   3 -12    3.41    0.42
   8  -3 -12  120.25    5.57
   8  -3 -12  119.10    5.69
  -8  -3  12  109.53    5.80
   8   3 -12  114.07    5.69
  -8   3  12  115.94    6.38
   8   3 -12  116.53    5.60
   7  -3 -12   45.60    2.26
  -7  -3  12   33.88    2.31
   7   3 -12   42.56    2.15
  -7   3  12   42.75    2.85
   7   3 -12   44.37    2.28
   6  -3 -12  155.83    7.26
  -6  -3  12  146.04    7.38
   6   3 -12  152.57    7.14
   6   3 -12  145.45    7.27
  -6   3  12  150.33    7.91
  -5  -3  12   17.54    1.25
   5  -3 -12   17.44    1.11
   5   3 -12   17.37    1.18
   5   3 -12   19.29    1.17
  -5   3  12   16.11    1.54
   4  -3 -12  267.07   12.76
  -4  -3  12  270.43   12.91
   4   3 -12  273.79   12.81
  -4   3  12  265.52   13.34
   3  -3 -12   10.57    0.75
  -3  -3  12    9.96    0.88
  -3   3  12    8.91    1.06
   3   3 -12   11.30    0.83
   2  -3 -12  154.70    7.75
  -2  -3  12  156.33    7.89
  -2   3  12  172.43    7.68
  -2   3  12  162.57    8.27
   1  -3 -12   19.33    1.13
  -1  -3  12   18.23    1.23
  -1   3  12   15.33    1.44
  -1   3  12   17.84    1.04
   1   3 -12   19.32    1.20
   0  -3 -12  242.20   11.28
   0  -3  12  232.96   11.39
   0   3 -12  254.14   11.39
   0   3  12  227.49   11.73
   0   3  12  230.30   11.21
  -1  -3 -12   11.45    0.78
   1  -3  12   10.17    0.84
   1   3  12   10.34    0.72
  -1   3 -12   10.70    0.85
   1   3  12    9.17    1.04
   2  -3  12  204.44    9.34
  -2  -3 -12  170.18    9.19
  -2  -3 -12  190.32    9.44
  -2   3 -12  211.06    9.38
   2   3  12  191.23    9.19
   2   3  12  191.72    9.66
   3  -3  12   34.58    1.96
  -3  -3 -12   33.13    2.09
   3   3  12   36.16    1.89
  -3   3 -12   32.92    1.99
  -4  -3 -12   48.29    2.77
   4  -3  12   46.32    2.57
  -4   3 -12   46.40    2.64
   4   3  12   48.96    2.52
  -5  -3 -12    1.32    0.44
   5  -3  12    1.75    0.41
   5   3  12    1.53    0.35
  -5   3 -12    1.14    0.40
  -6  -3 -12  143.04    7.50
   6  -3  12  147.38    7.26
   6   3  12  153.60    7.24
  -7  -3 -12    5.92    0.92
   7  -3  12    6.23    0.69
   7   3  12    6.01    0.67
 -11  -4  12  107.40    4.98
  11  -4 -12   96.45    4.79
  11  -4 -12   96.11    4.70
 -11   4  12   83.38    5.49
  11   4 -12   90.05    4.72
  10  -4 -12    5.60    0.65
 -10  -4  12    5.47    0.73
  10  -4 -12    6.09    0.54
  10   4 -12    5.91    0.60
 -10   4  12    6.59    1.21
   9  -4 -12   50.06    2.50
  -9  -4  12   53.71    2.79
   9  -4 -12   45.93    2.61
  -9   4  12   49.07    3.36
   9   4 -12   47.80    2.55
   8  -4 -12    0.93    0.31
  -8  -4  12    0.58    0.35
  -8   4  12    1.91    0.66
   8   4 -12    1.00    0.25
   7  -4 -12   79.20    3.97
  -7  -4  12   80.86    4.13
   7   4 -12   84.87    4.00
   7   4 -12   71.66    3.84
  -7   4  12   74.94    4.65
   6  -4 -12   19.63    1.24
  -6  -4  12   20.69    1.40
   6   4 -12   19.91    1.27
  -6   4  12   20.49    1.79
   6   4 -12   19.52    1.13
  -5  -4  12  172.02    8.32
   5  -4 -12  174.87    8.16
   5   4 -12  161.64    8.18
   5   4 -12  173.19    8.03
  -5   4  12  162.21    8.80
   4  -4 -12   77.92    3.96
  -4  -4  12   81.96    4.15
  -4   4  12   74.76    4.53
   4   4 -12   80.17    4.02
   3  -4 -12  181.78    8.44
  -3  -4  12  171.74    8.59
   3   4 -12  185.45    8.51
  -3   4  12  160.02    8.96
   2  -4 -12    0.34    0.23
  -2  -4  12    0.71    0.35
   2   4 -12    0.50    0.26
  -2   4  12    0.31    0.36
  -1  -4  12  175.07    8.42
   1  -4 -12  178.42    8.28
   1   4 -12  179.64    8.37
  -1   4  12  164.43    8.16
  -1   4  12  161.30    8.76
   0  -4  12    0.74    0.32
   0  -4 -12    0.77    0.28
   0   4 -12    0.77    0.33
   0   4  12    1.08    0.24
   0   4  12    1.03    0.52
   1  -4  12   73.07    3.89
  -1  -4 -12   74.79    3.75
   1   4  12   72.54    4.19
  -1   4 -12   78.45    3.92
   1   4  12   74.82    3.71
   2  -4  12    5.66    0.66
  -2  -4 -12    5.75    0.59
  -2   4 -12    6.06    0.71
   2   4  12    6.78    0.98
   2   4  12    7.42    0.59
  -3  -4 -12   59.72    3.28
   3  -4  12   55.87    3.09
   3   4  12   56.17    2.98
  -3   4 -12   61.49    3.20
  -4  -4 -12    9.46    1.02
   4  -4  12   11.83    0.93
  -4   4 -12   10.65    1.00
   4   4  12   13.21    0.88
   5  -4  12  121.23    5.95
  -5  -4 -12  114.90    6.15
  -5   4 -12  116.57    6.04
   5   4  12  124.23    5.89
  -6  -4 -12    8.03    1.02
   6  -4  12    6.74    0.73
   6   4  12    7.32    0.69
  11  -5 -12    4.05    0.59
 -11  -5  12    4.78    0.73
  11  -5 -12    4.43    0.53
  11   5 -12    3.87    0.55
  10  -5 -12    2.44    0.48
  10  -5 -12    2.10    0.37
 -10  -5  12    1.86    0.50
 -10   5  12    2.31    0.87
  10   5 -12    2.12    0.39
  -9  -5  12    0.20    0.36
   9  -5 -12    0.07    0.27
   9   5 -12    0.19    0.23
  -9   5  12   -0.04    0.45
  -8  -5  12    0.63    0.39
   8  -5 -12    0.20    0.27
   8   5 -12    0.13    0.20
  -8   5  12    0.03    0.48
   7  -5 -12    7.13    0.67
  -7  -5  12    6.75    0.81
   7   5 -12    7.39    0.60
  -7   5  12    7.48    1.31
   7   5 -12    7.88    0.73
  -6  -5  12   10.83    0.97
   6  -5 -12   11.19    0.86
  -6   5  12   11.37    1.54
   6   5 -12   10.28    0.89
   6   5 -12   10.55    0.74
   5  -5 -12    6.19    0.64
  -5  -5  12    7.35    0.82
  -5   5  12    4.13    0.93
   5   5 -12    7.29    0.56
   5   5 -12    8.22    0.74
  -4  -5  12    0.74    0.35
   4  -5 -12    0.78    0.29
   4   5 -12    0.70    0.34
  -4   5  12    0.86    0.49
  -3  -5  12    0.82    0.37
   3  -5 -12    0.86    0.30
   3   5 -12    0.59    0.34
  -3   5  12    0.69    0.47
  -2  -5  12    0.68    0.38
   2  -5 -12    0.38    0.27
  -2   5  12    1.15    0.55
   2   5 -12    0.87    0.35
  -1  -5  12    1.77    0.46
   1  -5 -12    1.78    0.36
  -1   5  12    1.20    0.52
   1   5 -12    2.48    0.50
   0  -5 -12    4.97    0.55
   0  -5  12    4.81    0.67
   0   5 -12    5.24    0.70
   0   5  12    4.60    0.86
   0   5  12    4.75    0.46
  -1  -5 -12   16.76    1.15
   1  -5  12   18.08    1.29
   1   5  12   18.54    1.11
  -1   5 -12   20.37    1.37
   1   5  12   20.14    1.62
  -2  -5 -12    7.24    0.86
   2  -5  12    7.44    0.78
   2   5  12    7.80    0.65
  -2   5 -12    8.03    0.85
   2   5  12   10.22    1.10
  -3  -5 -12    0.49    0.39
   3  -5  12    1.55    0.43
   3   5  12    0.49    0.26
  -3   5 -12    0.49    0.39
  -4  -5 -12    0.12    0.36
   4  -5  12    0.36    0.32
  -4   5 -12   -0.30    0.32
   4   5  12    0.16    0.25
  -5  -5 -12    3.14    0.66
   5  -5  12    2.96    0.53
  -5   5 -12    3.22    0.62
   5   5  12    2.92    0.46
  -6  -5 -12    1.75    0.87
  -6   5 -12    1.50    0.51
  -9  -6  12   73.85    3.73
   9  -6 -12   68.61    3.56
   9   6 -12   61.82    3.42
  -9   6  12   64.17    4.35
  -8  -6  12   25.26    1.70
   8  -6 -12   26.46    1.59
   8   6 -12   22.00    1.43
  -8   6  12   25.58    2.30
   7  -6 -12   64.97    3.25
  -7  -6  12   59.77    3.37
  -7   6  12   59.16    3.98
   7   6 -12   58.44    3.10
   6  -6 -12   14.12    1.03
  -6  -6  12   13.24    1.16
  -6   6  12   11.43    1.60
   6   6 -12   13.54    0.91
   6   6 -12   13.91    1.09
   5  -6 -12  102.02    5.22
  -5  -6  12  109.15    5.41
  -5   6  12   96.97    5.88
   5   6 -12  108.71    5.32
   5   6 -12  103.52    5.11
   4  -6 -12    3.47    0.54
  -4  -6  12    3.32    0.61
  -4   6  12    3.38    0.87
   4   6 -12    3.88    0.63
  -3  -6  12  149.98    7.17
   3  -6 -12  137.61    6.97
  -3   6  12  132.00    7.53
   3   6 -12  149.43    7.11
   2  -6 -12   17.78    1.19
  -2  -6  12   18.87    1.37
  -2   6  12   16.50    1.59
   2   6 -12   18.15    1.31
  -1  -6  12   69.76    3.36
   1  -6 -12   56.39    3.11
  -1   6  12   57.65    3.61
   1   6 -12   56.05    3.24
   0  -6 -12    7.83    0.72
   0  -6  12    9.10    0.89
   0   6  12    7.78    1.10
   0   6 -12    8.26    0.89
   1  -6  12  108.34    5.67
  -1   6 -12  113.11    5.72
   1   6  12  114.08    6.04
   2  -6  12    5.04    0.69
  -2  -6 -12    3.52    0.65
   2   6  12    4.16    0.51
  -2   6 -12    4.61    0.72
  -3  -6 -12   82.36    4.66
   3  -6  12   89.73    4.54
  -3   6 -12   86.35    4.60
   3   6  12   89.19    4.37
  -4  -6 -12   18.26    1.44
   4  -6  12   18.70    1.31
   4   6  12   18.07    1.19
  -4   6 -12   16.59    1.38
   8   7 -12   57.35    3.11
  -8   7  12   64.39    4.15
   7  -7 -12   23.86    1.63
  -7  -7  12   28.82    1.84
  -7   7  12   24.21    2.27
   7   7 -12   25.06    1.52
   6  -7 -12   78.60    4.15
  -6  -7  12   85.01    4.34
  -6   7  12   77.91    4.87
   6   7 -12   77.74    4.02
   5  -7 -12   25.07    1.63
  -5  -7  12   29.82    1.84
   5   7 -12   25.42    1.69
  -5   7  12   26.32    2.25
   5   7 -12   24.32    1.51
  -4  -7  12  145.86    7.85
   4  -7 -12  157.37    7.72
  -4   7  12  162.41    8.43
   4   7 -12  164.71    7.83
   3  -7 -12   18.35    1.29
  -3  -7  12   21.31    1.50
   3   7 -12   17.90    1.38
  -3   7  12   19.48    1.79
  -2  -7  12  122.62    5.87
   2  -7 -12  107.19    5.64
  -2   7  12  119.61    6.30
   2   7 -12  106.62    5.76
   1  -7 -12    3.15    0.52
  -1  -7  12    4.06    0.70
  -1   7  12    1.93    0.70
   1   7 -12    3.17    0.63
   0  -7  12   69.65    3.49
   0  -7 -12   61.07    3.27
   0   7 -12   55.74    3.40
   0   7  12   63.25    3.75
   1  -7  12    0.39    0.38
   1   7  12    0.90    0.53
  -1   7 -12    0.51    0.42
   2  -7  12   77.33    3.99
  -2  -7 -12   74.06    4.09
  -2   7 -12   70.83    4.02
  -3  -7 -12    5.88    0.86
   3  -7  12    4.58    0.68
  -3   7 -12    4.95    1.14
   4  -8 -12    6.60    0.78
  -4  -8  12    9.24    1.15
   4   8 -12    6.84    0.90
  -4   8  12    7.14    1.22
  -3  -8  12    6.11    0.88
   3  -8 -12    6.61    0.75
   3   8 -12    5.11    0.77
  -3   8  12    5.12    1.04
   2  -8 -12    0.00    0.30
  -2  -8  12    0.23    0.42
  -2   8  12   -0.02    0.50
   2   8 -12    0.55    0.42
  -1  -8  12   18.08    1.39
   1  -8 -12   15.93    1.21
  -1   8  12   17.90    1.66
   1   8 -12   15.77    1.57
  12   0 -13    0.02    0.21
 -12   0  13    0.11    0.44
  11   0 -13    0.07    0.19
 -11   0  13    0.34    0.45
  10   0 -13    0.05    0.17
 -10   0  13    0.17    0.41
  -9   0  13    0.14    0.37
   9   0 -13    0.07    0.22
  -8   0  13   -0.04    0.33
   8   0 -13   -0.03    0.19
  -7   0  13    0.03    0.33
   7   0 -13    0.21    0.21
  -6   0  13    0.04    0.17
   6   0 -13    0.11    0.19
  -6   0  13    1.29    0.49
  -5   0  13   -0.01    0.17
   5   0 -13    0.64    0.26
  -5   0  13    0.60    0.38
  -4   0  13   -0.13    0.28
  -4   0  13    0.39    0.21
   4   0 -13   -0.07    0.19
  -3   0  13    0.16    0.18
  -3   0  13    0.61    0.37
   3   0 -13    0.19    0.20
  -2   0  13    0.32    0.20
  -2   0  13   -0.15    0.25
   2   0 -13    0.12    0.21
  -1   0  13    0.36    0.20
   1   0 -13    0.17    0.22
  -1   0  13    0.13    0.27
   0   0 -13    0.15    0.22
   0   0  13    0.31    0.19
   0   0  13    0.30    0.30
  -1   0 -13    0.07    0.21
   1   0  13    0.69    0.36
   1   0  13   -0.03    0.18
  -1   0 -13    0.71    0.28
  -2   0 -13    0.03    0.24
  -2   0 -13    0.37    0.24
   2   0  13    1.02    0.30
  -3   0 -13    0.55    0.31
  -3   0 -13    0.23    0.24
   3   0  13    0.25    0.23
   4   0  13    0.20    0.23
  -4   0 -13    0.29    0.31
   5   0  13    0.23    0.26
  -5   0 -13   -0.02    0.32
   6   0  13   -0.09    0.21
  -6   0 -13    0.03    0.36
  -7   0 -13   -0.19    0.38
   7   0  13    0.26    0.31
 -12  -1  13   81.48    4.75
  12  -1 -13   84.50    4.17
 -12   1  13   87.52    4.96
  12   1 -13   83.63    4.19
  11  -1 -13    1.29    0.28
 -11  -1  13    1.64    0.58
 -11   1  13    0.49    0.47
  11   1 -13    0.60    0.24
  10  -1 -13   69.43    3.33
 -10  -1  13   66.82    3.86
  10  -1 -13   66.25    3.40
  10   1 -13   66.89    3.33
 -10   1  13   63.85    3.98
   9  -1 -13    8.62    0.68
  -9  -1  13    8.16    0.99
  -9   1  13    6.77    1.09
   9   1 -13    8.03    0.71
   9   1 -13    8.93    0.61
   8  -1 -13  201.50    9.57
  -8  -1  13  194.07    9.98
  -8   1  13  200.86   10.18
   8   1 -13  204.12    9.61
   7  -1 -13   26.59    1.46
  -7  -1  13   21.95    1.49
  -7  -1  13   25.04    1.80
  -7   1  13   25.45    1.92
   7   1 -13   26.65    1.50
  -6  -1  13  249.14   12.02
   6  -1 -13  250.85   11.63
  -6  -1  13  233.36   11.68
  -6   1  13  237.44   12.15
   6   1 -13  251.70   11.66
  -5  -1  13    1.62    0.36
   5  -1 -13    1.88    0.34
  -5  -1  13    1.98    0.52
  -5   1  13    1.56    0.50
   5   1 -13    1.82    0.36
  -5   1  13    1.55    0.28
  -4  -1  13  111.10    5.53
   4  -1 -13  117.89    5.21
  -4  -1  13  102.94    5.22
   4   1 -13   90.42    5.17
  -4   1  13  112.91    5.68
  -4   1  13  100.33    5.10
   3  -1 -13   20.60    1.27
  -3  -1  13   21.10    1.30
  -3  -1  13   18.40    1.46
  -3   1  13   21.08    1.63
   3   1 -13   24.59    1.35
  -3   1  13   20.72    1.21
   2  -1 -13   99.41    4.72
  -2  -1  13   91.75    4.98
  -2  -1  13   92.74    4.73
  -2   1  13   91.69    5.09
  -2   1  13   95.57    4.65
   2   1 -13   99.12    4.77
  -1  -1  13   13.42    1.12
   1  -1 -13   13.79    0.92
  -1  -1  13   13.46    0.93
  -1   1  13   13.38    0.86
  -1   1  13   13.23    1.19
   1   1 -13   12.48    0.94
   0  -1  13  109.08    5.82
   0  -1  13  123.77    5.62
   0   1 -13  116.87    5.62
   0   1  13  106.74    5.90
   0   1  13  111.02    5.52
   1  -1  13    0.81    0.25
  -1  -1 -13    0.89    0.29
   1   1  13    0.57    0.23
  -1   1 -13    0.54    0.27
  -1   1 -13    0.55    0.26
   1   1  13    1.57    0.46
  -2  -1 -13  118.80    6.13
  -2  -1 -13  125.22    6.29
   2  -1  13  121.27    6.12
  -2   1 -13  133.58    6.18
   2   1  13  123.94    6.09
  -2   1 -13  128.85    6.23
  -3  -1 -13   11.55    1.03
   3  -1  13   12.49    0.91
  -3  -1 -13   13.28    0.92
   3   1  13   11.17    0.86
  -3   1 -13   11.57    0.98
  -3   1 -13   14.85    0.98
   4  -1  13  101.19    5.21
  -4  -1 -13  102.72    5.39
   4   1  13  104.36    5.19
  -4   1 -13  108.63    5.37
  -4   1 -13  107.57    5.24
   5  -1  13   50.77    2.72
  -5  -1 -13   48.85    2.91
   5   1  13   53.57    2.73
  -5   1 -13   49.76    2.87
  -6  -1 -13   66.14    3.63
   6  -1  13   62.30    3.38
  -6   1 -13   65.12    3.58
   6   1  13   64.93    3.37
  -7  -1 -13   12.11    1.18
   7  -1  13   14.35    1.06
  -7   1 -13   12.71    1.19
   7   1  13   13.82    1.03
  12  -2 -13    4.74    0.51
 -12   2  13    4.92    1.00
  12   2 -13    4.73    0.54
  11  -2 -13   80.07    3.99
 -11   2  13   81.03    4.81
  11   2 -13   81.88    4.04
  10  -2 -13    4.28    0.53
 -10  -2  13    3.41    1.06
  10   2 -13    4.80    0.47
 -10   2  13    3.40    0.83
   9  -2 -13  200.23    9.49
  -9  -2  13  202.46    9.89
  -9  -2  13  195.63    9.74
   9   2 -13  193.81    9.41
  -9   2  13  199.41   10.21
  -8  -2  13    0.77    0.34
  -8  -2  13    0.60    0.37
   8  -2 -13    0.10    0.21
  -8   2  13    0.33    0.45
   8   2 -13    0.53    0.28
   7  -2 -13  240.43   11.25
  -7  -2  13  215.11   11.34
  -7  -2  13  244.91   11.61
  -7   2  13  246.86   11.96
   7   2 -13  236.02   11.29
   6  -2 -13   54.30    2.78
  -6  -2  13   53.28    3.05
  -6  -2  13   53.77    2.89
   6   2 -13   53.40    2.82
  -6   2  13   52.26    3.33
  -5  -2  13  145.76    7.10
  -5  -2  13  149.19    7.26
   5  -2 -13  140.18    6.96
   5   2 -13  138.51    7.01
  -5   2  13  148.05    7.58
  -4  -2  13   71.16    3.71
  -4  -2  13   72.05    3.86
   4  -2 -13   69.89    3.59
  -4   2  13   69.10    4.10
   4   2 -13   74.26    3.67
   3  -2 -13  163.59    7.44
  -3  -2  13  162.19    7.69
  -3  -2  13  158.54    7.54
  -3   2  13  159.58    7.34
   3   2 -13  130.09    7.43
  -3   2  13  150.67    7.93
   2  -2 -13   13.20    0.84
  -2  -2  13    9.91    0.95
  -2  -2  13   11.80    0.90
  -2   2  13    9.94    0.71
  -2   2  13    9.73    1.07
   2   2 -13   12.56    0.88
  -1  -2  13  140.18    7.21
   1  -2 -13  154.59    7.05
  -1  -2  13  150.15    7.12
   1   2 -13  141.18    7.07
  -1   2  13  138.73    7.47
  -1   2  13  145.27    6.96
   0  -2 -13    2.85    0.41
   0  -2  13    2.84    0.47
   0   2 -13    2.49    0.44
   0   2 -13    3.46    0.47
   0   2  13    3.14    0.65
   0   2  13    3.45    0.41
   1  -2  13  185.10    8.96
  -1  -2 -13  187.71    8.90
  -1   2 -13  194.83    8.96
  -1   2 -13  189.95    8.97
   1   2  13  180.75    8.84
   1   2  13  172.73    9.28
  -2  -2 -13   24.55    1.74
   2  -2  13   27.69    1.66
  -2  -2 -13   28.25    1.63
  -2   2 -13   32.74    1.73
  -2   2 -13   29.04    1.68
   2   2  13   27.05    1.58
  -3  -2 -13  169.64    8.74
   3  -2  13  172.22    8.57
   3   2  13  183.44    8.52
  -3   2 -13  186.15    8.62
  -3   2 -13  173.57    8.62
   4  -2  13   25.02    1.57
  -4  -2 -13   24.78    1.74
  -4   2 -13   27.16    1.64
  -4   2 -13   25.38    1.63
   4   2  13   26.37    1.53
   5  -2  13  160.54    7.95
  -5  -2 -13  158.51    8.15
   5   2  13  165.20    7.92
  -5   2 -13  168.25    8.09
   6  -2  13   15.72    1.15
  -6  -2 -13   15.20    1.34
  -6   2 -13   17.27    1.30
   6   2  13   16.98    1.15
   7  -2  13   42.94    2.47
  -7   2 -13   45.44    2.68
  12  -3 -13    7.30    0.64
  12   3 -13    7.14    0.68
  11  -3 -13    0.05    0.25
 -11   3  13    2.89    0.85
  11   3 -13   -0.10    0.22
 -10  -3  13   13.24    1.08
  10  -3 -13   12.09    0.93
  10   3 -13   12.78    0.88
 -10   3  13   12.08    1.47
   9  -3 -13    5.58    0.59
  -9  -3  13    5.69    0.75
   9   3 -13    5.04    0.50
  -9   3  13    7.02    1.16
  -8  -3  13   14.25    1.16
   8  -3 -13   16.84    1.07
   8   3 -13   16.42    1.08
   8   3 -13   15.70    1.01
  -8   3  13   15.01    1.61
   7  -3 -13    0.20    0.22
  -7  -3  13    0.62    0.34
   7   3 -13    0.12    0.25
  -7   3  13    0.30    0.42
  -6  -3  13   13.95    1.15
   6  -3 -13   15.67    1.03
   6   3 -13   15.84    1.07
  -6   3  13   15.73    1.51
  -5  -3  13    7.25    0.75
   5  -3 -13    6.90    0.62
   5   3 -13    6.90    0.67
  -5   3  13    6.22    1.06
   4  -3 -13   15.26    1.02
  -4  -3  13   15.96    1.16
   4   3 -13   16.91    1.10
  -4   3  13   13.97    1.45
  -3  -3  13   34.35    2.05
   3  -3 -13   35.43    1.92
  -3   3  13   32.15    2.37
   3   3 -13   36.23    1.99
  -2  -3  13   31.36    1.84
   2  -3 -13   29.83    1.70
  -2   3  13   29.92    1.60
   2   3 -13   31.20    1.78
  -2   3  13   28.40    2.12
   1  -3 -13    4.53    0.50
  -1  -3  13    3.22    0.52
  -1   3  13    4.79    0.43
  -1   3  13    3.25    0.72
   1   3 -13    4.63    0.59
   0  -3 -13    3.14    0.44
   0  -3  13    3.22    0.53
   0   3  13    3.94    0.43
   0   3 -13    3.06    0.49
   0   3  13    5.59    0.86
   1  -3  13    0.54    0.28
  -1  -3 -13    0.41    0.25
   1   3  13    0.02    0.19
  -1   3 -13    0.49    0.28
   1   3  13    0.27    0.38
  -2  -3 -13   20.37    1.30
  -2  -3 -13   20.06    1.48
   2  -3  13   22.10    1.40
   2   3  13   23.50    1.30
  -2   3 -13   20.27    1.40
   2   3  13   23.06    1.71
   3  -3  13   13.78    1.05
  -3  -3 -13   14.12    1.21
  -3   3 -13   16.80    1.16
   3   3  13   13.89    0.97
  -4  -3 -13   38.43    2.40
   4  -3  13   40.62    2.25
   4   3  13   37.57    2.15
  -4   3 -13   41.51    2.32
  -5  -3 -13    1.32    0.49
   5  -3  13    1.02    0.35
   5   3  13    1.24    0.32
  -5   3 -13    1.45    0.44
   6  -3  13    0.71    0.35
  -6  -3 -13    0.93    0.47
   6   3  13    0.85    0.33
 -11  -4  13   48.23    2.84
  11  -4 -13   51.98    2.73
  11   4 -13   50.69    2.65
 -11   4  13   48.12    3.49
 -10  -4  13    1.60    0.46
  10  -4 -13    0.98    0.34
 -10   4  13    1.85    0.81
  10   4 -13    1.21    0.33
  -9  -4  13   35.54    2.09
   9  -4 -13   34.73    1.93
   9   4 -13   31.99    1.81
  -9   4  13   29.66    2.54
   8  -4 -13    5.39    0.59
  -8  -4  13    4.32    0.67
   8   4 -13    4.71    0.49
  -8   4  13    4.45    1.05
   7  -4 -13   46.84    2.49
  -7  -4  13   46.42    2.64
   7   4 -13   44.39    2.49
  -7   4  13   47.23    3.22
   6  -4 -13    3.60    0.49
  -6  -4  13    3.28    0.59
  -6   4  13    2.08    0.75
   6   4 -13    2.87    0.48
   5  -4 -13   74.51    3.81
  -5  -4  13   76.12    3.99
   5   4 -13   75.85    3.86
  -5   4  13   72.92    4.46
   4  -4 -13   25.68    1.50
  -4  -4  13   26.19    1.64
  -4   4  13   22.52    1.95
   4   4 -13   24.25    1.53
  -3  -4  13  139.91    6.88
   3  -4 -13  133.72    6.69
   3   4 -13  146.94    6.78
  -3   4  13  127.25    7.25
   2  -4 -13    9.69    0.75
  -2  -4  13    7.67    0.82
   2   4 -13    9.88    0.82
  -2   4  13    7.52    1.13
   1  -4 -13   33.09    1.92
  -1  -4  13   38.69    2.13
  -1   4  13   34.66    1.83
   1   4 -13   35.74    2.03
  -1   4  13   31.60    2.36
   0  -4 -13    1.79    0.36
   0  -4  13    2.42    0.50
   0   4  13    1.82    0.32
   0   4  13    2.28    0.65
   0   4 -13    2.98    0.52
   1  -4  13   15.06    1.13
  -1  -4 -13   14.42    1.00
   1   4  13   14.19    0.95
   1   4  13   17.67    1.48
  -1   4 -13   15.19    1.15
  -2  -4 -13   16.43    1.39
   2  -4  13   18.22    1.31
   2   4  13   19.33    1.62
   2   4  13   20.37    1.19
  -2   4 -13   20.84    1.37
   3  -4  13   92.08    4.99
  -3  -4 -13   99.15    5.20
   3   4  13  100.67    4.89
  -3   4 -13  102.96    5.10
   4  -4  13    7.90    0.77
  -4  -4 -13    6.17    0.87
   4   4  13    7.87    0.71
  -4   4 -13    7.64    0.84
   5  -4  13   37.35    2.21
  -5  -4 -13   39.68    2.45
   5   4  13   40.75    2.17
  -5   4 -13   35.62    2.28
   6  -4  13    6.11    0.75
 -10  -5  13   99.40    4.87
  10  -5 -13   93.39    4.69
 -10   5  13   86.25    5.56
  10   5 -13   87.41    4.57
   9  -5 -13    1.47    0.40
  -9  -5  13    1.69    0.50
   9   5 -13    1.24    0.33
  -9   5  13    1.77    0.71
  -8  -5  13  173.45    8.82
   8  -5 -13  186.33    8.68
  -8   5  13  188.72    9.66
   8   5 -13  167.88    8.53
   7  -5 -13    7.97    0.73
  -7  -5  13    6.63    0.80
  -7   5  13    5.38    1.17
   7   5 -13    7.09    0.75
  -6  -5  13  205.11    9.68
   6  -5 -13  197.54    9.50
  -6   5  13  194.64   10.32
   6   5 -13  189.48    9.51
  -5  -5  13   77.41    4.03
   5  -5 -13   73.26    3.84
   5   5 -13   77.35    3.91
  -5   5  13   70.80    4.51
  -4  -5  13  160.24    7.41
   4  -5 -13  147.75    7.20
  -4   5  13  141.57    7.88
   4   5 -13  139.69    7.24
  -3  -5  13   13.63    1.12
   3  -5 -13   12.74    0.96
   3   5 -13   14.37    1.08
  -3   5  13   12.68    1.41
   2  -5 -13   78.72    4.08
  -2  -5  13   83.27    4.27
  -2   5  13   72.44    4.57
   2   5 -13   85.50    4.20
  -1  -5  13   11.75    1.07
   1  -5 -13   12.97    0.95
  -1   5  13   12.64    1.37
   1   5 -13   14.33    1.07
   0  -5  13  222.78    9.71
   0  -5 -13  171.62    9.43
   0   5  13  193.58   10.01
   0   5 -13  202.71    9.64
   1  -5  13   14.68    1.17
  -1  -5 -13   16.63    1.08
   1   5  13   15.05    1.00
  -1   5 -13   16.45    1.25
   1   5  13   15.03    1.47
   2  -5  13  139.07    6.95
  -2  -5 -13  135.59    7.07
  -2   5 -13  142.46    6.99
   2   5  13  139.85    6.76
  -3  -5 -13    8.85    1.01
   3  -5  13    8.58    0.88
   3   5  13   10.50    0.78
  -3   5 -13    8.57    0.94
  -4  -5 -13   91.28    4.95
   4  -5  13   93.56    4.77
   4   5  13   97.04    4.66
  -4   5 -13   87.58    4.83
  -5  -5 -13   18.86    1.72
   5  -5  13   21.59    1.45
   5   5  13   22.24    1.39
  -5   5 -13   20.13    1.53
   9  -6 -13   23.88    1.64
  -9  -6  13   28.06    1.79
   9   6 -13   22.48    1.45
  -9   6  13   24.90    2.37
  -8  -6  13   13.96    1.20
   8  -6 -13   11.36    0.99
   8   6 -13   11.38    0.88
  -8   6  13   12.66    1.82
  -7  -6  13   99.79    5.08
   7  -6 -13   94.24    4.90
  -7   6  13   95.05    5.76
   6  -6 -13    1.44    0.39
  -6  -6  13    1.11    0.49
   6   6 -13    1.85    0.47
  -6   6  13    2.00    0.79
  -5  -6  13   55.82    3.25
   5  -6 -13   56.67    3.08
   5   6 -13   62.35    3.18
  -5   6  13   54.75    3.75
   4  -6 -13    3.83    0.56
  -4  -6  13    4.08    0.67
  -4   6  13    3.15    0.88
   4   6 -13    4.67    0.67
  -3  -6  13   20.41    1.46
   3  -6 -13   17.41    1.24
  -3   6  13   17.71    1.72
   3   6 -13   19.33    1.37
  -2  -6  13   56.79    3.01
   2  -6 -13   50.20    2.77
   2   6 -13   50.74    2.90
  -2   6  13   48.28    3.32
  -1  -6  13   25.85    1.70
   1  -6 -13   23.62    1.52
   1   6 -13   27.07    1.68
  -1   6  13   21.88    1.91
   0  -6 -13    0.28    0.29
   0  -6  13    0.35    0.38
   0   6 -13    0.12    0.39
   0   6  13    0.71    0.50
   1  -6  13   46.94    2.82
   1   6  13   50.93    3.20
  -1   6 -13   52.54    2.90
  -2  -6 -13    0.37    0.39
   2  -6  13    0.30    0.34
   2   6  13    0.42    0.26
  -2   6 -13    0.25    0.38
   3  -6  13   73.34    3.98
  -3  -6 -13   68.19    4.12
  -3   6 -13   75.01    4.07
   3   6  13   81.70    3.85
  -7   7  13    0.78    0.68
   6  -7 -13   16.10    1.20
  -6  -7  13   14.49    1.32
  -6   7  13   14.53    1.76
   6   7 -13   15.71    1.25
   5  -7 -13   10.80    0.96
  -5  -7  13   10.91    1.12
  -5   7  13   10.68    1.62
   5   7 -13   11.90    1.06
  -4  -7  13    4.41    0.76
   4  -7 -13    3.71    0.60
  -4   7  13    3.11    0.91
   4   7 -13    3.49    0.64
   3  -7 -13   20.31    1.41
  -3  -7  13   21.50    1.60
   3   7 -13   21.96    1.54
  -3   7  13   21.86    1.94
  -2  -7  13   20.21    1.50
   2  -7 -13   17.90    1.29
  -2   7  13   18.18    1.78
   2   7 -13   19.17    1.43
   1  -7 -13    1.56    0.40
  -1  -7  13    2.12    0.57
  -1   7  13    1.44    0.65
   1   7 -13    2.01    0.56
   0  -7  13   12.92    1.14
   0   7  13   12.54    1.37
   0   7 -13   10.79    1.10
   1  -7  13    0.14    0.37
  -1   7 -13    0.00    0.39
   1   7  13    0.45    0.48
 -12   0  14   77.24    4.57
 -11   0  14   91.51    5.19
  10   0 -14   82.04    4.01
 -10   0  14   74.60    4.52
   9   0 -14  166.43    8.00
  -9   0  14  164.06    8.55
   8   0 -14  145.70    7.05
  -8   0  14  143.85    7.58
   7   0 -14   56.36    2.93
  -7   0  14   55.85    3.39
   6   0 -14  189.70    9.34
  -6   0  14  193.50    9.32
  -6   0  14  201.62    9.85
   5   0 -14   57.52    2.78
  -5   0  14   52.72    3.14
  -5   0  14   46.63    2.69
   4   0 -14   52.58    2.68
  -4   0  14   45.95    2.60
  -4   0  14   52.92    3.07
  -3   0  14  133.54    6.87
   3   0 -14  131.18    6.52
  -3   0  14  134.89    6.48
  -2   0  14  181.80    8.70
   2   0 -14  179.28    8.74
  -2   0  14  182.57    9.11
  -1   0  14  137.24    6.89
  -1   0  14  139.33    7.26
   1   0 -14  149.78    6.97
   0   0  14  106.78    5.93
   0   0 -14  121.59    5.69
   0   0  14  113.47    5.60
  -1   0 -14   33.38    1.98
   1   0  14   33.46    1.93
  -1   0 -14   39.24    2.11
  -2   0 -14  110.05    5.21
   2   0  14   98.69    5.15
  -2   0 -14  103.75    5.32
   3   0  14   41.92    2.36
  -3   0 -14   42.66    2.38
  -3   0 -14   45.96    2.54
   4   0  14  106.88    5.47
  -4   0 -14  114.27    5.67
   5   0  14  102.30    5.15
  -5   0 -14  103.10    5.35
   6   0  14   29.46    1.83
  -6   0 -14   32.33    2.08
 -12  -1  14   66.27    3.93
 -12   1  14   63.59    4.06
 -11  -1  14   26.25    1.94
 -11   1  14   21.12    1.96
 -10  -1  14    5.56    0.94
  10  -1 -14    6.63    0.64
 -10   1  14    5.47    1.02
   9  -1 -14   78.71    4.15
  -9  -1  14   84.17    4.64
   9   1 -14   88.40    4.21
  -9   1  14   79.55    4.76
   8  -1 -14   35.78    1.95
  -8  -1  14   34.03    2.33
  -8   1  14   35.68    2.51
   8   1 -14   34.50    1.97
  -7  -1  14   11.14    0.91
   7  -1 -14   12.02    0.87
  -7  -1  14   11.28    1.15
  -7   1  14   10.25    1.20
   7   1 -14   12.61    0.91
  -6  -1  14   27.52    1.84
   6  -1 -14   31.65    1.82
  -6  -1  14   38.55    2.27
   6   1 -14   32.83    1.87
  -6   1  14   37.47    2.40
   5  -1 -14   33.86    1.88
  -5  -1  14   32.81    1.92
  -5  -1  14   35.11    2.22
   5   1 -14   31.64    1.90
  -5   1  14   36.81    2.38
  -4  -1  14   18.57    1.24
   4  -1 -14   19.83    1.22
  -4  -1  14   19.04    1.48
  -4   1  14   18.01    1.55
   4   1 -14   18.95    1.24
  -4   1  14   20.02    1.15
  -3  -1  14   54.63    3.23
   3  -1 -14   62.54    2.98
  -3  -1  14   53.20    2.96
   3   1 -14   61.50    3.02
  -3   1  14   55.89    2.88
  -3   1  14   50.26    3.30
   2  -1 -14   23.96    1.47
  -2  -1  14   24.80    1.50
  -2  -1  14   25.92    1.75
  -2   1  14   25.32    1.42
   2   1 -14   25.30    1.52
  -2   1  14   23.50    1.81
  -1  -1  14   18.68    1.42
  -1  -1  14   17.67    1.21
   1  -1 -14   21.07    1.25
   1   1 -14   19.72    1.25
  -1   1  14   18.75    1.52
  -1   1  14   18.09    1.14
   0  -1  14   27.58    1.59
   0  -1 -14   27.33    1.58
   0  -1  14   24.16    1.77
   0   1 -14   27.41    1.60
   0   1  14   24.44    1.84
   0   1  14   26.34    1.50
   1  -1  14   87.08    4.38
  -1  -1 -14   85.86    4.39
   1   1  14   85.37    4.74
  -1   1 -14   84.55    4.39
   1   1  14   88.44    4.33
  -1   1 -14   89.48    4.46
  -2  -1 -14   45.85    2.58
  -2  -1 -14   51.26    2.77
   2  -1  14   48.07    2.59
   2   1  14   46.68    2.53
  -2   1 -14   48.97    2.67
  -2   1 -14   47.78    2.61
   3  -1  14   49.09    2.69
  -3  -1 -14   50.87    2.77
  -3  -1 -14   50.61    2.86
   3   1  14   52.52    2.67
  -3   1 -14   45.66    2.68
  -3   1 -14   51.37    2.80
   4  -1  14    0.50    0.30
  -4  -1 -14    0.53    0.39
  -4   1 -14    1.41    0.44
  -4   1 -14    0.51    0.42
   4   1  14    0.39    0.28
   5  -1  14   16.95    1.25
  -5  -1 -14   18.62    1.46
   5   1  14   20.25    1.28
  -5   1 -14   20.04    1.43
  -6  -1 -14    8.61    1.01
   6  -1  14    9.15    0.84
  -6   1 -14    9.28    1.00
   6   1  14    9.30    0.81
 -12   2  14    7.57    1.35
  11  -2 -14    8.28    0.91
 -11   2  14    7.80    1.32
  10  -2 -14   47.21    2.52
 -10   2  14   46.74    3.21
   9  -2 -14   11.45    0.86
   9   2 -14   11.71    0.90
  -9   2  14    8.76    1.31
   8  -2 -14    4.82    0.56
  -8  -2  14    5.53    0.70
   8   2 -14    6.35    0.65
  -8   2  14    4.42    0.94
   7  -2 -14    8.44    0.72
  -7  -2  14    9.15    0.82
  -7   2  14   10.12    1.20
   7   2 -14    8.26    0.76
  -6  -2  14    0.60    0.31
   6  -2 -14    0.62    0.27
  -6   2  14    0.70    0.47
   6   2 -14    0.31    0.28
  -5  -2  14    0.86    0.36
  -5  -2  14    1.68    0.75
   5  -2 -14    1.28    0.32
  -5   2  14    2.62    0.67
   5   2 -14    1.16    0.35
  -4  -2  14   40.49    2.30
  -4  -2  14   38.53    2.54
   4  -2 -14   40.74    2.19
  -4   2  14   38.74    2.67
   4   2 -14   43.18    2.27
  -3  -2  14   34.87    2.20
   3  -2 -14   34.33    1.95
  -3  -2  14   34.00    2.04
  -3   2  14   35.70    2.42
  -3   2  14   34.11    1.86
   3   2 -14   39.04    2.04
  -2  -2  14    1.24    0.37
   2  -2 -14    0.90    0.29
  -2  -2  14    1.98    0.46
  -2   2  14    1.57    0.51
   2   2 -14    0.84    0.31
  -2   2  14    1.18    0.27
  -1  -2  14    1.56    0.44
  -1  -2  14    2.89    0.48
   1  -2 -14    1.10    0.32
  -1   2  14    1.36    0.29
   1   2 -14    1.15    0.35
  -1   2  14    1.67    0.55
   0  -2  14    8.64    0.81
   0  -2 -14    9.82    0.78
   0   2 -14   10.54    0.85
   0   2 -14   12.42    0.96
   0   2  14    8.69    1.05
   0   2  14    9.57    0.72
   1  -2  14   11.81    0.94
  -1  -2 -14   12.25    0.92
  -1   2 -14   12.16    0.96
   1   2  14   10.54    1.17
   1   2  14   12.17    0.85
  -1   2 -14   14.15    1.06
   2  -2  14   54.38    3.04
  -2  -2 -14   56.55    3.19
  -2  -2 -14   58.53    3.03
  -2   2 -14   57.40    3.15
   2   2  14   55.94    2.97
  -2   2 -14   61.75    3.10
  -3  -2 -14   19.49    1.43
   3  -2  14   17.79    1.26
  -3   2 -14   20.49    1.35
   3   2  14   19.83    1.24
  -3   2 -14   20.00    1.45
  -4  -2 -14    2.30    0.56
   4  -2  14    2.55    0.48
  -4   2 -14    2.92    0.56
   4   2  14    1.59    0.37
  -4   2 -14    3.05    0.80
   5  -2  14    1.45    0.40
  -5  -2 -14    0.66    0.42
   5   2  14    1.11    0.35
  -6  -2 -14    0.14    0.43
   6  -2  14    0.40    0.30
   6   2  14    0.54    0.35
  11  -3 -14   40.98    2.23
 -11   3  14   37.51    2.95
  10  -3 -14  104.58    5.20
 -10   3  14  103.80    6.03
  -9  -3  14   64.23    3.45
   9  -3 -14   61.73    3.28
  -9   3  14   64.83    4.10
  -8  -3  14   33.27    2.16
   8  -3 -14   36.17    2.04
   8   3 -14   40.68    2.10
  -8   3  14   34.36    2.69
   7  -3 -14  222.98   11.23
  -7  -3  14  233.02   11.40
  -7   3  14  228.55   12.01
   7   3 -14  255.62   11.31
   6  -3 -14   80.58    4.02
  -6  -3  14   79.70    4.16
  -6   3  14   83.86    4.76
   6   3 -14   74.47    4.03
   5  -3 -14   51.68    2.70
  -5  -3  14   49.14    2.83
  -5   3  14   46.62    3.23
   5   3 -14   54.02    2.76
   4  -3 -14   65.65    3.29
  -4  -3  14   62.52    3.43
   4   3 -14   62.13    3.32
  -4   3  14   64.11    3.90
  -3  -3  14   29.45    1.85
   3  -3 -14   30.30    1.73
   3   3 -14   32.33    1.81
  -3   3  14   27.07    2.16
  -2  -3  14   40.91    2.34
   2  -3 -14   42.79    2.21
   2   3 -14   39.12    2.26
  -2   3  14   39.77    2.67
  -2   3  14   39.10    2.09
  -1  -3  14  232.50   11.59
   1  -3 -14  242.37   11.47
   1   3 -14  254.96   11.56
  -1   3  14  229.84   12.00
  -1   3  14  240.69   11.38
   0  -3  14  100.17    5.21
   0  -3 -14  102.56    5.11
   0   3 -14  108.93    5.21
   0   3  14   98.38    5.57
   0   3  14  104.04    5.04
   1  -3  14   88.78    4.76
  -1  -3 -14   95.52    4.68
  -1   3 -14  100.11    4.78
   1   3  14   95.34    4.62
   1   3  14   85.75    5.09
  -2  -3 -14   24.90    1.85
   2  -3  14   25.78    1.64
  -2  -3 -14   27.46    1.79
   2   3  14   27.09    1.54
  -2   3 -14   26.46    1.67
  -3  -3 -14   66.46    3.75
   3  -3  14   63.32    3.55
   3   3  14   63.25    3.45
  -3   3 -14   78.99    3.68
   4  -3  14   18.05    1.34
  -4  -3 -14   20.99    1.56
  -4   3 -14   20.23    1.42
   4   3  14   20.81    1.30
  -5  -3 -14   95.62    5.03
   5  -3  14   90.60    4.79
   5   3  14   95.10    4.73
  11  -4 -14   55.17    2.97
  10  -4 -14   63.40    3.45
 -10  -4  14   74.90    3.70
 -10   4  14   58.27    4.23
   9  -4 -14   13.68    1.04
  -9  -4  14   15.48    1.23
  -9   4  14   12.80    1.76
   8  -4 -14   64.31    3.37
  -8  -4  14   68.69    3.55
   8   4 -14   61.09    3.37
  -8   4  14   63.54    4.18
  -7  -4  14   34.02    2.16
   7  -4 -14   34.29    2.01
   7   4 -14   39.23    2.08
  -7   4  14   33.08    2.66
   6  -4 -14   64.24    3.24
  -6  -4  14   62.21    3.39
  -6   4  14   58.60    3.92
   6   4 -14   60.11    3.24
  -5  -4  14   40.14    2.28
   5  -4 -14   36.51    2.09
  -5   4  14   35.04    2.70
   5   4 -14   37.32    2.13
  -4  -4  14   70.79    3.86
   4  -4 -14   77.60    3.71
   4   4 -14   62.84    3.69
  -4   4  14   78.00    4.44
  -3  -4  14   64.35    3.39
   3  -4 -14   64.45    3.22
   3   4 -14   57.70    3.25
  -3   4  14   59.32    3.78
   2  -4 -14   35.21    2.01
  -2  -4  14   38.23    2.19
   2   4 -14   37.58    2.10
  -2   4  14   31.22    2.46
  -1  -4  14   53.35    3.00
   1  -4 -14   56.54    2.87
  -1   4  14   47.52    3.32
   1   4 -14   57.13    2.96
   0  -4  14   76.55    4.23
   0  -4 -14   85.12    4.12
   0   4  14   74.58    4.57
   0   4 -14   90.79    4.26
   0   4  14   77.20    4.01
  -1  -4 -14   59.06    3.16
   1  -4  14   58.22    3.28
  -1   4 -14   66.24    3.34
   1   4  14   60.64    3.66
   1   4  14   59.75    3.10
  -2  -4 -14   92.64    5.24
   2  -4  14   95.13    5.12
  -2   4 -14  108.46    5.19
   2   4  14  104.83    4.98
  -3  -4 -14    5.40    0.83
   3  -4  14    5.96    0.76
  -3   4 -14    6.38    0.81
   3   4  14    5.89    0.63
   4  -4  14   33.66    2.12
  -4  -4 -14   36.03    2.33
  -4   4 -14   38.00    2.24
   4   4  14   36.45    2.04
   5  -4  14    1.33    0.44
  -5   4 -14    1.14    0.47
   5   4  14    1.13    0.42
  10  -5 -14    9.74    0.90
   9  -5 -14    1.99    0.45
  -9  -5  14    1.96    0.57
  -9   5  14    1.69    0.83
  -8  -5  14    1.81    0.54
   8  -5 -14    1.23    0.38
  -8   5  14    1.05    0.66
   7  -5 -14    0.18    0.27
  -7  -5  14   -0.12    0.38
   7   5 -14    0.09    0.30
  -7   5  14    0.00    0.49
   6  -5 -14    2.66    0.47
  -6  -5  14    3.29    0.62
  -6   5  14    2.28    0.78
   6   5 -14    3.96    0.58
  -5  -5  14    0.14    0.38
   5  -5 -14    0.33    0.26
  -5   5  14   -0.10    0.48
   5   5 -14    0.21    0.32
  -4  -5  14    0.17    0.36
   4  -5 -14    0.23    0.28
   4   5 -14    0.58    0.36
  -4   5  14    0.37    0.47
  -3  -5  14    0.24    0.38
   3  -5 -14    0.26    0.28
   3   5 -14    0.24    0.33
  -3   5  14    0.49    0.45
  -2  -5  14    2.51    0.59
   2  -5 -14    2.01    0.43
  -2   5  14    1.94    0.71
   2   5 -14    2.60    0.56
   1  -5 -14    0.22    0.27
  -1  -5  14    0.21    0.34
   1   5 -14    0.19    0.31
  -1   5  14    0.62    0.50
   0  -5 -14    0.11    0.26
   0  -5  14   -0.11    0.33
   0   5  14    0.41    0.46
   0   5 -14    0.32    0.36
   1  -5  14    0.68    0.39
   1   5  14    1.16    0.54
   1   5  14    1.63    0.35
  -1   5 -14    0.96    0.45
  -2  -5 -14    1.61    0.53
   2  -5  14    1.43    0.45
   2   5  14    1.77    0.38
  -2   5 -14    1.54    0.49
  -3  -5 -14    1.38    0.55
   3  -5  14    0.10    0.35
   3   5  14    1.01    0.33
  -3   5 -14    0.60    0.44
  -4  -5 -14    6.90    1.44
   4  -5  14    7.94    0.86
  -4   5 -14    7.57    0.94
   4   5  14    8.77    0.78
   8  -6 -14   38.34    2.43
  -8  -6  14   43.86    2.53
  -8   6  14   37.04    3.06
  -7  -6  14   24.22    1.74
   7  -6 -14   24.78    1.60
  -7   6  14   24.51    2.31
  -6  -6  14   79.44    4.27
   6  -6 -14   75.63    4.08
   6   6 -14   81.97    4.15
  -6   6  14   76.91    4.92
  -5  -6  14   27.60    1.86
   5  -6 -14   25.77    1.66
  -5   6  14   25.14    2.30
   5   6 -14   27.91    1.75
  -4  -6  14   39.08    2.30
   4  -6 -14   34.76    2.07
  -4   6  14   30.90    2.61
   4   6 -14   36.28    2.16
  -3  -6  14   28.26    1.91
   3  -6 -14   25.70    1.69
   3   6 -14   29.43    1.83
  -3   6  14   29.12    2.32
   2  -6 -14   53.01    3.03
  -2  -6  14   61.23    3.27
  -2   6  14   57.01    3.67
   2   6 -14   56.96    3.18
  -1  -6  14   43.21    2.53
   1  -6 -14   41.45    2.33
  -1   6  14   39.39    2.85
   1   6 -14   41.30    2.47
   0  -6 -14   63.10    3.42
   0  -6  14   65.91    3.62
   0   6  14   66.38    3.99
   0   6 -14   66.70    3.60
   1  -6  14   26.86    1.90
  -1   6 -14   30.38    1.98
   1   6  14   33.52    2.35
  -2  -6 -14   55.13    3.56
   2  -6  14   66.87    3.52
  -2   6 -14   67.57    3.58
   5  -7 -14   64.06    3.67
   5   7 -14   71.73    3.72
  -5   7  14   67.45    4.38
  -4  -7  14   49.89    2.78
   4  -7 -14   41.33    2.50
   4   7 -14   42.96    2.61
  -4   7  14   43.96    3.17
  -3  -7  14   58.99    3.19
   3  -7 -14   50.37    2.92
   3   7 -14   54.36    3.06
  -3   7  14   50.15    3.55
  -2  -7  14  102.84    5.13
   2  -7 -14   90.78    4.89
  -2   7  14   94.24    5.55
   2   7 -14   97.56    5.05
  -1  -7  14   51.60    2.97
   1  -7 -14   50.71    2.80
  -1   7  14   49.28    3.33
   1   7 -14   51.08    3.51
 -12   0  15   -0.04    0.47
 -11   0  15    0.24    0.43
  10   0 -15    0.20    0.28
 -10   0  15   -0.41    0.35
   9   0 -15    0.08    0.25
  -9   0  15   -0.07    0.39
   8   0 -15   -0.10    0.24
  -8   0  15   -0.06    0.38
   7   0 -15    0.30    0.27
  -7   0  15    0.09    0.39
  -6   0  15   -0.33    0.32
   6   0 -15    0.26    0.26
  -5   0  15    0.36    0.24
   5   0 -15    0.21    0.27
  -5   0  15    0.54    0.44
   4   0 -15    0.51    0.31
  -4   0  15    0.11    0.21
  -4   0  15    0.41    0.42
   3   0 -15    0.06    0.25
  -3   0  15   -0.11    0.32
  -3   0  15    0.02    0.21
  -2   0  15    0.02    0.35
  -2   0  15    0.24    0.23
   2   0 -15    0.01    0.24
  -1   0  15    0.58    0.39
   1   0 -15    0.11    0.26
  -1   0  15    0.16    0.23
   0   0  15    0.34    0.24
   0   0  15    0.08    0.32
   0   0 -15    0.34    0.28
  -1   0 -15    0.22    0.27
   1   0  15   -0.07    0.22
  -1   0 -15   -0.08    0.26
  -2   0 -15    0.00    0.25
  -2   0 -15    0.00    0.28
   2   0  15    0.32    0.24
  -3   0 -15   -0.05    0.30
   3   0  15   -0.21    0.21
  -3   0 -15   -0.05    0.26
   4   0  15    0.46    0.30
  -4   0 -15   -0.08    0.31
  -5   0 -15   -0.12    0.34
   5   0  15    0.13    0.28
 -12  -1  15    5.56    1.02
 -12   1  15    4.69    1.08
 -11  -1  15   88.34    4.98
 -11   1  15   86.29    5.13
  10  -1 -15    0.26    0.27
 -10  -1  15    0.26    0.44
 -10   1  15    0.24    0.49
   9  -1 -15   83.49    4.43
  -9  -1  15   86.07    4.92
  -9   1  15   86.02    5.09
   9   1 -15   95.69    4.50
  -8  -1  15    0.59    0.44
   8  -1 -15    0.79    0.31
  -8   1  15    1.05    0.55
   8   1 -15    1.08    0.36
  -7  -1  15   86.94    4.92
   7  -1 -15   85.54    4.49
  -7  -1  15   83.53    4.53
  -7   1  15   92.23    5.12
   7   1 -15   99.98    4.58
   6  -1 -15    1.75    0.39
  -6  -1  15    2.07    0.57
  -6  -1  15    1.79    0.39
   6   1 -15    1.63    0.40
  -6   1  15    1.56    0.59
  -5  -1  15  117.14    6.16
   5  -1 -15  121.39    5.80
  -5  -1  15  107.91    5.79
  -5   1  15  117.39    6.33
   5   1 -15  121.68    5.84
  -4  -1  15    2.47    0.44
   4  -1 -15    2.39    0.42
  -4  -1  15    2.86    0.64
   4   1 -15    1.99    0.41
  -4   1  15    2.35    0.37
  -4   1  15    3.31    0.77
  -3  -1  15  150.46    7.08
   3  -1 -15  128.50    7.00
  -3  -1  15  157.57    7.43
  -3   1  15  146.12    6.97
   3   1 -15  142.66    7.08
  -3   1  15  141.98    7.50
  -2  -1  15    1.09    0.44
  -2  -1  15    1.55    0.38
   2  -1 -15    1.04    0.32
   2   1 -15    1.67    0.41
  -2   1  15    1.09    0.28
  -2   1  15    0.57    0.47
  -1  -1  15  197.74    9.94
  -1  -1  15  200.64   10.21
   1  -1 -15  225.57    9.99
  -1   1  15  191.42   10.32
   1   1 -15  218.06   10.00
  -1   1  15  204.22    9.87
   0  -1 -15    0.45    0.30
   0  -1  15    0.95    0.41
   0  -1  15    0.62    0.31
   0   1  15    0.74    0.27
   0   1 -15    0.86    0.32
   0   1  15    0.57    0.42
  -1  -1 -15  112.36    5.34
   1  -1  15  103.07    5.30
  -1  -1 -15  113.24    5.47
  -1   1 -15   97.60    5.29
   1   1  15   92.87    5.61
   1   1  15  104.89    5.25
  -1   1 -15  118.19    5.42
   2  -1  15    7.80    0.74
  -2  -1 -15    7.37    0.85
  -2  -1 -15    7.61    0.76
   2   1  15    7.56    0.70
  -2   1 -15    8.41    0.81
  -2   1 -15    7.55    0.77
  -3  -1 -15   33.93    2.17
   3  -1  15   32.10    2.00
  -3   1 -15   36.54    2.12
   3   1  15   35.37    1.98
  -3   1 -15   36.01    2.05
  -4  -1 -15    1.98    0.53
   4  -1  15    2.31    0.47
  -4   1 -15    1.47    0.46
   4   1  15    1.97    0.44
   5  -1  15   54.10    2.95
  -5  -1 -15   53.00    3.15
  -5   1 -15   57.07    3.11
   5   1  15   52.14    2.91
  11  -2 -15    2.11    0.43
 -11   2  15    1.88    0.84
  10  -2 -15  188.98    8.86
 -10   2  15  175.46    9.65
   9  -2 -15    0.23    0.27
  -9   2  15    0.52    0.48
   9   2 -15    1.14    0.37
  -8  -2  15  108.64    5.85
   8  -2 -15  127.06    5.79
   8   2 -15  114.49    5.80
  -8   2  15  115.81    6.50
  -7  -2  15    3.06    0.56
   7  -2 -15    3.28    0.50
   7   2 -15    4.51    0.61
  -7   2  15    3.28    0.84
  -6  -2  15   73.51    4.10
   6  -2 -15   82.80    4.03
   6   2 -15   79.52    4.07
  -6   2  15   80.56    4.68
   5  -2 -15    2.91    0.46
  -5  -2  15    2.20    0.48
  -5   2  15    2.29    0.73
   5   2 -15    2.67    0.46
  -4  -2  15  162.52    7.93
   4  -2 -15  163.36    7.82
   4   2 -15  150.75    7.84
  -4   2  15  169.25    8.46
   3  -2 -15    9.73    0.77
  -3  -2  15    7.31    0.76
  -3   2  15    8.77    1.19
   3   2 -15    7.82    0.78
  -3   2  15    9.05    0.66
   2  -2 -15  228.93   10.60
  -2  -2  15  206.68   10.64
  -2   2  15  214.11   10.48
   2   2 -15  231.90   10.64
  -2   2  15  221.69   11.15
   1  -2 -15    0.59    0.30
  -1  -2  15    0.06    0.26
  -1   2  15    0.29    0.21
   1   2 -15    0.75    0.35
  -1   2  15    0.21    0.39
   0  -2 -15   86.09    4.41
   0  -2  15   87.53    4.47
   0   2 -15   80.82    4.43
   0   2  15   92.06    4.35
   0   2  15   88.76    4.86
  -1  -2 -15   16.55    1.10
   1  -2  15   14.41    1.10
  -1   2 -15   15.67    1.14
   1   2  15   15.77    1.04
   1   2  15   13.58    1.37
   2  -2  15  119.62    6.10
  -2  -2 -15  127.82    6.29
  -2  -2 -15  112.91    6.04
   2   2  15  121.89    6.01
  -2   2 -15  130.12    6.13
  -3  -2 -15    0.42    0.39
   3  -2  15    0.83    0.35
  -3   2 -15    0.51    0.37
   3   2  15    0.97    0.32
   4  -2  15  101.10    5.27
  -4  -2 -15  103.29    5.47
   4   2  15  100.01    5.20
  -4   2 -15  112.47    5.35
   5  -2  15    2.74    0.54
  -5  -2 -15    2.63    0.63
   5   2  15    3.49    0.53
  11  -3 -15   21.49    1.42
 -11   3  15   26.20    3.60
  10  -3 -15    2.22    0.46
 -10   3  15    2.11    0.88
   9  -3 -15    8.84    0.79
  -9  -3  15    8.47    0.95
  -9   3  15    9.50    1.52
  -8  -3  15    4.69    0.70
   8  -3 -15    4.04    0.56
  -8   3  15    2.70    0.84
   8   3 -15    4.13    0.59
   7  -3 -15    2.67    0.45
  -7  -3  15    3.00    0.58
   7   3 -15    3.10    0.52
  -7   3  15    2.94    0.89
  -6  -3  15   -0.08    0.30
   6  -3 -15    0.10    0.26
  -6   3  15    0.31    0.48
   6   3 -15   -0.10    0.27
  -5  -3  15   34.48    2.21
   5  -3 -15   39.25    2.11
  -5   3  15   37.30    2.72
   5   3 -15   37.82    2.14
  -4  -3  15    0.58    0.33
   4  -3 -15    1.15    0.34
   4   3 -15    1.01    0.35
  -4   3  15    0.57    0.52
   3  -3 -15    7.03    0.68
  -3  -3  15    5.91    0.79
  -3   3  15    7.44    1.14
   3   3 -15    7.98    0.74
  -2  -3  15    7.13    0.78
   2  -3 -15    6.29    0.66
  -2   3  15    7.32    1.18
   2   3 -15    6.55    0.73
   1  -3 -15    3.73    0.55
  -1  -3  15    3.29    0.57
   1   3 -15    4.41    0.63
  -1   3  15    3.79    0.86
  -1   3  15    4.74    0.50
   0  -3 -15    0.15    0.24
   0  -3  15    0.11    0.30
   0   3 -15    1.01    0.40
   0   3  15    0.29    0.22
   0   3  15   -0.20    0.33
   1  -3  15   13.83    1.12
  -1  -3 -15   16.04    1.10
  -1   3 -15   17.14    1.20
   1   3  15   14.58    1.45
   1   3  15   14.24    1.01
   2  -3  15    9.92    0.93
  -2  -3 -15   10.40    1.06
   2   3  15   10.58    0.82
  -2   3 -15   10.69    0.97
  -3  -3 -15    6.44    0.90
   3  -3  15    5.67    0.75
   3   3  15    5.67    0.63
  -3   3 -15    7.79    0.85
  -4  -3 -15    0.63    0.45
   4  -3  15    0.75    0.37
  -4   3 -15    1.07    0.44
   4   3  15    0.93    0.33
 -10  -4  15   88.99    4.40
  10  -4 -15   76.24    4.17
 -10   4  15   77.74    5.45
   9  -4 -15    9.54    0.86
  -9  -4  15   10.75    1.04
  -9   4  15    8.12    1.50
  -8  -4  15   10.86    1.06
   8  -4 -15   10.11    0.88
  -8   4  15    9.25    1.53
   8   4 -15   11.75    0.95
   7  -4 -15    1.19    0.37
  -7  -4  15    0.55    0.39
  -7   4  15    0.71    0.60
   7   4 -15    0.76    0.36
   6  -4 -15   69.91    3.53
  -6  -4  15   63.20    3.66
   6   4 -15   70.74    3.57
  -6   4  15   64.26    4.24
  -5  -4  15    2.39    0.55
   5  -4 -15    2.59    0.47
   5   4 -15    2.56    0.51
  -5   4  15    1.96    0.71
  -4  -4  15  106.42    5.20
   4  -4 -15  105.07    5.01
  -4   4  15  101.30    5.73
   4   4 -15   86.34    5.00
  -3  -4  15    5.67    0.79
   3  -4 -15    6.00    0.65
  -3   4  15    6.36    1.15
   3   4 -15    5.41    0.69
   2  -4 -15   22.41    1.40
  -2  -4  15   19.02    1.50
  -2   4  15   21.35    1.91
   2   4 -15   24.32    1.50
  -1  -4  15    0.28    0.35
   1  -4 -15    0.07    0.26
  -1   4  15    0.18    0.46
   1   4 -15    0.28    0.34
   0  -4  15   44.33    2.68
   0  -4 -15   47.87    2.57
   0   4  15   46.84    2.47
   0   4 -15   52.49    2.71
   0   4  15   42.65    2.99
  -1  -4 -15    0.92    0.33
   1  -4  15    1.06    0.43
   1   4  15   -0.04    0.43
   1   4  15    0.84    0.30
  -1   4 -15    1.52    0.48
   2  -4  15   49.71    2.88
  -2  -4 -15   51.90    3.04
   2   4  15   46.31    2.69
  -2   4 -15   58.28    2.95
   3  -4  15    1.45    0.46
  -3  -4 -15    1.09    0.49
   3   4  15    1.79    0.40
  -3   4 -15    1.87    0.53
   4  -4  15   24.73    1.70
   4   4  15   25.66    1.62
  -4   4 -15   27.46    1.78
  -9  -5  15  133.91    6.47
   9  -5 -15  117.58    6.31
  -8  -5  15    1.37    0.52
   8  -5 -15    0.68    0.35
  -8   5  15    0.22    0.66
   7  -5 -15  127.24    6.21
  -7  -5  15  116.82    6.35
  -7   5  15  123.60    7.13
   7   5 -15  128.82    6.23
  -6  -5  15    7.71    0.88
   6  -5 -15    6.86    0.75
  -6   5  15    6.78    1.33
   6   5 -15    7.92    0.81
   5  -5 -15  107.83    5.46
  -5  -5  15  108.14    5.65
   5   5 -15  119.76    5.55
  -5   5  15   96.04    6.18
   4  -5 -15    3.90    0.59
  -4  -5  15    4.59    0.75
  -4   5  15    3.55    0.92
   4   5 -15    5.41    0.73
   3  -5 -15  170.68    8.38
  -3  -5  15  159.14    8.53
   3   5 -15  182.44    8.49
  -3   5  15  176.31    9.15
   2  -5 -15    1.60    0.41
  -2  -5  15    2.32    0.59
   2   5 -15    1.29    0.46
  -2   5  15    1.11    0.66
   1  -5 -15  131.64    6.53
  -1  -5  15  124.02    6.68
   1   5 -15  145.94    6.70
  -1   5  15  126.30    7.14
   0  -5 -15   10.41    0.89
   0  -5  15    9.56    0.98
   0   5  15   10.48    1.41
   0   5 -15   11.90    1.06
   1  -5  15   79.17    4.30
  -1   5 -15   84.70    4.33
   1   5  15   77.68    4.69
  -2  -5 -15    0.83    0.50
   2  -5  15    0.48    0.42
  -2   5 -15    1.52    0.52
   2   5  15    0.98    0.33
  -7  -6  15    0.31    0.69
  -7   6  15   -0.05    0.53
   7   6 -15    0.40    0.46
   6  -6 -15   69.65    3.89
  -6  -6  15   74.01    4.08
   6   6 -15   80.26    3.99
  -6   6  15   73.87    4.81
   5  -6 -15    2.47    0.50
  -5  -6  15    3.97    0.73
  -5   6  15    3.40    1.03
   5   6 -15    2.85    0.58
   4  -6 -15   35.50    2.10
  -4  -6  15   37.80    2.33
  -4   6  15   30.81    2.66
   4   6 -15   36.27    2.19
  -3  -6  15    0.14    0.43
   3  -6 -15    0.42    0.32
  -3   6  15    0.18    0.56
   3   6 -15    0.18    0.37
  -2  -6  15   16.14    1.35
   2  -6 -15   14.13    1.14
  -2   6  15   18.11    1.77
   2   6 -15   15.73    1.28
   1  -6 -15    4.64    0.64
  -1  -6  15    4.12    0.74
   1   6 -15    4.61    0.74
  -1   6  15    3.02    0.87
   0  -6  15  108.86    5.61
   0   6 -15  114.96    5.61
   0   6  15   97.60    5.95
   1  -6  15    5.31    0.88
   1   6  15    7.77    1.86
 -11   0  16   24.93    2.11
  10   0 -16   90.14    4.58
 -10   0  16   89.29    5.19
  -9   0  16   42.33    2.94
   9   0 -16   44.08    2.43
   8   0 -16   83.77    4.19
  -8   0  16   78.03    4.68
  -7   0  16    4.46    0.90
   7   0 -16    6.37    0.68
   6   0 -16   48.92    2.67
  -6   0  16   48.45    3.09
   5   0 -16  126.03    6.00
  -5   0  16  113.06    5.90
  -5   0  16  121.40    6.44
  -4   0  16  279.59   13.88
  -4   0  16  265.33   13.39
   4   0 -16  300.35   13.49
  -3   0  16  100.19    5.21
   3   0 -16  110.16    5.30
  -3   0  16  104.48    5.67
  -2   0  16  140.61    6.93
  -2   0  16  129.01    6.45
   2   0 -16  126.42    6.50
   1   0 -16   26.32    1.65
  -1   0  16   26.35    1.92
  -1   0  16   26.58    1.59
   0   0  16   14.68    1.04
   0   0  16   12.82    1.28
   0   0 -16   14.41    1.08
  -1   0 -16   33.32    1.95
  -1   0 -16   32.85    2.02
   1   0  16   31.41    1.89
  -2   0 -16  137.70    6.61
  -2   0 -16  119.86    6.43
   2   0  16  133.53    6.45
  -3   0 -16   35.59    2.20
   3   0  16   34.92    2.05
   4   0  16   87.93    4.72
  -4   0 -16   98.18    4.94
 -11  -1  16   19.59    2.84
 -11   1  16   15.83    1.73
 -10  -1  16    0.15    0.45
  10  -1 -16    0.43    0.32
 -10   1  16    0.53    0.53
   9  -1 -16   26.26    1.61
  -9  -1  16   26.00    2.03
   9   1 -16   28.47    1.66
  -9   1  16   21.88    2.07
   8  -1 -16   10.92    0.92
  -8  -1  16   10.25    1.35
   8   1 -16   13.02    0.99
  -8   1  16   11.92    1.39
   7  -1 -16  117.99    5.62
  -7  -1  16  110.91    6.04
   7   1 -16  110.83    5.64
  -7   1  16  108.84    6.21
  -6  -1  16   15.22    1.15
   6  -1 -16   18.59    1.18
  -6  -1  16   15.98    1.46
   6   1 -16   15.81    1.17
  -6   1  16   15.75    1.56
   5  -1 -16   32.97    1.96
  -5  -1  16   36.12    2.34
  -5  -1  16   31.34    1.97
   5   1 -16   36.98    2.03
  -5   1  16   32.77    2.42
   4  -1 -16   15.48    1.08
  -4  -1  16   11.60    1.02
  -4  -1  16   16.42    1.36
  -4   1  16   15.13    1.45
  -4   1  16   14.31    0.97
   4   1 -16   15.13    1.11
   3  -1 -16    4.03    0.58
  -3  -1  16    2.71    0.48
  -3  -1  16    2.95    0.67
  -3   1  16    3.48    0.77
   3   1 -16    4.01    0.60
  -3   1  16    2.61    0.42
   2  -1 -16   20.33    1.51
  -2  -1  16   24.66    1.56
  -2  -1  16   25.25    1.80
   2   1 -16   26.63    1.59
  -2   1  16   26.97    1.49
  -2   1  16   23.83    1.90
  -1  -1  16   64.29    3.66
  -1  -1  16   66.33    3.40
   1  -1 -16   53.10    3.32
  -1   1  16   63.28    3.76
   1   1 -16   73.07    3.45
  -1   1  16   64.78    3.31
   0  -1 -16    4.88    0.65
   0  -1  16    4.01    0.58
   0   1  16    3.27    0.72
   0   1 -16    5.12    0.66
   0   1 -16    4.35    0.62
   0   1  16    3.90    0.54
  -1  -1 -16    9.16    0.90
  -1  -1 -16   12.74    1.07
   1  -1  16   11.08    0.91
  -1   1 -16   10.18    0.94
  -1   1 -16   12.67    1.01
   1   1  16   10.22    0.85
  -2  -1 -16   24.76    1.67
   2  -1  16   22.73    1.51
  -2  -1 -16   23.49    1.52
  -2   1 -16   22.51    1.57
   2   1  16   23.96    1.48
  -2   1 -16   24.23    1.56
  -3  -1 -16   20.95    1.54
   3  -1  16   19.29    1.34
  -3   1 -16   22.56    1.49
   3   1  16   19.13    1.32
  -3   1 -16   19.15    1.37
  -4  -1 -16   14.04    1.25
   4  -1  16   12.66    1.07
   4   1  16   13.45    1.06
  -4   1 -16   14.59    1.19
  11  -2 -16    2.14    0.45
 -11   2  16    2.02    0.88
  10  -2 -16    9.55    0.83
 -10   2  16    7.63    1.32
   9  -2 -16    2.63    0.49
   9   2 -16    3.76    0.57
  -9   2  16    3.00    0.86
   8  -2 -16    2.92    0.50
  -8  -2  16    3.80    0.85
  -8   2  16    2.73    0.82
   8   2 -16    2.71    0.50
   7  -2 -16   29.07    1.65
  -7  -2  16   24.53    1.70
  -7   2  16   23.79    2.15
   7   2 -16   27.92    1.68
   6  -2 -16   18.54    1.25
  -6  -2  16   18.92    1.34
   6   2 -16   18.12    1.29
  -6   2  16   21.13    1.85
  -5  -2  16   16.58    1.25
   5  -2 -16   17.16    1.17
   5   2 -16   18.37    1.22
  -5   2  16   14.61    1.58
  -4  -2  16    6.61    0.76
   4  -2 -16    6.82    0.70
  -4   2  16    5.63    1.01
   4   2 -16    8.22    0.78
  -3  -2  16    4.32    0.65
   3  -2 -16    5.29    0.60
  -3   2  16    5.72    1.03
   3   2 -16    6.07    0.70
  -2  -2  16   20.92    1.45
   2  -2 -16   21.71    1.40
   2   2 -16   21.32    1.43
  -2   2  16   22.65    1.32
  -2   2  16   21.23    1.82
  -1  -2  16    0.65    0.33
   1  -2 -16    1.28    0.38
  -1   2  16    2.27    0.68
   1   2 -16    2.04    0.46
  -1   2  16    1.13    0.32
   0  -2 -16    9.72    0.86
   0  -2  16    8.30    0.84
   0   2  16   10.93    0.80
   0   2 -16    9.84    0.90
   0   2  16    9.96    1.30
  -1  -2 -16    4.94    0.66
  -1  -2 -16    4.88    0.74
   1  -2  16    5.86    0.73
  -1   2 -16    6.82    0.75
   1   2  16    6.00    0.97
   1   2  16    5.65    0.61
  -2  -2 -16    2.37    0.60
   2  -2  16    2.46    0.50
  -2   2 -16    2.44    0.51
   2   2  16    2.06    0.42
   3  -2  16    9.91    0.95
  -3  -2 -16   10.07    1.10
   3   2  16   12.67    0.94
  -3   2 -16   12.13    1.01
   4  -2  16   24.65    1.74
  -4  -2 -16   23.63    1.78
   4   2  16   25.64    1.59
  10  -3 -16   46.21    2.55
 -10   3  16   45.53    3.37
  -9  -3  16   84.09    4.47
   9  -3 -16   83.90    4.31
  -9   3  16   84.72    5.20
  -8  -3  16   24.41    1.72
   8  -3 -16   26.76    1.61
   8   3 -16   25.83    1.63
  -8   3  16   26.10    2.31
  -7  -3  16   87.21    4.97
   7  -3 -16   99.13    4.87
  -7   3  16  100.12    5.71
   7   3 -16   99.20    4.91
  -6  -3  16    5.11    0.77
   6  -3 -16    6.02    0.67
   6   3 -16    7.02    0.74
  -6   3  16    6.01    1.11
  -5  -3  16  148.16    7.30
   5  -3 -16  140.61    7.13
  -5   3  16  144.65    7.90
   5   3 -16  149.94    7.21
  -4  -3  16   51.20    2.91
   4  -3 -16   54.31    2.78
   4   3 -16   47.07    2.78
  -4   3  16   52.43    3.40
  -3  -3  16   99.54    5.35
   3  -3 -16  102.35    5.23
   3   3 -16  113.56    5.33
  -3   3  16  101.08    5.84
   2  -3 -16   66.35    3.32
  -2  -3  16   57.19    3.38
   2   3 -16   66.71    3.38
  -2   3  16   57.22    3.79
  -1  -3  16   27.91    1.92
   1  -3 -16   34.42    1.90
  -1   3  16   31.58    1.78
   1   3 -16   32.88    1.93
  -1   3  16   30.41    2.33
   0  -3  16   47.00    2.83
   0  -3 -16   50.21    2.76
   0   3  16   51.87    2.68
   0   3 -16   53.93    2.84
   0   3  16   48.97    3.21
  -1  -3 -16   72.21    3.69
   1  -3  16   64.47    3.73
  -1   3 -16   74.10    3.75
   1   3  16   70.14    3.59
   1   3  16   68.93    4.16
  -2  -3 -16    8.52    1.03
   2  -3  16    9.18    0.94
  -2   3 -16   12.27    1.03
   2   3  16   10.76    0.85
   3  -3  16   57.93    3.32
  -3  -3 -16   59.01    3.50
  -3   3 -16   67.50    3.41
   3   3  16   60.04    3.22
   9  -4 -16    2.17    0.49
  -9  -4  16    2.47    0.62
  -9   4  16    1.94    0.89
  -8  -4  16   67.95    3.62
   8  -4 -16   65.09    3.44
  -8   4  16   59.39    4.22
   8   4 -16   64.66    3.45
  -7  -4  16   19.13    1.50
   7  -4 -16   21.07    1.37
   7   4 -16   22.06    1.42
  -7   4  16   16.62    1.88
   6  -4 -16  136.86    6.46
  -6  -4  16  118.37    6.58
  -6   4  16  130.88    7.32
   6   4 -16  133.26    6.48
  -5  -4  16   19.67    1.59
   5  -4 -16   23.74    1.48
  -5   4  16   21.58    2.09
   5   4 -16   25.23    1.55
  -4  -4  16   23.59    1.65
   4  -4 -16   23.29    1.48
   4   4 -16   21.60    1.52
  -4   4  16   25.05    2.12
   3  -4 -16   40.47    2.31
  -3  -4  16   43.45    2.51
   3   4 -16   39.11    2.35
  -3   4  16   41.35    2.91
   2  -4 -16   43.65    2.38
  -2  -4  16   44.75    2.55
   2   4 -16   40.80    2.41
  -2   4  16   38.73    2.89
  -1  -4  16   26.17    1.83
   1  -4 -16   30.12    1.75
   1   4 -16   29.62    1.79
  -1   4  16   24.30    2.12
   0  -4 -16   58.50    3.14
   0  -4  16   54.56    3.25
   0   4 -16   66.95    3.29
   0   4  16   57.02    3.67
   0   4  16   55.62    3.35
   1  -4  16   11.23    1.08
  -1   4 -16   15.08    1.19
   1   4  16   13.03    0.95
   1   4  16   13.14    1.45
  -2  -4 -16   16.08    1.42
   2  -4  16   16.27    1.31
  -2   4 -16   18.42    1.35
   2   4  16   15.61    1.13
  -8  -5  16    6.91    0.93
  -7  -5  16    7.87    0.99
   7  -5 -16    6.57    0.77
   7   5 -16    7.52    0.82
  -7   5  16    8.62    1.46
   6  -5 -16    0.47    0.34
  -6  -5  16    0.45    0.46
  -6   5  16    0.08    0.59
   6   5 -16    1.00    0.43
   5  -5 -16    0.12    0.29
  -5  -5  16    0.88    0.51
   5   5 -16    1.18    0.44
  -5   5  16    1.51    0.80
  -4  -5  16    3.27    0.66
   4  -5 -16    3.49    0.58
  -4   5  16    3.08    0.99
   4   5 -16    3.21    0.62
   3  -5 -16    7.89    0.79
  -3  -5  16    7.75    0.91
   3   5 -16    7.22    0.86
  -3   5  16    6.24    1.22
  -2  -5  16    0.68    0.46
   2  -5 -16    1.34    0.41
  -2   5  16    1.47    0.66
   2   5 -16    1.17    0.48
   1  -5 -16   10.53    0.90
  -1  -5  16    9.58    0.99
  -1   5  16    9.15    1.39
   1   5 -16    9.97    1.01
   0  -5  16    0.60    0.39
   0  -5 -16    0.83    0.36
   0   5  16    1.22    0.66
   0   5 -16    1.63    0.53
   1  -5  16   -0.29    0.34
  -1   5 -16    0.19    0.42
   5   6 -16   33.68    2.11
   4  -6 -16   67.66    3.68
  -4   6  16   62.70    4.64
   4   6 -16   74.36    3.80
   3  -6 -16   26.68    1.74
  -3  -6  16   30.45    2.47
   3   6 -16   27.60    1.97
  -3   6  16   25.84    2.57
   2  -6 -16   40.56    2.36
 -10   0  17    0.11    0.48
  10   0 -17    0.44    0.35
  -9   0  17    0.05    0.44
   9   0 -17    0.55    0.35
   8   0 -17    0.54    0.36
  -8   0  17    0.70    0.53
  -7   0  17    0.42    0.49
   7   0 -17    0.27    0.34
   6   0 -17    0.40    0.34
  -6   0  17   -0.15    0.34
  -5   0  17    0.14    0.41
   5   0 -17    0.40    0.34
  -5   0  17   -0.15    0.23
   4   0 -17    0.06    0.28
  -4   0  17    0.25    0.45
  -4   0  17    0.22    0.26
  -3   0  17    0.85    0.53
   3   0 -17   -0.07    0.29
  -3   0  17    0.30    0.28
  -2   0  17    0.17    0.41
   2   0 -17    0.18    0.32
  -2   0  17   -0.14    0.24
   1   0 -17    0.08    0.30
  -1   0  17    0.08    0.27
  -1   0  17    0.01    0.35
   0   0 -17    0.32    0.33
   0   0  17    0.60    0.43
   0   0  17    0.23    0.29
  -1   0 -17    0.31    0.34
  -1   0 -17    0.33    0.35
   1   0  17    1.67    0.41
  -2   0 -17    0.58    0.37
   2   0  17    0.33    0.31
  -2   0 -17    0.40    0.39
   3   0  17    0.10    0.31
  -3   0 -17   -0.03    0.36
  10  -1 -17   29.90    1.86
 -10   1  17   30.82    2.49
  10   1 -17   31.68    1.91
   9  -1 -17    7.84    0.80
  -9   1  17    8.49    1.36
   9   1 -17    8.55    0.87
   8  -1 -17  152.79    7.40
   8   1 -17  144.24    7.41
  -8   1  17  155.13    8.13
  -7  -1  17   13.59    1.45
   7  -1 -17   11.45    1.00
   7   1 -17   14.33    1.09
  -7   1  17   14.65    1.53
  -6  -1  17   75.63    4.12
   6  -1 -17   88.40    4.16
  -6  -1  17   83.32    4.58
   6   1 -17   67.90    4.10
  -6   1  17   86.90    4.79
  -5  -1  17    5.28    0.69
   5  -1 -17    6.18    0.69
  -5  -1  17    5.28    0.89
   5   1 -17    5.93    0.75
  -5   1  17    4.80    0.96
  -4  -1  17   54.21    2.93
   4  -1 -17   51.10    2.90
  -4  -1  17   54.86    3.25
  -4   1  17   51.73    3.36
   4   1 -17   55.54    2.96
  -3  -1  17    0.63    0.32
  -3  -1  17    0.28    0.40
   3  -1 -17    0.75    0.35
   3   1 -17    0.41    0.34
  -3   1  17    0.64    0.28
  -3   1  17    0.39    0.46
  -2  -1  17   88.74    4.92
  -2  -1  17   92.10    5.21
   2  -1 -17  105.53    4.99
  -2   1  17   96.97    5.40
   2   1 -17  106.04    5.01
  -2   1  17   93.59    4.85
   1  -1 -17   16.08    1.16
  -1  -1  17   14.25    1.33
  -1  -1  17   13.21    1.08
  -1   1  17   13.74    1.02
  -1   1  17   14.62    1.41
   1   1 -17   14.38    1.14
   0  -1 -17   89.79    4.45
   0  -1  17   82.33    4.40
   0   1 -17   93.84    4.49
   0   1  17   80.39    4.78
   0   1  17   83.38    4.34
   0   1 -17   82.61    4.41
  -1  -1 -17   17.99    1.38
  -1  -1 -17   15.54    1.24
   1  -1  17   16.53    1.24
   1   1  17   17.19    1.19
  -1   1 -17   17.79    1.28
  -1   1 -17   18.85    1.32
  -2  -1 -17   60.47    3.36
  -2  -1 -17   62.15    3.24
   2  -1  17   54.30    3.17
  -2   1 -17   62.05    3.22
  -2   1 -17   59.77    3.27
   2   1  17   53.95    3.11
   3  -1  17    1.17    0.42
  -3  -1 -17    1.63    0.55
  -3   1 -17    1.83    0.70
  -3   1 -17    1.47    0.48
   3   1  17    1.29    0.40
  10  -2 -17   32.38    1.95
 -10   2  17   33.28    2.70
   9  -2 -17   88.27    4.65
   9   2 -17   90.71    4.69
  -9   2  17   97.35    5.54
   8  -2 -17   24.78    1.55
  -8   2  17   23.63    2.17
   8   2 -17   23.83    1.59
   7  -2 -17  115.27    5.46
  -7  -2  17   94.03    5.45
   7   2 -17  108.28    5.47
  -7   2  17  117.57    6.26
  -6  -2  17   11.27    1.04
   6  -2 -17   11.41    0.96
   6   2 -17   12.30    1.04
  -6   2  17   13.55    1.52
   5  -2 -17  125.48    6.39
  -5  -2  17  122.70    6.47
   5   2 -17  135.18    6.45
  -5   2  17  132.94    7.10
   4  -2 -17    7.75    0.80
  -4  -2  17    8.67    0.88
   4   2 -17    9.36    0.88
  -4   2  17    8.22    1.26
  -3  -2  17   64.95    3.68
   3  -2 -17   72.89    3.66
  -3   2  17   68.31    4.19
   3   2 -17   69.62    3.67
   2  -2 -17    2.94    0.52
  -2  -2  17    2.40    0.54
   2   2 -17    3.30    0.60
  -2   2  17    3.10    0.80
  -2   2  17    2.90    0.46
  -1  -2  17   64.02    3.56
   1  -2 -17   64.65    3.52
   1   2 -17   73.40    3.58
  -1   2  17   66.34    3.99
  -1   2  17   63.03    3.40
   0  -2  17   12.81    1.07
   0  -2 -17   10.71    1.01
   0   2  17   13.58    1.41
   0   2 -17   12.78    1.07
   0   2  17   13.08    0.97
  -1  -2 -17  119.16    5.75
   1  -2  17  107.73    5.73
  -1  -2 -17  110.66    5.87
   1   2  17  107.58    5.62
  -1   2 -17  121.27    5.76
  -2  -2 -17    9.44    1.03
   2  -2  17    6.88    0.83
   2   2  17    7.32    0.76
  -2   2 -17    9.35    0.90
   3   2  17  135.55    7.16
  -3   2 -17  150.71    7.17
   9  -3 -17    7.70    0.79
   9   3 -17    7.02    0.82
  -9   3  17    5.62    1.23
   8  -3 -17   12.32    1.00
  -8  -3  17   10.88    1.11
   8   3 -17   14.62    1.09
  -8   3  17   12.42    1.77
  -7  -3  17    2.87    0.63
   7  -3 -17    2.69    0.49
   7   3 -17    3.72    0.60
  -7   3  17    3.81    0.99
  -6  -3  17   10.99    1.02
   6  -3 -17    9.52    0.88
  -6   3  17    7.79    1.36
   6   3 -17   10.49    0.94
  -5  -3  17    4.53    0.71
   5  -3 -17    4.59    0.63
  -5   3  17    4.67    1.05
   5   3 -17    5.65    0.73
   4  -3 -17   17.36    1.18
  -4  -3  17   13.01    1.21
  -4   3  17   15.88    1.66
   4   3 -17   15.48    1.19
   3  -3 -17    4.78    0.66
  -3  -3  17    4.93    0.77
   3   3 -17    6.01    0.76
  -3   3  17    5.19    1.08
   2  -3 -17    4.55    0.62
  -2  -3  17    5.15    0.75
   2   3 -17    4.95    0.68
  -2   3  17    4.62    0.98
   1  -3 -17    9.85    0.88
  -1  -3  17    8.57    0.90
   1   3 -17   10.50    0.96
  -1   3  17    8.38    1.27
  -1   3  17    8.54    0.84
   0  -3  17    4.28    0.72
   0  -3 -17    3.04    0.56
   0   3 -17    5.15    0.72
   0   3  17    3.45    0.88
   0   3  17    4.43    0.56
  -1  -3 -17    3.09    0.64
  -1  -3 -17    1.78    0.57
   1  -3  17    1.97    0.52
  -1   3 -17    2.45    0.54
   1   3  17    1.36    0.37
   1   3  17    1.75    0.69
  -2  -3 -17   10.53    1.25
   2  -3  17    9.86    1.20
  -2   3 -17   11.24    1.05
   2   3  17    9.96    0.87
  -8  -4  17   13.71    1.30
   8  -4 -17   15.52    1.29
   8   4 -17   16.61    1.24
  -8   4  17   16.64    3.08
  -7  -4  17   56.38    3.21
   7  -4 -17   54.57    3.03
  -7   4  17   51.19    3.82
   7   4 -17   58.94    3.09
  -6  -4  17    0.55    0.47
   6  -4 -17    0.07    0.30
  -6   4  17    0.06    0.58
   6   4 -17    0.38    0.38
   5  -4 -17   37.29    2.20
  -5  -4  17   38.24    2.37
  -5   4  17   35.55    2.87
   5   4 -17   39.84    2.27
   4  -4 -17    1.66    0.45
  -4  -4  17    3.01    0.64
  -4   4  17    3.42    0.95
   4   4 -17    4.01    0.64
  -3  -4  17   27.67    1.93
   3  -4 -17   26.09    1.76
  -3   4  17   30.95    2.47
   3   4 -17   33.03    1.90
   2  -4 -17   23.26    1.51
  -2  -4  17   23.40    1.67
  -2   4  17   21.98    1.98
   2   4 -17   22.09    1.56
  -1  -4  17   21.43    1.58
   1  -4 -17   22.07    1.47
   1   4 -17   21.50    1.53
  -1   4  17   20.87    1.92
   0  -4  17    0.52    0.44
   0  -4 -17    0.51    0.36
   0   4 -17    0.90    0.45
   0   4  17   -0.14    0.48
  -1   4 -17   72.98    3.77
   1   4  17   64.53    3.53
  -6  -5  17  139.14    7.49
   6   5 -17  148.84    7.21
  -5  -5  17   21.68    1.64
   5  -5 -17   19.56    1.42
  -5   5  17   21.23    2.16
   5   5 -17   22.06    1.52
  -4  -5  17   96.32    4.73
   4  -5 -17   88.68    4.51
   4   5 -17   80.44    4.52
  -4   5  17   80.66    5.23
   3  -5 -17    0.73    0.39
  -3  -5  17    0.86    0.50
  -3   5  17    0.85    0.63
   3   5 -17    1.54    0.49
  -2  -5  17   53.57    3.30
   2  -5 -17   53.48    2.97
   2   5 -17   54.69    3.23
  -2   5  17   54.79    3.98
   1  -5 -17   12.36    1.04
  -9   0  18   63.51    3.87
   9   0 -18   57.08    3.22
  -8   0  18   18.44    1.78
   8   0 -18   20.58    1.41
   7   0 -18   82.42    4.19
  -7   0  18   76.52    4.68
  -6   0  18   18.05    1.67
   6   0 -18   16.92    1.28
   5   0 -18  101.11    5.18
  -5   0  18  101.44    5.63
   4   0 -18   19.75    1.33
  -4   0  18   14.04    1.14
  -4   0  18   18.34    1.63
  -3   0  18  124.94    6.11
   3   0 -18  117.77    6.17
  -3   0  18  125.58    6.60
  -2   0  18    3.38    0.76
   2   0 -18    2.55    0.54
  -2   0  18    3.36    0.54
  -1   0  18  119.81    6.28
   1   0 -18  116.53    5.90
  -1   0  18  114.03    5.84
   0   0 -18    8.17    0.85
   0   0 -18    7.58    0.87
   0   0  18    6.52    0.77
  -1   0 -18  115.24    5.82
   1   0  18  107.43    5.77
  -1   0 -18  123.12    5.97
  -2   0 -18   62.28    3.62
  -2   0 -18   74.75    3.81
   9  -1 -18    5.70    0.74
   9   1 -18    5.29    0.75
  -9   1  18    4.88    1.07
   8  -1 -18   52.61    2.85
  -8   1  18   52.22    3.49
   8   1 -18   49.32    2.87
   7  -1 -18    6.22    0.75
   7   1 -18    7.51    0.84
  -7   1  18    7.25    1.25
   6  -1 -18    6.11    0.76
  -6  -1  18    6.38    0.86
   6   1 -18    7.48    0.83
  -6   1  18    6.96    1.18
  -5  -1  18    2.56    0.52
   5  -1 -18    2.44    0.53
   5   1 -18    2.82    0.59
  -5   1  18    1.72    0.67
  -4  -1  18   52.70    2.96
   4  -1 -18   49.36    2.95
  -4   1  18   55.38    3.46
   4   1 -18   58.14    3.03
  -3  -1  18    0.72    0.37
   3  -1 -18    0.58    0.39
  -3   1  18    0.78    0.32
   3   1 -18    0.68    0.40
  -3   1  18    0.17    0.46
  -2  -1  18   50.34    2.76
   2  -1 -18   42.82    2.71
   2   1 -18   54.65    2.80
  -2   1  18   48.68    3.16
  -2   1  18   48.01    2.65
  -1  -1  18   21.73    1.57
   1  -1 -18   27.57    1.68
  -1   1  18   24.98    1.54
  -1   1  18   22.67    1.92
   1   1 -18   24.19    1.62
   0  -1 -18   44.54    2.52
   0  -1  18   44.15    2.51
   0   1  18   40.77    2.41
   0   1 -18   47.69    2.55
   0   1  18   38.15    2.80
   1  -1  18    9.04    0.92
  -1  -1 -18    8.36    0.89
  -1  -1 -18    9.62    1.03
  -1   1 -18   10.41    0.97
   1   1  18    9.10    0.86
  -2  -1 -18   18.87    1.49
  -2   1 -18   19.55    1.42
   2   1  18   19.36    1.73
   9  -2 -18   27.77    1.75
  -9   2  18   26.16    2.39
   9   2 -18   27.88    1.78
   8  -2 -18    0.14    0.33
   8   2 -18    0.18    0.36
  -8   2  18    0.11    0.48
   7  -2 -18    0.82    0.39
  -7  -2  18    0.63    0.39
   7   2 -18    1.26    0.46
  -7   2  18    1.42    0.77
  -6  -2  18    9.74    1.02
   6  -2 -18   14.10    1.07
   6   2 -18   13.35    1.08
  -6   2  18   11.87    1.65
  -5  -2  18   18.97    1.40
   5  -2 -18   18.97    1.34
   5   2 -18   17.69    1.35
  -5   2  18   21.24    1.91
   4  -2 -18    2.11    0.48
  -4  -2  18    2.23    0.53
  -4   2  18    2.63    0.81
   4   2 -18    2.79    0.55
  -3  -2  18   29.45    1.98
   3  -2 -18   32.41    1.96
   3   2 -18   33.31    1.99
  -3   2  18   32.96    2.49
   2  -2 -18    0.93    0.38
  -2  -2  18    0.58    0.39
  -2   2  18    0.82    0.35
   2   2 -18    0.53    0.40
  -2   2  18    0.35    0.51
   1  -2 -18    1.08    0.42
  -1  -2  18    0.35    0.36
  -1   2  18    0.97    0.34
  -1   2  18    0.80    0.56
   1   2 -18    1.12    0.44
   0  -2 -18   30.15    1.86
   0  -2  18   27.01    1.85
   0   2  18   29.19    1.75
   0   2  18   28.51    2.24
   0   2 -18   29.11    1.86
   1  -2  18    8.60    1.03
  -1  -2 -18   11.13    1.09
  -1  -2 -18   10.81    1.00
  -1   2 -18   10.61    1.00
   1   2  18   10.53    0.92
  -8  -3  18   78.18    4.77
   8  -3 -18   92.81    5.23
   8   3 -18  105.49    4.81
  -8   3  18   89.77    6.03
  -7  -3  18   11.51    1.11
   7  -3 -18   11.38    1.01
  -7   3  18   10.18    1.60
   7   3 -18   13.74    1.09
   6  -3 -18  123.29    6.14
  -6  -3  18  112.24    6.22
   6   3 -18  126.49    6.18
  -6   3  18  128.29    7.03
   5  -3 -18    1.22    0.44
  -5  -3  18    1.32    0.50
   5   3 -18    1.83    0.49
  -5   3  18    1.38    0.68
  -4  -3  18   50.29    2.89
   4  -3 -18   51.06    2.78
  -4   3  18   45.53    3.31
   4   3 -18   48.76    2.79
  -3  -3  18   26.37    1.86
   3  -3 -18   29.49    1.82
  -3   3  18   29.55    2.40
   3   3 -18   29.90    1.87
  -2  -3  18  126.13    6.40
   2  -3 -18  127.46    6.28
   2   3 -18  126.32    6.30
  -2   3  18  118.18    6.86
   1  -3 -18    3.71    0.61
  -1  -3  18    3.48    0.69
  -1   3  18    3.42    0.87
   1   3 -18    4.89    0.71
   0  -3  18  143.06    7.47
   0  -3 -18  158.88    7.40
   0   3  18  151.56    7.95
   0   3  18  144.15    7.24
   0   3 -18  143.07    7.37
  -6  -4  18   13.61    1.27
   6   4 -18   15.32    1.21
  -5  -4  18   61.54    3.48
   5  -4 -18   62.06    3.31
  -5   4  18   61.17    4.12
   5   4 -18   58.82    3.33
  -4  -4  18    0.28    0.43
   4  -4 -18    0.13    0.36
   4   4 -18    1.07    0.46
  -4   4  18    1.61    0.74
   3  -4 -18   78.98    4.33
  -3  -4  18   80.79    4.50
   3   4 -18   89.27    4.42
  -3   4  18   85.04    5.10
   2  -4 -18    6.60    0.78
  -2  -4  18    6.62    1.02
  -2   4  18    5.65    1.27
   2   4 -18    6.93    0.97
   1  -4 -18   82.67    4.33
   8   0 -19    0.01    0.37
  -8   0  19   -0.43    0.44
   7   0 -19    0.19    0.36
  -7   0  19    0.06    0.49
   6   0 -19    0.14    0.35
  -6   0  19   -0.08    0.45
   5   0 -19    0.05    0.37
  -5   0  19    0.35    0.53
  -4   0  19   -0.01    0.30
   4   0 -19    0.18    0.39
  -4   0  19   -0.18    0.43
  -3   0  19    0.03    0.29
   3   0 -19    0.05    0.35
  -3   0  19   -0.07    0.43
   2   0 -19    0.27    0.39
  -2   0  19    0.27    0.32
  -2   0  19    0.51    0.48
  -1   0  19    0.52    0.48
  -1   0  19    0.16    0.32
   1   0 -19    0.16    0.35
   0   0  19    0.72    0.39
   0   0 -19    0.85    0.42
   0   0 -19    0.75    0.41
   8  -1 -19   31.79    2.06
   8   1 -19   27.46    1.88
  -8   1  19   30.36    2.48
   7  -1 -19   37.20    2.20
  -7   1  19   37.38    2.78
   7   1 -19   34.22    2.18
   6  -1 -19   50.87    2.74
  -6   1  19   44.84    3.20
   6   1 -19   44.58    2.69
   5  -1 -19   28.01    1.79
  -5  -1  19   24.22    1.70
   5   1 -19   28.36    1.80
  -5   1  19   26.41    2.17
  -4  -1  19   29.96    1.98
   4  -1 -19   33.50    2.04
  -4   1  19   31.44    2.46
   4   1 -19   34.01    2.05
   3  -1 -19   92.30    4.45
  -3  -1  19   85.24    4.39
  -3   1  19   86.19    4.90
   3   1 -19   71.34    4.33
   2  -1 -19   19.96    1.43
  -2  -1  19   18.75    1.38
  -2   1  19   18.55    1.30
  -2   1  19   17.70    1.70
   2   1 -19   18.96    1.41
   1  -1 -19   57.56    3.22
  -1  -1  19   55.95    3.19
  -1   1  19   58.89    3.13
   1   1 -19   59.45    3.22
  -1   1  19   56.97    3.62
   0  -1 -19   13.82    1.22
   0  -1 -19   16.93    1.37
   0  -1  19   16.04    1.41
   0   1 -19   15.90    1.26
   0   1  19   15.44    1.18
   7  -2 -19   54.97    3.49
   7   2 -19   50.67    2.88
  -7   2  19   46.57    3.50
   6  -2 -19   77.15    3.93
  -6  -2  19   71.24    3.95
   6   2 -19   69.20    3.90
  -6   2  19   76.53    4.63
   5  -2 -19   40.04    2.33
  -5  -2  19   39.52    2.38
   5   2 -19   39.39    2.34
  -5   2  19   35.92    2.81
  -4  -2  19  106.84    5.71
   4  -2 -19  112.65    5.69
   4   2 -19  114.27    5.69
  -4   2  19  111.30    6.32
  -3  -2  19   57.56    3.48
   3  -2 -19   70.76    3.55
   3   2 -19   60.37    3.46
  -3   2  19   68.42    4.10
   2  -2 -19   56.38    2.98
  -2  -2  19   48.98    2.96
  -2   2  19   51.85    3.43
   2   2 -19   51.01    2.94
  -1  -2  19   14.42    1.29
   1  -2 -19   13.99    1.24
  -1   2  19   13.10    1.55
   1   2 -19   19.69    1.37
  -1   2  19   17.21    1.17
  -6  -3  19    0.74    0.47
  -5  -3  19   13.16    1.26
   5  -3 -19   15.73    1.65
   5   3 -19   16.53    1.73
  -5   3  19   16.04    2.15
   4  -3 -19    8.27    0.90
  -4  -3  19    8.91    1.00
   4   3 -19   10.25    1.46
  -4   3  19    6.75    1.29
   3  -3 -19   18.65    1.36
  -3  -3  19   17.24    1.44
  -3   3  19   17.30    2.02
   2  -3 -19    2.08    0.54
  -5   0  20    0.92    0.64
  -4   0  20  121.74    6.65
  -3   0  20    4.51    0.70
  -3   0  20    5.13    0.98
  -5  -1  20   23.60    1.64
  -5   1  20   24.84    2.14
  -4  -1  20    4.72    0.72
  -4   1  20    5.42    1.10
   0   0   0    0.00    0.00
;
_shelx_hkl_checksum              62719
loop_
_space_group_symop_operation_xyz
'x, y, z'
'-x, y+1/2, -z+1/2'
'-x, -y, -z'
'x, -y-1/2, z-1/2'
loop_
_atom_site_label
_atom_site_type_symbol
_atom_site_fract_x
_atom_site_fract_y
_atom_site_fract_z
_atom_site_U_iso_or_equiv
_atom_site_adp_type
_atom_site_occupancy
_atom_site_site_symmetry_order
_atom_site_calc_flag
U1 U 0.74802(2) 0.40085(2) 0.14976(2) 0.00565(5) Uani 1 1 d
K1 K 0.35185(7) 0.60755(9) 0.13056(6) 0.01313(15) Uani 1 1 d
K2 K 1.05407(6) 0.27960(9) 0.05166(5) 0.01000(13) Uani 1 1 d
K3 K 0.60017(7) 0.78547(9) -0.00599(5) 0.01325(14) Uani 1 1 d
K4 K 0.90098(7) -0.05003(9) 0.18745(5) 0.01071(13) Uani 1 1 d
O1 O 0.9115(2) 0.2969(3) 0.17537(15) 0.0086(4) Uani 1 1 d
O5 O 0.7608(2) 0.3796(3) 0.30382(17) 0.0125(5) Uani 1 1 d
O6 O 0.8311(2) 0.5393(3) 0.28963(16) 0.0117(4) Uani 1 1 d
O3 O 0.7855(2) 0.5276(3) 0.02481(15) 0.0106(4) Uani 1 1 d
O4 O 0.8294(2) 0.6480(3) 0.10453(16) 0.0100(4) Uani 1 1 d
O2 O 0.5847(2) 0.5034(3) 0.12220(16) 0.0111(4) Uani 1 1 d
O7 O 0.6592(2) 0.1807(3) 0.04603(18) 0.0184(5) Uani 1 1 d
O8 O 0.6606(3) 0.1262(3) 0.1402(2) 0.0209(6) Uani 1 1 d
O1W O 1.0854(2) 0.6010(3) 0.13529(18) 0.0118(5) Uani 1 1 d
O2W O 0.8423(2) 0.0292(3) -0.00819(16) 0.0136(5) Uani 1 1 d
O3W O 0.4942(3) 0.9095(3) 0.1748(2) 0.0200(6) Uani 1 1 d
O4W O 0.3364(2) 0.2558(3) 0.17224(17) 0.0178(5) Uani 1 1 d
loop_
_atom_site_aniso_label
_atom_site_aniso_U_11
_atom_site_aniso_U_22
_atom_site_aniso_U_33
_atom_site_aniso_U_23
_atom_site_aniso_U_13
_atom_site_aniso_U_12
U1 0.00478(7) 0.00584(8) 0.00684(8) 0.00058(3) 0.00251(5) 0.00056(3)
K1 0.0087(3) 0.0115(3) 0.0194(4) -0.0027(3) 0.0044(3) -0.0008(2)
K2 0.0110(3) 0.0095(3) 0.0108(3) -0.0008(2) 0.0051(2) -0.0011(2)
K3 0.0084(3) 0.0143(3) 0.0162(3) 0.0030(3) 0.0025(3) 0.0025(2)
K4 0.0111(3) 0.0077(3) 0.0113(3) -0.0008(2) 0.0004(2) 0.0012(2)
O1 0.0076(10) 0.0086(10) 0.0099(10) 0.0014(8) 0.0029(8) 0.0011(8)
O5 0.0147(12) 0.0119(11) 0.0127(12) 0.0034(9) 0.0068(10) 0.0012(9)
O6 0.0126(11) 0.0110(11) 0.0121(11) -0.0022(9) 0.0048(9) -0.0024(9)
O3 0.0130(11) 0.0119(11) 0.0070(10) -0.0033(9) 0.0030(8) -0.0034(9)
O4 0.0135(11) 0.0055(10) 0.0104(11) -0.0028(9) 0.0029(9) -0.0021(9)
O2 0.0073(10) 0.0128(11) 0.0137(11) 0.0029(9) 0.0037(9) 0.0034(8)
O7 0.0128(11) 0.0196(13) 0.0236(13) -0.0099(11) 0.0065(10) -0.0015(10)
O8 0.0144(13) 0.0121(11) 0.0378(17) 0.0059(11) 0.0103(12) -0.0012(9)
O1W 0.0106(12) 0.0103(12) 0.0159(12) -0.0036(8) 0.0061(10) -0.0006(8)
O2W 0.0171(11) 0.0132(12) 0.0107(11) 0.0004(9) 0.0046(9) 0.0041(9)
O3W 0.0152(13) 0.0123(12) 0.0356(17) 0.0043(10) 0.0124(12) 0.0012(9)
O4W 0.0197(13) 0.0171(12) 0.0165(12) 0.0051(10) 0.0052(10) -0.0021(10)
loop_
_atom_type_symbol
_atom_type_description
_atom_type_scat_dispersion_real
_atom_type_scat_dispersion_imag
_atom_type_scat_source
O O 0.0106 0.0060 'International Tables Vol C Tables 4.2.6.8 and 6.1.1.4'
K K 0.2009 0.2494 'International Tables Vol C Tables 4.2.6.8 and 6.1.1.4'
U U -9.6767 9.6646 'International Tables Vol C Tables 4.2.6.8 and 6.1.1.4'
loop_
_geom_angle_atom_site_label_1
_geom_angle_atom_site_label_2
_geom_angle_atom_site_label_3
_geom_angle
_geom_angle_site_symmetry_1
_geom_angle_site_symmetry_3
O2 U1 O1 179.03(10) . .
O2 U1 O3 90.95(9) . .
O1 U1 O3 88.37(9) . .
O2 U1 O4 89.46(9) . .
O1 U1 O4 90.42(9) . .
O3 U1 O4 38.05(8) . .
O2 U1 O8 92.57(10) . .
O1 U1 O8 87.19(9) . .
O3 U1 O8 120.76(10) . .
O4 U1 O8 158.78(10) . .
O2 U1 O6 94.86(9) . .
O1 U1 O6 86.07(9) . .
O3 U1 O6 117.24(8) . .
O4 U1 O6 79.51(8) . .
O8 U1 O6 121.29(10) . .
O2 U1 O5 91.41(9) . .
O1 U1 O5 89.50(9) . .
O3 U1 O5 154.85(8) . .
O4 U1 O5 116.94(8) . .
O8 U1 O5 84.14(10) . .
O6 U1 O5 37.61(8) . .
O2 U1 O7 89.75(10) . .
O1 U1 O7 89.48(9) . .
O3 U1 O7 83.28(9) . .
O4 U1 O7 121.29(9) . .
O8 U1 O7 37.67(10) . .
O6 U1 O7 158.80(9) . .
O5 U1 O7 121.77(9) . .
O2 U1 K4 139.33(7) . .
O1 U1 K4 40.47(7) . .
O3 U1 K4 110.04(6) . .
O4 U1 K4 128.57(6) . .
O8 U1 K4 46.80(7) . .
O6 U1 K4 104.82(6) . .
O5 U1 K4 83.72(6) . .
O7 U1 K4 60.16(7) . .
O2 U1 K3 48.83(7) . .
O1 U1 K3 130.72(7) . .
O3 U1 K3 45.01(6) . .
O4 U1 K3 44.68(6) . .
O8 U1 K3 126.25(7) . .
O6 U1 K3 100.68(6) . .
O5 U1 K3 124.80(6) . .
O7 U1 K3 97.92(7) . .
K4 U1 K3 151.403(16) . .
O2 U1 K4 140.88(7) . 2_755
O1 U1 K4 39.94(7) . 2_755
O3 U1 K4 96.66(6) . 2_755
O4 U1 K4 74.23(6) . 2_755
O8 U1 K4 115.41(7) . 2_755
O6 U1 K4 47.85(6) . 2_755
O5 U1 K4 66.60(6) . 2_755
O7 U1 K4 129.19(6) . 2_755
K4 U1 K4 72.741(11) . 2_755
K3 U1 K4 117.605(15) . 2_755
O2 U1 K3 50.76(7) . 3_665
O1 U1 K3 128.59(7) . 3_665
O3 U1 K3 93.67(6) . 3_665
O4 U1 K3 120.81(6) . 3_665
O8 U1 K3 48.56(7) . 3_665
O6 U1 K3 135.41(6) . 3_665
O5 U1 K3 107.10(6) . 3_665
O7 U1 K3 40.20(6) . 3_665
K4 U1 K3 92.210(15) . 3_665
K3 U1 K3 78.284(17) . 3_665
K4 U1 K3 163.966(15) 2_755 3_665
O3 K1 O2 96.48(7) 3_665 .
O3 K1 O3W 132.91(9) 3_665 .
O2 K1 O3W 79.26(8) . .
O3 K1 O5 116.74(8) 3_665 2_655
O2 K1 O5 140.08(8) . 2_655
O3W K1 O5 62.18(8) . 2_655
O3 K1 O4W 76.27(7) 3_665 .
O2 K1 O4W 80.60(7) . .
O3W K1 O4W 146.11(8) . .
O5 K1 O4W 126.47(8) 2_655 .
O3 K1 O1W 74.06(7) 3_665 1_455
O2 K1 O1W 161.27(7) . 1_455
O3W K1 O1W 119.11(7) . 1_455
O5 K1 O1W 57.29(7) 2_655 1_455
O4W K1 O1W 81.43(7) . 1_455
O3 K1 O7 63.86(7) 3_665 3_665
O2 K1 O7 84.82(7) . 3_665
O3W K1 O7 69.05(8) . 3_665
O5 K1 O7 90.40(7) 2_655 3_665
O4W K1 O7 135.46(7) . 3_665
O1W K1 O7 104.55(7) 1_455 3_665
O3 K1 O3W 128.64(7) 3_665 2_645
O2 K1 O3W 71.56(7) . 2_645
O3W K1 O3W 94.82(5) . 2_645
O5 K1 O3W 100.33(7) 2_655 2_645
O4W K1 O3W 52.79(7) . 2_645
O1W K1 O3W 101.37(7) 1_455 2_645
O7 K1 O3W 153.78(7) 3_665 2_645
O3 K1 K3 47.87(5) 3_665 3_665
O2 K1 K3 56.58(5) . 3_665
O3W K1 K3 132.05(6) . 3_665
O5 K1 K3 162.97(6) 2_655 3_665
O4W K1 K3 49.34(6) . 3_665
O1W K1 K3 106.89(5) 1_455 3_665
O7 K1 K3 87.79(5) 3_665 3_665
O3W K1 K3 88.50(5) 2_645 3_665
O3 K1 K2 44.39(5) 3_665 1_455
O2 K1 K2 117.96(6) . 1_455
O3W K1 K2 161.76(6) . 1_455
O5 K1 K2 101.61(6) 2_655 1_455
O4W K1 K2 49.65(5) . 1_455
O1W K1 K2 44.36(4) 1_455 1_455
O7 K1 K2 104.76(5) 3_665 1_455
O3W K1 K2 96.49(5) 2_645 1_455
K3 K1 K2 62.648(18) 3_665 1_455
O3 K1 K3 86.76(6) 3_665 .
O2 K1 K3 46.70(5) . .
O3W K1 K3 56.20(6) . .
O5 K1 K3 110.54(6) 2_655 .
O4W K1 K3 122.31(6) . .
O1W K1 K3 145.30(6) 1_455 .
O7 K1 K3 40.78(5) 3_665 .
O3W K1 K3 113.13(5) 2_645 .
K3 K1 K3 78.58(2) 3_665 .
K2 K1 K3 130.30(3) 1_455 .
O3 K1 U1 30.87(5) 3_665 3_665
O2 K1 U1 84.10(5) . 3_665
O3W K1 U1 102.74(7) . 3_665
O5 K1 U1 112.84(6) 2_655 3_665
O4W K1 U1 101.97(6) . 3_665
O1W K1 U1 94.50(5) 1_455 3_665
O7 K1 U1 34.41(5) 3_665 3_665
O3W K1 U1 146.72(5) 2_645 3_665
K3 K1 U1 58.776(16) 3_665 3_665
K2 K1 U1 74.874(17) 1_455 3_665
K3 K1 U1 58.259(16) . 3_665
O1 K2 O1W 69.89(7) . .
O1 K2 O3 142.88(7) . 3_765
O1W K2 O3 73.03(7) . 3_765
O1 K2 O2W 122.86(7) . 3_755
O1W K2 O2W 151.09(8) . 3_755
O3 K2 O2W 91.18(7) 3_765 3_755
O1 K2 O2W 73.19(7) . .
O1W K2 O2W 135.86(7) . .
O3 K2 O2W 138.10(7) 3_765 .
O2W K2 O2W 71.46(8) 3_755 .
O1 K2 O1W 115.24(7) . 3_765
O1W K2 O1W 96.99(7) . 3_765
O3 K2 O1W 67.64(7) 3_765 3_765
O2W K2 O1W 99.10(7) 3_755 3_765
O2W K2 O1W 77.61(7) . 3_765
O1 K2 O6 69.72(6) . 2_745
O1W K2 O6 102.68(7) . 2_745
O3 K2 O6 121.14(7) 3_765 2_745
O2W K2 O6 64.48(7) 3_755 2_745
O2W K2 O6 86.07(7) . 2_745
O1W K2 O6 160.09(7) 3_765 2_745
O1 K2 O4W 103.85(7) . 1_655
O1W K2 O4W 79.28(7) . 1_655
O3 K2 O4W 70.23(7) 3_765 1_655
O2W K2 O4W 72.54(7) 3_755 1_655
O2W K2 O4W 133.49(7) . 1_655
O1W K2 O4W 136.83(7) 3_765 1_655
O6 K2 O4W 51.88(7) 2_745 1_655
O1 K2 O4 164.24(7) . 3_765
O1W K2 O4 100.06(7) . 3_765
O3 K2 O4 29.13(6) 3_765 3_765
O2W K2 O4 71.80(7) 3_755 3_765
O2W K2 O4 109.72(7) . 3_765
O1W K2 O4 52.50(7) 3_765 3_765
O6 K2 O4 125.41(7) 2_745 3_765
O4W K2 O4 85.48(7) 1_655 3_765
O1 K2 O3 55.40(6) . .
O1W K2 O3 61.67(7) . .
O3 K2 O3 104.64(6) 3_765 .
O2W K2 O3 147.19(7) 3_755 .
O2W K2 O3 77.78(6) . .
O1W K2 O3 62.63(6) 3_765 .
O6 K2 O3 125.10(6) 2_745 .
O4W K2 O3 139.74(7) 1_655 .
O4 K2 O3 109.40(6) 3_765 .
O1 K2 K2 94.59(5) . 3_765
O1W K2 K2 50.47(6) . 3_765
O3 K2 K2 59.41(5) 3_765 3_765
O2W K2 K2 139.71(6) 3_755 3_765
O2W K2 K2 110.97(5) . 3_765
O1W K2 K2 46.52(4) 3_765 3_765
O6 K2 K2 153.02(5) 2_745 3_765
O4W K2 K2 115.52(6) 1_655 3_765
O4 K2 K2 69.79(5) 3_765 3_765
O3 K2 K2 45.23(4) . 3_765
O1 K2 K4 43.09(5) . .
O1W K2 K4 110.47(6) . .
O3 K2 K4 167.02(5) 3_765 .
O2W K2 K4 80.15(5) 3_755 .
O2W K2 K4 47.76(5) . .
O1W K2 K4 123.02(5) 3_765 .
O6 K2 K4 46.26(5) 2_745 .
O4W K2 K4 97.78(5) 1_655 .
O4 K2 K4 149.39(5) 3_765 .
O3 K2 K4 87.69(4) . .
K2 K2 K4 132.78(3) 3_765 .
O7 K3 O4 148.78(8) 3_665 .
O7 K3 O3 139.11(8) 3_665 .
O4 K3 O3 31.58(6) . .
O7 K3 O4W 108.52(8) 3_665 3_665
O4 K3 O4W 95.65(7) . 3_665
O3 K3 O4W 73.61(7) . 3_665
O7 K3 O2 87.88(8) 3_665 .
O4 K3 O2 61.60(7) . .
O3 K3 O2 62.24(6) . .
O4W K3 O2 125.70(7) 3_665 .
O7 K3 O8 29.90(8) 3_665 3_665
O4 K3 O8 170.04(7) . 3_665
O3 K3 O8 139.03(8) . 3_665
O4W K3 O8 80.56(8) 3_665 3_665
O2 K3 O8 113.20(7) . 3_665
O7 K3 O2 60.57(7) 3_665 3_665
O4 K3 O2 111.36(7) . 3_665
O3 K3 O2 83.02(6) . 3_665
O4W K3 O2 72.16(7) 3_665 3_665
O2 K3 O2 72.59(7) . 3_665
O8 K3 O2 58.74(7) 3_665 3_665
O7 K3 O7 94.42(7) 3_665 1_565
O4 K3 O7 98.44(7) . 1_565
O3 K3 O7 125.29(7) . 1_565
O4W K3 O7 104.47(7) 3_665 1_565
O2 K3 O7 126.07(7) . 1_565
O8 K3 O7 91.44(7) 3_665 1_565
O2 K3 O7 150.17(6) 3_665 1_565
O7 K3 O2W 136.51(8) 3_665 1_565
O4 K3 O2W 70.18(7) . 1_565
O3 K3 O2W 83.52(7) . 1_565
O4W K3 O2W 69.29(7) 3_665 1_565
O2 K3 O2W 130.08(6) . 1_565
O8 K3 O2W 116.38(7) 3_665 1_565
O2 K3 O2W 141.33(6) 3_665 1_565
O7 K3 O2W 48.46(6) 1_565 1_565
O7 K3 O8 93.06(7) 3_665 1_565
O4 K3 O8 86.45(7) . 1_565
O3 K3 O8 117.85(7) . 1_565
O4W K3 O8 128.94(7) 3_665 1_565
O2 K3 O8 100.01(7) . 1_565
O8 K3 O8 103.12(7) 3_665 1_565
O2 K3 O8 152.31(6) 3_665 1_565
O7 K3 O8 26.08(7) 1_565 1_565
O2W K3 O8 63.64(6) 1_565 1_565
O7 K3 O3W 73.08(8) 3_665 3_675
O4 K3 O3W 137.75(7) . 3_675
O3 K3 O3W 131.59(7) . 3_675
O4W K3 O3W 59.83(7) 3_665 3_675
O2 K3 O3W 160.58(7) . 3_675
O8 K3 O3W 47.47(7) 3_665 3_675
O2 K3 O3W 94.14(7) 3_665 3_675
O7 K3 O3W 60.98(7) 1_565 3_675
O2W K3 O3W 68.99(6) 1_565 3_675
O8 K3 O3W 85.12(7) 1_565 3_675
O7 K3 K1 104.95(6) 3_665 3_665
O4 K3 K1 76.21(5) . 3_665
O3 K3 K1 44.63(5) . 3_665
O4W K3 K1 48.71(5) 3_665 3_665
O2 K3 K1 77.27(5) . 3_665
O8 K3 K1 94.54(6) 3_665 3_665
O2 K3 K1 44.64(4) 3_665 3_665
O7 K3 K1 150.65(5) 1_565 3_665
O2W K3 K1 103.90(5) 1_565 3_665
O8 K3 K1 161.59(5) 1_565 3_665
O3W K3 K1 103.53(5) 3_675 3_665
O4 K4 O1 148.71(7) 1_545 .
O4 K4 O1 91.39(7) 1_545 2_745
O1 K4 O1 117.00(6) . 2_745
O4 K4 O8 101.25(8) 1_545 .
O1 K4 O8 63.36(7) . .
O1 K4 O8 145.25(8) 2_745 .
O4 K4 O6 113.84(7) 1_545 2_745
O1 K4 O6 72.97(7) . 2_745
O1 K4 O6 61.96(7) 2_745 2_745
O8 K4 O6 135.96(7) . 2_745
O4 K4 O1W 136.26(7) 1_545 2_745
O1 K4 O1W 70.90(7) . 2_745
O1 K4 O1W 68.68(7) 2_745 2_745
O8 K4 O1W 80.17(8) . 2_745
O6 K4 O1W 91.23(7) 2_745 2_745
O4 K4 O2W 75.81(7) 1_545 .
O1 K4 O2W 73.87(7) . .
O1 K4 O2W 139.95(7) 2_745 .
O8 K4 O2W 74.80(8) . .
O6 K4 O2W 88.44(7) 2_745 .
O1W K4 O2W 143.19(7) 2_745 .
O4 K4 O7 96.07(7) 1_545 .
O1 K4 O7 57.56(6) . .
O1 K4 O7 170.17(7) 2_745 .
O8 K4 O7 26.36(8) . .
O6 K4 O7 119.99(7) 2_745 .
O1W K4 O7 101.50(7) 2_745 .
O2W K4 O7 48.85(6) . .
O4 K4 U1 132.99(5) 1_545 .
O1 K4 U1 26.52(5) . .
O1 K4 U1 134.55(5) 2_745 .
O8 K4 U1 36.89(5) . .
O6 K4 U1 99.46(5) 2_745 .
O1W K4 U1 70.93(5) 2_745 .
O2W K4 U1 72.83(5) . .
O7 K4 U1 37.13(4) . .
O4 K4 U1 107.83(5) 1_545 2_745
O1 K4 U1 95.18(5) . 2_745
O1 K4 U1 26.17(5) 2_745 2_745
O8 K4 U1 148.66(7) . 2_745
O6 K4 U1 36.87(5) 2_745 2_745
O1W K4 U1 70.86(5) 2_745 2_745
O2W K4 U1 123.26(5) . 2_745
O7 K4 U1 152.22(5) . 2_745
U1 K4 U1 118.506(18) . 2_745
O4 K4 K3 45.00(5) 1_545 1_545
O1 K4 K3 108.51(5) . 1_545
O1 K4 K3 134.48(5) 2_745 1_545
O8 K4 K3 58.51(6) . 1_545
O6 K4 K3 137.98(5) 2_745 1_545
O1W K4 K3 129.78(5) 2_745 1_545
O2W K4 K3 54.24(5) . 1_545
O7 K4 K3 51.62(5) . 1_545
U1 K4 K3 88.063(18) . 1_545
U1 K4 K3 152.37(2) 2_745 1_545
O4 K4 K2 115.03(6) 1_545 .
O1 K4 K2 44.52(5) . .
O1 K4 K2 111.39(5) 2_745 .
O8 K4 K2 92.46(6) . .
O6 K4 K2 49.44(5) 2_745 .
O1W K4 K2 108.53(5) 2_745 .
O2W K4 K2 47.32(5) . .
O7 K4 K2 71.10(5) . .
U1 K4 K2 63.656(15) . .
U1 K4 K2 85.774(18) 2_745 .
K3 K4 K2 101.03(2) 1_545 .
U1 O1 K4 113.00(10) . .
U1 O1 K4 113.88(10) . 2_755
K4 O1 K4 114.86(8) . 2_755
U1 O1 K2 123.66(10) . .
K4 O1 K2 92.39(7) . .
K4 O1 K2 96.87(7) 2_755 .
O6 O5 U1 70.93(13) . .
O6 O5 K1 167.50(17) . 2_645
U1 O5 K1 121.58(10) . 2_645
O5 O6 U1 71.47(13) . .
O5 O6 K4 108.04(15) . 2_755
U1 O6 K4 95.28(8) . 2_755
O5 O6 K2 119.63(15) . 2_755
U1 O6 K2 168.50(10) . 2_755
K4 O6 K2 84.30(6) 2_755 2_755
O4 O3 U1 71.14(12) . .
O4 O3 K1 161.19(16) . 3_665
U1 O3 K1 113.38(9) . 3_665
O4 O3 K3 73.70(13) . .
U1 O3 K3 98.96(8) . .
K1 O3 K3 87.50(7) 3_665 .
O4 O3 K2 85.81(13) . 3_765
U1 O3 K2 150.01(10) . 3_765
K1 O3 K2 94.67(7) 3_665 3_765
K3 O3 K2 92.39(7) . 3_765
O4 O3 K2 102.12(13) . .
U1 O3 K2 90.63(7) . .
K1 O3 K2 96.17(7) 3_665 .
K3 O3 K2 167.43(9) . .
K2 O3 K2 75.36(6) 3_765 .
O3 O4 U1 70.81(12) . .
O3 O4 K4 155.81(16) . 1_565
U1 O4 K4 132.10(10) . 1_565
O3 O4 K3 74.73(13) . .
U1 O4 K3 99.25(8) . .
K4 O4 K3 91.61(7) 1_565 .
O3 O4 K2 65.06(12) . 3_765
U1 O4 K2 131.98(9) . 3_765
K4 O4 K2 94.87(7) 1_565 3_765
K3 O4 K2 86.90(7) . 3_765
U1 O2 K1 162.65(12) . .
U1 O2 K3 103.28(9) . .
K1 O2 K3 92.74(7) . .
U1 O2 K3 102.26(9) . 3_665
K1 O2 K3 78.78(6) . 3_665
K3 O2 K3 107.41(7) . 3_665
O8 O7 U1 70.52(14) . .
O8 O7 K3 87.55(15) . 3_665
U1 O7 K3 105.50(9) . 3_665
O8 O7 K1 164.71(17) . 3_665
U1 O7 K1 96.09(9) . 3_665
K3 O7 K1 89.09(8) 3_665 3_665
O8 O7 K3 85.02(15) . 1_545
U1 O7 K3 152.33(11) . 1_545
K3 O7 K3 85.58(7) 3_665 1_545
K1 O7 K3 109.59(8) 3_665 1_545
O8 O7 K4 56.28(13) . .
U1 O7 K4 82.71(7) . .
K3 O7 K4 138.48(10) 3_665 .
K1 O7 K4 131.19(8) 3_665 .
K3 O7 K4 72.77(6) 1_545 .
O7 O8 U1 71.81(14) . .
O7 O8 K4 97.36(16) . .
U1 O8 K4 96.31(9) . .
O7 O8 K3 62.55(13) . 3_665
U1 O8 K3 96.20(9) . 3_665
K4 O8 K3 151.29(12) . 3_665
O7 O8 K3 68.90(14) . 1_545
U1 O8 K3 138.65(12) . 1_545
K4 O8 K3 76.65(7) . 1_545
K3 O8 K3 76.88(7) 3_665 1_545
K2 O1W K1 89.26(7) . 1_655
K2 O1W K4 91.95(7) . 2_755
K1 O1W K4 104.99(8) 1_655 2_755
K2 O1W K2 83.01(7) . 3_765
K1 O1W K2 100.71(8) 1_655 3_765
K4 O1W K2 153.75(10) 2_755 3_765
K2 O2W K2 108.54(8) 3_755 .
K2 O2W K4 94.90(7) 3_755 .
K2 O2W K4 84.92(7) . .
K2 O2W K3 83.01(6) 3_755 1_545
K2 O2W K3 160.21(9) . 1_545
K4 O2W K3 77.97(6) . 1_545
K1 O3W K1 134.45(10) . 2_655
K1 O3W K3 112.63(10) . 3_675
K1 O3W K3 108.21(7) 2_655 3_675
K1 O4W K3 81.95(7) . 3_665
K1 O4W K2 85.35(7) . 1_455
K3 O4W K2 85.67(7) 3_665 1_455
loop_
_geom_bond_atom_site_label_1
_geom_bond_atom_site_label_2
_geom_bond_distance
_geom_bond_site_symmetry_2
U1 O2 1.850(2) .
U1 O1 1.858(2) .
U1 O3 2.292(2) .
U1 O4 2.297(2) .
U1 O8 2.313(3) .
U1 O6 2.321(2) .
U1 O5 2.328(3) .
U1 O7 2.331(2) .
U1 K4 3.8300(8) .
U1 K3 3.8494(8) .
U1 K4 3.8517(7) 2_755
U1 K3 3.9856(8) 3_665
K1 O3 2.611(2) 3_665
K1 O2 2.660(2) .
K1 O3W 2.764(3) .
K1 O5 2.765(2) 2_655
K1 O4W 2.817(3) .
K1 O1W 2.875(3) 1_455
K1 O7 3.136(3) 3_665
K1 O3W 3.318(3) 2_645
K1 K3 3.7127(10) 3_665
K1 K2 3.9708(10) 1_455
K1 K3 4.0861(11) .
K1 U1 4.1013(9) 3_665
K2 O1 2.772(2) .
K2 O1W 2.776(2) .
K2 O3 2.787(2) 3_765
K2 O2W 2.802(2) 3_755
K2 O2W 2.915(3) .
K2 O1W 2.952(3) 3_765
K2 O6 3.016(2) 2_745
K2 O4W 3.036(3) 1_655
K2 O4 3.065(2) 3_765
K2 O3 3.379(2) .
K2 K2 3.7980(14) 3_765
K2 K4 3.9498(10) .
K3 O7 2.669(3) 3_665
K3 O4 2.742(2) .
K3 O3 2.756(2) .
K3 O4W 2.844(3) 3_665
K3 O2 2.977(2) .
K3 O8 3.005(3) 3_665
K3 O2 3.159(2) 3_665
K3 O7 3.182(3) 1_565
K3 O2W 3.216(3) 1_565
K3 O8 3.398(3) 1_565
K3 O3W 3.424(3) 3_675
K3 K1 3.7127(10) 3_665
K4 O4 2.664(2) 1_545
K4 O1 2.701(2) .
K4 O1 2.704(2) 2_745
K4 O8 2.809(3) .
K4 O6 2.868(2) 2_745
K4 O1W 2.920(3) 2_745
K4 O2W 2.936(2) .
K4 O7 3.349(3) .
K4 U1 3.8517(7) 2_745
K4 K3 3.8766(10) 1_545
O1 K4 2.704(2) 2_755
O5 O6 1.498(3) .
O5 K1 2.765(2) 2_645
O6 K4 2.868(2) 2_755
O6 K2 3.016(2) 2_755
O3 O4 1.496(3) .
O3 K1 2.611(2) 3_665
O3 K2 2.787(2) 3_765
O4 K4 2.664(2) 1_565
O4 K2 3.065(2) 3_765
O2 K3 3.159(2) 3_665
O7 O8 1.499(4) .
O7 K3 2.669(3) 3_665
O7 K1 3.136(3) 3_665
O7 K3 3.182(3) 1_545
O8 K3 3.005(3) 3_665
O8 K3 3.398(3) 1_545
O1W K1 2.875(3) 1_655
O1W K4 2.920(3) 2_755
O1W K2 2.951(3) 3_765
O2W K2 2.802(2) 3_755
O2W K3 3.216(3) 1_545
O3W K1 3.318(3) 2_655
O3W K3 3.424(3) 3_675
O4W K3 2.844(3) 3_665
O4W K2 3.036(3) 1_455
